MODEL 1
REMARK VINA RESULT:      -3.4      0.000      0.000
ROOT
ATOM      1  C1  A00 X   1      15.439   8.972   7.6370  0.00  0.00     0.000 C
ATOM      2  C2  A00 X   1      16.429   9.205   8.8090  0.00  0.00     0.000 C
ATOM      3  C3  A00 X   1      16.346   8.184   9.9920  0.00  0.00     0.000 C
ATOM      4  C4  A00 X   1      15.070   7.305  10.0280  0.00  0.00     0.000 C
ATOM      5  C5  A00 X   1      13.909   7.941   9.2630  0.00  0.00     0.000 C
ATOM      6  O5  A00 X   1      14.373   8.025   7.8960  0.00  0.00     0.000 O
ATOM      7   O  A00 X   1      16.376   8.905  11.2210  0.00  0.00     0.000 O
ATOM      9  HD  A00 X   1      15.786   8.277  11.3080  0.00  0.00     0.000 HD
ATOM      9   O  A00 X   1      15.324   5.996   9.5190  0.00  0.00     0.000 O
ATOM     11  HD  A00 X   1      14.734   5.368   9.6050  0.00  0.00     0.000 HD
ENDROOT
BRANCH 2 11
ATOM     11   O  A00 X   1      17.764   9.188   8.2670  0.00  0.00     0.000 O
ATOM     12   O  A00 X   1      19.708   9.247   9.6750  0.00  0.00     0.000 OA
ATOM     13   O  A00 X   1      18.197  11.153   9.6520  0.00  0.00     0.000 OA
ATOM     14   O  A00 X   1      19.516  10.638   7.7410  0.00  0.00     0.000 OA
ATOM     15   S  A00 X   1      18.854  10.116   8.9050  0.00  0.00     0.000 S
ENDBRANCH 2 11
BRANCH 5 16
ATOM     16   C  A00 X   1      13.416   9.277   9.8260  0.00  0.00     0.000 C
ATOM     17   O  A00 X   1      13.691   9.561  10.9740  0.00  0.00     0.000 OA
ATOM     18   O  A00 X   1      12.768  10.064   9.1660  0.00  0.00     0.000 OA
ENDBRANCH 5 16
BRANCH 1 19
ATOM     19  O4  A00 X   2      14.925  10.208   7.0820  0.00  0.00     0.000 O
BRANCH 19 23
ATOM     20  C1  A00 X   2      15.026   8.792   3.0380  0.00  0.00     0.000 C
ATOM     21  C2  A00 X   2      16.211   9.664   3.5200  0.00  0.00     0.000 C
ATOM     22  C3  A00 X   2      16.256   9.727   5.0610  0.00  0.00     0.000 C
ATOM     23  C4  A00 X   2      14.897  10.197   5.6260  0.00  0.00     0.000 C
ATOM     24  C5  A00 X   2      13.797   9.260   5.0570  0.00  0.00     0.000 C
ATOM     25  O5  A00 X   2      13.811   9.347   3.6090  0.00  0.00     0.000 O
ATOM     26   O  A00 X   2      17.410  10.488   5.4580  0.00  0.00     0.000 O
ATOM     28  HD  A00 X   2      17.220  11.146   4.9290  0.00  0.00     0.000 HD
BRANCH 21 30
ATOM     28   N  A00 X   2      16.292  10.251   2.1790  0.00  0.00     0.000 N
ATOM     30  HD  A00 X   2      17.039  10.434   2.5780  0.00  0.00     0.000 HD
ATOM     30   O  A00 X   2      18.531  10.750   1.7370  0.00  0.00     0.000 OA
ATOM     31   S  A00 X   2      17.304  11.439   1.9310  0.00  0.00     0.000 S
ATOM     32   O  A00 X   2      16.786  12.089   0.7670  0.00  0.00     0.000 OA
ATOM     33   O  A00 X   2      17.221  12.310   3.0650  0.00  0.00     0.000 OA
ENDBRANCH 21 30
BRANCH 24 34
ATOM     34   C  A00 X   2      12.371   9.372   5.6480  0.00  0.00     0.000 C
ATOM     35   O  A00 X   2      10.397  12.431   5.6480  0.00  0.00     0.000 OA
ATOM     36   O  A00 X   2      11.987  10.749   5.8280  0.00  0.00     0.000 O
ATOM     37   O  A00 X   2      11.309  11.447   3.7000  0.00  0.00     0.000 OA
ATOM     38   S  A00 X   2      10.738  11.212   4.9910  0.00  0.00     0.000 S
ATOM     39   O  A00 X   2       9.765  10.168   5.1060  0.00  0.00     0.000 OA
ENDBRANCH 24 34
BRANCH 20 40
ATOM     40  O4  A00 X   3      15.259   7.486   3.5840  0.00  0.00     0.000 O
BRANCH 40 44
ATOM     41  C1  A00 X   3      13.873   4.580   5.2460  0.00  0.00     0.000 C
ATOM     42  C2  A00 X   3      15.360   4.753   4.8690  0.00  0.00     0.000 C
ATOM     43  C3  A00 X   3      15.513   5.159   3.3810  0.00  0.00     0.000 C
ATOM     44  C4  A00 X   3      14.648   6.339   2.9550  0.00  0.00     0.000 C
ATOM     45  C5  A00 X   3      13.169   6.089   3.3620  0.00  0.00     0.000 C
ATOM     46  O5  A00 X   3      13.073   5.699   4.7700  0.00  0.00     0.000 O
ATOM     47   O  A00 X   3      16.851   5.262   2.8970  0.00  0.00     0.000 O
ATOM     49  HD  A00 X   3      16.526   5.945   2.4760  0.00  0.00     0.000 HD
BRANCH 42 49
ATOM     49   O  A00 X   3      15.906   5.760   5.7500  0.00  0.00     0.000 O
ATOM     50   O  A00 X   3      18.008   6.873   6.0170  0.00  0.00     0.000 OA
ATOM     51   O  A00 X   3      17.995   4.551   5.5720  0.00  0.00     0.000 OA
ATOM     52   O  A00 X   3      17.188   5.302   7.6630  0.00  0.00     0.000 OA
ATOM     53   S  A00 X   3      17.360   5.628   6.2890  0.00  0.00     0.000 S
ENDBRANCH 42 49
BRANCH 45 54
ATOM     54   C  A00 X   3      12.478   5.102   2.4140  0.00  0.00     0.000 C
ATOM     55   O  A00 X   3      13.130   4.399   1.6700  0.00  0.00     0.000 OA
ATOM     56   O  A00 X   3      11.261   5.006   2.3900  0.00  0.00     0.000 OA
ENDBRANCH 45 54
BRANCH 41 57
ATOM     57  O4  A00 X   4      13.368   3.286   4.8470  0.00  0.00     0.000 O
BRANCH 57 61
ATOM     58  C1  A00 X   4      10.115   0.822   6.2560  0.00  0.00     0.000 C
ATOM     59  C2  A00 X   4       9.792   2.008   5.3140  0.00  0.00     0.000 C
ATOM     60  C3  A00 X   4      11.033   2.581   4.5990  0.00  0.00     0.000 C
ATOM     61  C4  A00 X   4      12.198   2.826   5.5820  0.00  0.00     0.000 C
ATOM     62  C5  A00 X   4      12.491   1.464   6.2580  0.00  0.00     0.000 C
ATOM     63  O5  A00 X   4      11.326   1.046   7.0140  0.00  0.00     0.000 O
BRANCH 59 66
ATOM     64   N  A00 X   4       8.785   2.320   4.2840  0.00  0.00     0.000 N
ATOM     66  HD  A00 X   4       8.743   3.137   4.0000  0.00  0.00     0.000 HD
ATOM     66   O  A00 X   4       7.102   2.007   5.9770  0.00  0.00     0.000 OA
ATOM     67   S  A00 X   4       7.265   1.906   4.5610  0.00  0.00     0.000 S
ATOM     68   O  A00 X   4       6.581   2.902   3.7880  0.00  0.00     0.000 OA
ATOM     69   O  A00 X   4       7.249   0.595   3.9770  0.00  0.00     0.000 OA
ENDBRANCH 59 66
BRANCH 62 70
ATOM     70   C  A00 X   4      13.713   1.480   7.2080  0.00  0.00     0.000 C
ATOM     71   O  A00 X   4      13.862   2.476  10.6850  0.00  0.00     0.000 OA
ATOM     72   O  A00 X   4      15.220   3.077   8.8580  0.00  0.00     0.000 OA
ATOM     73   O  A00 X   4      13.266   1.708   8.5540  0.00  0.00     0.000 O
ATOM     74   O  A00 X   4      12.994   4.045   9.0730  0.00  0.00     0.000 OA
ATOM     75   S  A00 X   4      13.858   2.938   9.3260  0.00  0.00     0.000 S
ENDBRANCH 62 70
ENDBRANCH 57 61
ENDBRANCH 41 57
ENDBRANCH 40 44
ENDBRANCH 20 40
ENDBRANCH 19 23
ENDBRANCH 1 19
TORSDOF 14
ENDMDL
MODEL 2
REMARK VINA RESULT:      -3.3      3.087      5.512
ROOT
ATOM      1  C1  A00 X   1      11.891  12.551   3.8480  0.00  0.00     0.000 C
ATOM      2  C2  A00 X   1      12.001  13.351   2.5230  0.00  0.00     0.000 C
ATOM      3  C3  A00 X   1      11.319  14.758   2.5100  0.00  0.00     0.000 C
ATOM      4  C4  A00 X   1      10.319  15.027   3.6640  0.00  0.00     0.000 C
ATOM      5  C5  A00 X   1       9.776  13.733   4.2700  0.00  0.00     0.000 C
ATOM      6  O5  A00 X   1      10.937  13.065   4.8110  0.00  0.00     0.000 O
ATOM      7   O  A00 X   1      10.583  14.899   1.2970  0.00  0.00     0.000 O
ATOM      9  HD  A00 X   1      10.096  15.231   1.9310  0.00  0.00     0.000 HD
ATOM      9   O  A00 X   1      10.908  15.829   4.6880  0.00  0.00     0.000 O
ATOM     11  HD  A00 X   1      10.420  16.161   5.3220  0.00  0.00     0.000 HD
ENDROOT
BRANCH 2 11
ATOM     11   O  A00 X   1      13.401  13.505   2.2200  0.00  0.00     0.000 O
ATOM     12   O  A00 X   1      14.167  14.935   0.4490  0.00  0.00     0.000 OA
ATOM     13   O  A00 X   1      12.809  12.991  -0.0940  0.00  0.00     0.000 OA
ATOM     14   O  A00 X   1      15.023  12.721   0.7330  0.00  0.00     0.000 OA
ATOM     15   S  A00 X   1      13.851  13.555   0.7190  0.00  0.00     0.000 S
ENDBRANCH 2 11
BRANCH 5 16
ATOM     16   C  A00 X   1       8.959  12.862   3.3100  0.00  0.00     0.000 C
ATOM     17   O  A00 X   1       8.561  13.353   2.2750  0.00  0.00     0.000 OA
ATOM     18   O  A00 X   1       8.702  11.698   3.5460  0.00  0.00     0.000 OA
ENDBRANCH 5 16
BRANCH 1 19
ATOM     19  O4  A00 X   2      11.711  11.130   3.6330  0.00  0.00     0.000 O
BRANCH 19 23
ATOM     20  C1  A00 X   2      14.126   8.386   1.3970  0.00  0.00     0.000 C
ATOM     21  C2  A00 X   2      14.856   9.485   2.2070  0.00  0.00     0.000 C
ATOM     22  C3  A00 X   2      13.921  10.096   3.2710  0.00  0.00     0.000 C
ATOM     23  C4  A00 X   2      12.613  10.599   2.6210  0.00  0.00     0.000 C
ATOM     24  C5  A00 X   2      11.991   9.417   1.8280  0.00  0.00     0.000 C
ATOM     25  O5  A00 X   2      12.937   8.985   0.8160  0.00  0.00     0.000 O
ATOM     26   O  A00 X   2      14.663  11.058   4.0400  0.00  0.00     0.000 O
ATOM     28  HD  A00 X   2      14.964  11.463   3.3360  0.00  0.00     0.000 HD
BRANCH 21 30
ATOM     28   N  A00 X   2      15.806  10.113   3.1300  0.00  0.00     0.000 N
ATOM     30  HD  A00 X   2      16.275   9.682   2.5440  0.00  0.00     0.000 HD
ATOM     30   O  A00 X   2      17.917  10.089   2.1310  0.00  0.00     0.000 OA
ATOM     31   S  A00 X   2      17.262   9.509   3.2490  0.00  0.00     0.000 S
ATOM     32   O  A00 X   2      17.718   9.972   4.5230  0.00  0.00     0.000 OA
ATOM     33   O  A00 X   2      17.129   8.083   3.2560  0.00  0.00     0.000 OA
ENDBRANCH 21 30
BRANCH 24 34
ATOM     34   C  A00 X   2      10.559   9.591   1.2710  0.00  0.00     0.000 C
ATOM     35   O  A00 X   2       8.138   6.886   0.9880  0.00  0.00     0.000 OA
ATOM     36   O  A00 X   2       9.965   8.317   0.9500  0.00  0.00     0.000 O
ATOM     37   O  A00 X   2       9.214   7.491   3.0050  0.00  0.00     0.000 OA
ATOM     38   S  A00 X   2       8.670   7.956   1.7660  0.00  0.00     0.000 S
ATOM     39   O  A00 X   2       7.867   9.141   1.7970  0.00  0.00     0.000 OA
ENDBRANCH 24 34
BRANCH 20 40
ATOM     40  O4  A00 X   3      13.742   7.389   2.3550  0.00  0.00     0.000 O
BRANCH 40 44
ATOM     41  C1  A00 X   3      12.403   4.650   4.3110  0.00  0.00     0.000 C
ATOM     42  C2  A00 X   3      13.885   5.082   4.3010  0.00  0.00     0.000 C
ATOM     43  C3  A00 X   3      14.420   5.195   2.8500  0.00  0.00     0.000 C
ATOM     44  C4  A00 X   3      13.550   6.026   1.9170  0.00  0.00     0.000 C
ATOM     45  C5  A00 X   3      12.078   5.530   1.9790  0.00  0.00     0.000 C
ATOM     46  O5  A00 X   3      11.618   5.428   3.3650  0.00  0.00     0.000 O
ATOM     47   O  A00 X   3      15.807   5.504   2.7200  0.00  0.00     0.000 O
ATOM     49  HD  A00 X   3      15.521   5.990   2.0630  0.00  0.00     0.000 HD
BRANCH 42 49
ATOM     49   O  A00 X   3      13.962   6.347   4.9920  0.00  0.00     0.000 O
ATOM     50   O  A00 X   3      15.658   7.607   6.1180  0.00  0.00     0.000 OA
ATOM     51   O  A00 X   3      15.563   5.268   6.4510  0.00  0.00     0.000 OA
ATOM     52   O  A00 X   3      13.817   6.603   7.3220  0.00  0.00     0.000 OA
ATOM     53   S  A00 X   3      14.797   6.480   6.2990  0.00  0.00     0.000 S
ENDBRANCH 42 49
BRANCH 45 54
ATOM     54   C  A00 X   3      11.882   4.234   1.1820  0.00  0.00     0.000 C
ATOM     55   O  A00 X   3      10.768   3.848   0.8920  0.00  0.00     0.000 OA
ATOM     56   O  A00 X   3      12.842   3.568   0.8260  0.00  0.00     0.000 OA
ENDBRANCH 45 54
BRANCH 41 57
ATOM     57  O4  A00 X   4      12.262   3.220   4.1540  0.00  0.00     0.000 O
BRANCH 57 61
ATOM     58  C1  A00 X   4       9.307   0.408   5.5690  0.00  0.00     0.000 C
ATOM     59  C2  A00 X   4       8.833   1.626   4.7370  0.00  0.00     0.000 C
ATOM     60  C3  A00 X   4       9.977   2.346   3.9940  0.00  0.00     0.000 C
ATOM     61  C4  A00 X   4      11.182   2.617   4.9210  0.00  0.00     0.000 C
ATOM     62  C5  A00 X   4      11.622   1.240   5.4770  0.00  0.00     0.000 C
ATOM     63  O5  A00 X   4      10.544   0.677   6.2680  0.00  0.00     0.000 O
BRANCH 59 66
ATOM     64   N  A00 X   4       8.000   2.828   4.9190  0.00  0.00     0.000 N
ATOM     66  HD  A00 X   4       8.185   3.346   5.5880  0.00  0.00     0.000 HD
ATOM     66   O  A00 X   4       6.200   1.362   5.5570  0.00  0.00     0.000 OA
ATOM     67   S  A00 X   4       6.411   2.648   4.9710  0.00  0.00     0.000 S
ATOM     68   O  A00 X   4       6.051   3.767   5.7910  0.00  0.00     0.000 OA
ATOM     69   O  A00 X   4       6.093   2.811   3.5810  0.00  0.00     0.000 OA
ENDBRANCH 59 66
BRANCH 62 70
ATOM     70   C  A00 X   4      12.898   1.290   6.3500  0.00  0.00     0.000 C
ATOM     71   O  A00 X   4      16.342   1.675   5.3030  0.00  0.00     0.000 OA
ATOM     72   O  A00 X   4      15.349   0.121   6.7670  0.00  0.00     0.000 OA
ATOM     73   O  A00 X   4      14.012   1.701   5.5410  0.00  0.00     0.000 O
ATOM     74   O  A00 X   4      15.047  -0.127   4.3620  0.00  0.00     0.000 OA
ATOM     75   S  A00 X   4      15.257   0.750   5.4680  0.00  0.00     0.000 S
ENDBRANCH 62 70
ENDBRANCH 57 61
ENDBRANCH 41 57
ENDBRANCH 40 44
ENDBRANCH 20 40
ENDBRANCH 19 23
ENDBRANCH 1 19
TORSDOF 14
ENDMDL
MODEL 3
REMARK VINA RESULT:      -2.9      2.115      3.852
ROOT
ATOM      1  C1  A00 X   1      13.770  12.184   6.6340  0.00  0.00     0.000 C
ATOM      2  C2  A00 X   1      12.406  12.922   6.6910  0.00  0.00     0.000 C
ATOM      3  C3  A00 X   1      12.226  13.944   7.8610  0.00  0.00     0.000 C
ATOM      4  C4  A00 X   1      13.258  13.831   9.0120  0.00  0.00     0.000 C
ATOM      5  C5  A00 X   1      13.904  12.447   9.0750  0.00  0.00     0.000 C
ATOM      6  O5  A00 X   1      14.599  12.309   7.8160  0.00  0.00     0.000 O
ATOM      7   O  A00 X   1      10.942  13.746   8.4490  0.00  0.00     0.000 O
ATOM      9  HD  A00 X   1      11.501  13.878   9.0960  0.00  0.00     0.000 HD
ATOM      9   O  A00 X   1      14.271  14.831   8.9050  0.00  0.00     0.000 O
ATOM     11  HD  A00 X   1      14.831  14.963   9.5520  0.00  0.00     0.000 HD
ENDROOT
BRANCH 2 11
ATOM     11   O  A00 X   1      12.225  13.607   5.4370  0.00  0.00     0.000 O
ATOM     12   O  A00 X   1      10.489  15.236   5.1190  0.00  0.00     0.000 OA
ATOM     13   O  A00 X   1       9.883  12.923   5.5660  0.00  0.00     0.000 OA
ATOM     14   O  A00 X   1      10.913  13.522   3.5070  0.00  0.00     0.000 OA
ATOM     15   S  A00 X   1      10.770  13.839   4.9030  0.00  0.00     0.000 S
ENDBRANCH 2 11
BRANCH 5 16
ATOM     16   C  A00 X   1      12.938  11.295   9.3720  0.00  0.00     0.000 C
ATOM     17   O  A00 X   1      11.846  11.556   9.8340  0.00  0.00     0.000 OA
ATOM     18   O  A00 X   1      13.223  10.134   9.1570  0.00  0.00     0.000 OA
ENDBRANCH 5 16
BRANCH 1 19
ATOM     19  O4  A00 X   2      13.644  10.801   6.2210  0.00  0.00     0.000 O
BRANCH 19 23
ATOM     20  C1  A00 X   2      14.990   8.781   2.6890  0.00  0.00     0.000 C
ATOM     21  C2  A00 X   2      16.042   9.569   3.5070  0.00  0.00     0.000 C
ATOM     22  C3  A00 X   2      15.525   9.862   4.9310  0.00  0.00     0.000 C
ATOM     23  C4  A00 X   2      14.153  10.571   4.8760  0.00  0.00     0.000 C
ATOM     24  C5  A00 X   2      13.200   9.696   4.0180  0.00  0.00     0.000 C
ATOM     25  O5  A00 X   2      13.763   9.558   2.6870  0.00  0.00     0.000 O
ATOM     26   O  A00 X   2      16.561  10.532   5.6690  0.00  0.00     0.000 O
ATOM     28  HD  A00 X   2      16.694  11.119   5.0470  0.00  0.00     0.000 HD
BRANCH 21 30
ATOM     28   N  A00 X   2      17.306   9.729   4.2330  0.00  0.00     0.000 N
ATOM     30  HD  A00 X   2      17.510   9.576   3.4060  0.00  0.00     0.000 HD
ATOM     30   O  A00 X   2      19.004  10.086   2.6690  0.00  0.00     0.000 OA
ATOM     31   S  A00 X   2      18.620   9.102   3.6170  0.00  0.00     0.000 S
ATOM     32   O  A00 X   2      19.493   8.974   4.7430  0.00  0.00     0.000 OA
ATOM     33   O  A00 X   2      18.272   7.809   3.1080  0.00  0.00     0.000 OA
ENDBRANCH 21 30
BRANCH 24 34
ATOM     34   C  A00 X   2      11.698  10.066   3.9950  0.00  0.00     0.000 C
ATOM     35   O  A00 X   2       9.758  10.539   0.9500  0.00  0.00     0.000 OA
ATOM     36   O  A00 X   2      11.294  10.529   2.6910  0.00  0.00     0.000 O
ATOM     37   O  A00 X   2      10.971   8.571   1.4530  0.00  0.00     0.000 OA
ATOM     38   S  A00 X   2      10.198   9.654   1.9790  0.00  0.00     0.000 S
ATOM     39   O  A00 X   2       9.216   9.346   2.9750  0.00  0.00     0.000 OA
ENDBRANCH 24 34
BRANCH 20 40
ATOM     40  O4  A00 X   3      14.782   7.555   3.4050  0.00  0.00     0.000 O
BRANCH 40 44
ATOM     41  C1  A00 X   3      13.286   4.585   4.8410  0.00  0.00     0.000 C
ATOM     42  C2  A00 X   3      14.804   4.817   4.6820  0.00  0.00     0.000 C
ATOM     43  C3  A00 X   3      15.152   5.242   3.2330  0.00  0.00     0.000 C
ATOM     44  C4  A00 X   3      14.312   6.392   2.6910  0.00  0.00     0.000 C
ATOM     45  C5  A00 X   3      12.801   6.082   2.8820  0.00  0.00     0.000 C
ATOM     46  O5  A00 X   3      12.520   5.676   4.2600  0.00  0.00     0.000 O
ATOM     47   O  A00 X   3      16.540   5.400   2.9460  0.00  0.00     0.000 O
ATOM     49  HD  A00 X   3      16.253   6.074   2.4850  0.00  0.00     0.000 HD
BRANCH 42 49
ATOM     49   O  A00 X   3      15.179   5.836   5.6350  0.00  0.00     0.000 O
ATOM     50   O  A00 X   3      17.178   7.020   6.2100  0.00  0.00     0.000 OA
ATOM     51   O  A00 X   3      17.313   4.702   5.7630  0.00  0.00     0.000 OA
ATOM     52   O  A00 X   3      16.183   5.409   7.7150  0.00  0.00     0.000 OA
ATOM     53   S  A00 X   3      16.542   5.751   6.3820  0.00  0.00     0.000 S
ENDBRANCH 42 49
BRANCH 45 54
ATOM     54   C  A00 X   3      12.291   5.078   1.8410  0.00  0.00     0.000 C
ATOM     55   O  A00 X   3      11.112   5.029   1.5540  0.00  0.00     0.000 OA
ATOM     56   O  A00 X   3      13.060   4.310   1.2840  0.00  0.00     0.000 OA
ENDBRANCH 45 54
BRANCH 41 57
ATOM     57  O4  A00 X   4      12.894   3.276   4.3700  0.00  0.00     0.000 O
BRANCH 57 61
ATOM     58  C1  A00 X   4       9.552   0.731   5.3660  0.00  0.00     0.000 C
ATOM     59  C2  A00 X   4       9.274   2.211   5.0010  0.00  0.00     0.000 C
ATOM     60  C3  A00 X   4      10.470   2.912   4.3250  0.00  0.00     0.000 C
ATOM     61  C4  A00 X   4      11.787   2.665   5.0920  0.00  0.00     0.000 C
ATOM     62  C5  A00 X   4      11.972   1.129   5.1570  0.00  0.00     0.000 C
ATOM     63  O5  A00 X   4      10.878   0.548   5.9120  0.00  0.00     0.000 O
BRANCH 59 66
ATOM     64   N  A00 X   4       8.144   2.801   4.2610  0.00  0.00     0.000 N
ATOM     66  HD  A00 X   4       8.125   3.663   4.1790  0.00  0.00     0.000 HD
ATOM     66   O  A00 X   4       6.735   2.173   6.1100  0.00  0.00     0.000 OA
ATOM     67   S  A00 X   4       6.659   2.401   4.7010  0.00  0.00     0.000 S
ATOM     68   O  A00 X   4       5.945   3.580   4.3040  0.00  0.00     0.000 OA
ATOM     69   O  A00 X   4       6.439   1.266   3.8500  0.00  0.00     0.000 OA
ENDBRANCH 59 66
BRANCH 62 70
ATOM     70   C  A00 X   4      13.306   0.679   5.7990  0.00  0.00     0.000 C
ATOM     71   O  A00 X   4      14.455   1.162   9.1980  0.00  0.00     0.000 OA
ATOM     72   O  A00 X   4      15.531   1.567   7.1430  0.00  0.00     0.000 OA
ATOM     73   O  A00 X   4      13.233   0.861   7.2230  0.00  0.00     0.000 O
ATOM     74   O  A00 X   4      13.800   3.097   7.9180  0.00  0.00     0.000 OA
ATOM     75   S  A00 X   4      14.317   1.767   7.9030  0.00  0.00     0.000 S
ENDBRANCH 62 70
ENDBRANCH 57 61
ENDBRANCH 41 57
ENDBRANCH 40 44
ENDBRANCH 20 40
ENDBRANCH 19 23
ENDBRANCH 1 19
TORSDOF 14
ENDMDL
MODEL 4
REMARK VINA RESULT:      -2.6      2.714      4.058
ROOT
ATOM      1  C1  A00 X   1      18.026  10.338   7.6440  0.00  0.00     0.000 C
ATOM      2  C2  A00 X   1      18.362  10.990   9.0120  0.00  0.00     0.000 C
ATOM      3  C3  A00 X   1      17.461  10.564  10.2170  0.00  0.00     0.000 C
ATOM      4  C4  A00 X   1      16.139   9.846   9.8410  0.00  0.00     0.000 C
ATOM      5  C5  A00 X   1      15.697  10.161   8.4120  0.00  0.00     0.000 C
ATOM      6  O5  A00 X   1      16.757   9.642   7.5780  0.00  0.00     0.000 O
ATOM      7   O  A00 X   1      17.094  11.731  10.9490  0.00  0.00     0.000 O
ATOM      9  HD  A00 X   1      16.391  11.227  10.9020  0.00  0.00     0.000 HD
ATOM      9   O  A00 X   1      16.245   8.433  10.0130  0.00  0.00     0.000 O
ATOM     11  HD  A00 X   1      15.542   7.930   9.9660  0.00  0.00     0.000 HD
ENDROOT
BRANCH 2 11
ATOM     11   O  A00 X   1      19.735  10.680   9.3200  0.00  0.00     0.000 O
ATOM     12   O  A00 X   1      20.709  11.207  11.4510  0.00  0.00     0.000 OA
ATOM     13   O  A00 X   1      19.958  13.014  10.0060  0.00  0.00     0.000 OA
ATOM     14   O  A00 X   1      21.839  11.689   9.4010  0.00  0.00     0.000 OA
ATOM     15   S  A00 X   1      20.590  11.728  10.1130  0.00  0.00     0.000 S
ENDBRANCH 2 11
BRANCH 5 16
ATOM     16   C  A00 X   1      15.371  11.634   8.1440  0.00  0.00     0.000 C
ATOM     17   O  A00 X   1      15.227  11.998   6.9950  0.00  0.00     0.000 OA
ATOM     18   O  A00 X   1      15.245  12.446   9.0390  0.00  0.00     0.000 OA
ENDBRANCH 5 16
BRANCH 1 19
ATOM     19  O4  A00 X   2      18.187  11.252   6.5320  0.00  0.00     0.000 O
BRANCH 19 23
ATOM     20  C1  A00 X   2      19.905   8.298   3.9470  0.00  0.00     0.000 C
ATOM     21  C2  A00 X   2      20.875   9.237   4.7030  0.00  0.00     0.000 C
ATOM     22  C3  A00 X   2      20.164   9.926   5.8860  0.00  0.00     0.000 C
ATOM     23  C4  A00 X   2      18.884  10.646   5.4060  0.00  0.00     0.000 C
ATOM     24  C5  A00 X   2      18.009   9.607   4.6520  0.00  0.00     0.000 C
ATOM     25  O5  A00 X   2      18.764   9.091   3.5250  0.00  0.00     0.000 O
ATOM     26   O  A00 X   2      21.121  10.731   6.5950  0.00  0.00     0.000 O
ATOM     28  HD  A00 X   2      21.401  11.121   5.8750  0.00  0.00     0.000 HD
BRANCH 21 30
ATOM     28   N  A00 X   2      21.766   9.169   3.5410  0.00  0.00     0.000 N
ATOM     30  HD  A00 X   2      22.230   9.499   4.1930  0.00  0.00     0.000 HD
ATOM     30   O  A00 X   2      23.966   9.391   4.2960  0.00  0.00     0.000 OA
ATOM     31   S  A00 X   2      23.035  10.111   3.5010  0.00  0.00     0.000 S
ATOM     32   O  A00 X   2      23.359  10.184   2.1090  0.00  0.00     0.000 OA
ATOM     33   O  A00 X   2      22.624  11.395   3.9840  0.00  0.00     0.000 OA
ENDBRANCH 21 30
BRANCH 24 34
ATOM     34   C  A00 X   2      16.567  10.015   4.2690  0.00  0.00     0.000 C
ATOM     35   O  A00 X   2      15.747  12.328   1.5800  0.00  0.00     0.000 OA
ATOM     36   O  A00 X   2      16.561  11.187   3.4300  0.00  0.00     0.000 O
ATOM     37   O  A00 X   2      17.047  10.374   1.2910  0.00  0.00     0.000 OA
ATOM     38   S  A00 X   2      15.957  10.979   1.9930  0.00  0.00     0.000 S
ATOM     39   O  A00 X   2      14.764  10.204   2.1630  0.00  0.00     0.000 OA
ENDBRANCH 24 34
BRANCH 20 40
ATOM     40  O4  A00 X   3      19.481   7.322   4.9100  0.00  0.00     0.000 O
BRANCH 40 44
ATOM     41  C1  A00 X   3      16.788   5.385   6.3660  0.00  0.00     0.000 C
ATOM     42  C2  A00 X   3      18.261   5.331   6.8280  0.00  0.00     0.000 C
ATOM     43  C3  A00 X   3      19.211   5.100   5.6250  0.00  0.00     0.000 C
ATOM     44  C4  A00 X   3      18.988   6.045   4.4510  0.00  0.00     0.000 C
ATOM     45  C5  A00 X   3      17.488   6.040   4.0420  0.00  0.00     0.000 C
ATOM     46  O5  A00 X   3      16.628   6.251   5.2090  0.00  0.00     0.000 O
ATOM     47   O  A00 X   3      20.593   4.946   5.9440  0.00  0.00     0.000 O
ATOM     49  HD  A00 X   3      20.696   5.416   5.2240  0.00  0.00     0.000 HD
BRANCH 42 49
ATOM     49   O  A00 X   3      18.542   6.583   7.4910  0.00  0.00     0.000 O
ATOM     50   O  A00 X   3      20.435   7.593   8.5540  0.00  0.00     0.000 OA
ATOM     51   O  A00 X   3      19.999   5.301   8.9380  0.00  0.00     0.000 OA
ATOM     52   O  A00 X   3      18.494   6.897   9.8180  0.00  0.00     0.000 OA
ATOM     53   S  A00 X   3      19.420   6.612   8.7760  0.00  0.00     0.000 S
ENDBRANCH 42 49
BRANCH 45 54
ATOM     54   C  A00 X   3      17.121   4.785   3.2420  0.00  0.00     0.000 C
ATOM     55   O  A00 X   3      16.100   4.745   2.5870  0.00  0.00     0.000 OA
ATOM     56   O  A00 X   3      17.849   3.804   3.2490  0.00  0.00     0.000 OA
ENDBRANCH 45 54
BRANCH 41 57
ATOM     57  O4  A00 X   4      16.235   4.061   6.1910  0.00  0.00     0.000 O
BRANCH 57 61
ATOM     58  C1  A00 X   4      12.224   2.485   6.4500  0.00  0.00     0.000 C
ATOM     59  C2  A00 X   4      12.549   3.504   5.3300  0.00  0.00     0.000 C
ATOM     60  C3  A00 X   4      14.061   3.717   5.1110  0.00  0.00     0.000 C
ATOM     61  C4  A00 X   4      14.805   3.951   6.4430  0.00  0.00     0.000 C
ATOM     62  C5  A00 X   4      14.512   2.715   7.3290  0.00  0.00     0.000 C
ATOM     63  O5  A00 X   4      13.088   2.647   7.5980  0.00  0.00     0.000 O
BRANCH 59 66
ATOM     64   N  A00 X   4      12.067   3.651   3.9450  0.00  0.00     0.000 N
ATOM     66  HD  A00 X   4      12.323   4.351   3.5040  0.00  0.00     0.000 HD
ATOM     66   O  A00 X   4       9.879   4.075   4.8570  0.00  0.00     0.000 OA
ATOM     67   S  A00 X   4      10.493   3.554   3.6760  0.00  0.00     0.000 S
ATOM     68   O  A00 X   4      10.378   4.376   2.5070  0.00  0.00     0.000 OA
ATOM     69   O  A00 X   4      10.366   2.147   3.4210  0.00  0.00     0.000 OA
ENDBRANCH 59 66
BRANCH 62 70
ATOM     70   C  A00 X   4      15.267   2.711   8.6800  0.00  0.00     0.000 C
ATOM     71   O  A00 X   4      14.818   4.900  11.5280  0.00  0.00     0.000 OA
ATOM     72   O  A00 X   4      16.771   4.253  10.3840  0.00  0.00     0.000 OA
ATOM     73   O  A00 X   4      14.597   3.586   9.6010  0.00  0.00     0.000 O
ATOM     74   O  A00 X   4      15.272   5.888   9.3760  0.00  0.00     0.000 OA
ATOM     75   S  A00 X   4      15.424   4.758  10.2350  0.00  0.00     0.000 S
ENDBRANCH 62 70
ENDBRANCH 57 61
ENDBRANCH 41 57
ENDBRANCH 40 44
ENDBRANCH 20 40
ENDBRANCH 19 23
ENDBRANCH 1 19
TORSDOF 14
ENDMDL
MODEL 5
REMARK VINA RESULT:      -2.6      4.377      8.053
ROOT
ATOM      1  C1  A00 X   1      15.740   7.176   3.2180  0.00  0.00     0.000 C
ATOM      2  C2  A00 X   1      16.410   8.510   3.6400  0.00  0.00     0.000 C
ATOM      3  C3  A00 X   1      17.872   8.403   4.1850  0.00  0.00     0.000 C
ATOM      4  C4  A00 X   1      18.336   6.978   4.5810  0.00  0.00     0.000 C
ATOM      5  C5  A00 X   1      17.158   6.051   4.8830  0.00  0.00     0.000 C
ATOM      6  O5  A00 X   1      16.426   5.970   3.6400  0.00  0.00     0.000 O
ATOM      7   O  A00 X   1      17.982   9.205   5.3590  0.00  0.00     0.000 O
ATOM      9  HD  A00 X   1      18.414   8.469   5.5110  0.00  0.00     0.000 HD
ATOM      9   O  A00 X   1      19.159   6.397   3.5690  0.00  0.00     0.000 O
ATOM     11  HD  A00 X   1      19.590   5.662   3.7200  0.00  0.00     0.000 HD
ENDROOT
BRANCH 2 11
ATOM     11   O  A00 X   1      16.398   9.388   2.4970  0.00  0.00     0.000 O
ATOM     12   O  A00 X   1      17.828  11.312   2.3590  0.00  0.00     0.000 OA
ATOM     13   O  A00 X   1      16.120  11.220   4.0880  0.00  0.00     0.000 OA
ATOM     14   O  A00 X   1      15.507  11.430   1.8000  0.00  0.00     0.000 OA
ATOM     15   S  A00 X   1      16.487  10.935   2.7280  0.00  0.00     0.000 S
ENDBRANCH 2 11
BRANCH 5 16
ATOM     16   C  A00 X   1      16.294   6.470   6.0770  0.00  0.00     0.000 C
ATOM     17   O  A00 X   1      15.248   5.886   6.2700  0.00  0.00     0.000 OA
ATOM     18   O  A00 X   1      16.622   7.357   6.8390  0.00  0.00     0.000 OA
ENDBRANCH 5 16
BRANCH 1 19
ATOM     19  O4  A00 X   2      14.331   7.125   3.5490  0.00  0.00     0.000 O
BRANCH 19 23
ATOM     20  C1  A00 X   2      11.113   4.801   1.9340  0.00  0.00     0.000 C
ATOM     21  C2  A00 X   2      12.138   4.072   2.8370  0.00  0.00     0.000 C
ATOM     22  C3  A00 X   2      12.952   5.083   3.6710  0.00  0.00     0.000 C
ATOM     23  C4  A00 X   2      13.605   6.143   2.7560  0.00  0.00     0.000 C
ATOM     24  C5  A00 X   2      12.482   6.783   1.8950  0.00  0.00     0.000 C
ATOM     25  O5  A00 X   2      11.846   5.743   1.1070  0.00  0.00     0.000 O
ATOM     26   O  A00 X   2      13.838   4.357   4.5400  0.00  0.00     0.000 O
ATOM     28  HD  A00 X   2      14.146   3.865   3.8970  0.00  0.00     0.000 HD
BRANCH 21 30
ATOM     28   N  A00 X   2      11.232   3.090   3.4400  0.00  0.00     0.000 N
ATOM     30  HD  A00 X   2      11.824   2.643   2.9940  0.00  0.00     0.000 HD
ATOM     30   O  A00 X   2      12.265   0.997   3.3540  0.00  0.00     0.000 OA
ATOM     31   S  A00 X   2      11.135   1.650   2.7950  0.00  0.00     0.000 S
ATOM     32   O  A00 X   2       9.869   1.161   3.2460  0.00  0.00     0.000 OA
ATOM     33   O  A00 X   2      11.123   1.824   1.3730  0.00  0.00     0.000 OA
ENDBRANCH 21 30
BRANCH 24 34
ATOM     34   C  A00 X   2      12.835   8.035   1.0570  0.00  0.00     0.000 C
ATOM     35   O  A00 X   2      10.399  10.509  -0.0400  0.00  0.00     0.000 OA
ATOM     36   O  A00 X   2      11.654   8.626   0.4790  0.00  0.00     0.000 O
ATOM     37   O  A00 X   2      10.722   9.883   2.2170  0.00  0.00     0.000 OA
ATOM     38   S  A00 X   2      11.342  10.095   0.9460  0.00  0.00     0.000 S
ATOM     39   O  A00 X   2      12.589  10.800   0.9250  0.00  0.00     0.000 OA
ENDBRANCH 24 34
BRANCH 20 40
ATOM     40  O4  A00 X   3      10.250   5.518   2.8290  0.00  0.00     0.000 O
BRANCH 40 44
ATOM     41  C1  A00 X   3       7.778   7.404   4.6870  0.00  0.00     0.000 C
ATOM     42  C2  A00 X   3       8.077   5.903   4.8930  0.00  0.00     0.000 C
ATOM     43  C3  A00 X   3       8.044   5.140   3.5440  0.00  0.00     0.000 C
ATOM     44  C4  A00 X   3       8.883   5.771   2.4390  0.00  0.00     0.000 C
ATOM     45  C5  A00 X   3       8.521   7.275   2.2890  0.00  0.00     0.000 C
ATOM     46  O5  A00 X   3       8.555   7.953   3.5870  0.00  0.00     0.000 O
ATOM     47   O  A00 X   3       8.222   3.727   3.6230  0.00  0.00     0.000 O
ATOM     49  HD  A00 X   3       8.685   3.859   2.9030  0.00  0.00     0.000 HD
BRANCH 42 49
ATOM     49   O  A00 X   3       9.376   5.813   5.5190  0.00  0.00     0.000 O
ATOM     50   O  A00 X   3      10.816   4.057   6.2750  0.00  0.00     0.000 OA
ATOM     51   O  A00 X   3       8.495   3.889   6.6930  0.00  0.00     0.000 OA
ATOM     52   O  A00 X   3       9.727   5.558   7.8270  0.00  0.00     0.000 OA
ATOM     53   S  A00 X   3       9.635   4.771   6.6460  0.00  0.00     0.000 S
ENDBRANCH 42 49
BRANCH 45 54
ATOM     54   C  A00 X   3       7.197   7.469   1.5420  0.00  0.00     0.000 C
ATOM     55   O  A00 X   3       6.423   6.544   1.4040  0.00  0.00     0.000 OA
ATOM     56   O  A00 X   3       6.897   8.556   1.0720  0.00  0.00     0.000 OA
ENDBRANCH 45 54
BRANCH 41 57
ATOM     57  O4  A00 X   4       6.358   7.656   4.5860  0.00  0.00     0.000 O
BRANCH 57 61
ATOM     58  C1  A00 X   4       4.085  11.318   4.8410  0.00  0.00     0.000 C
ATOM     59  C2  A00 X   4       4.327  10.691   3.4450  0.00  0.00     0.000 C
ATOM     60  C3  A00 X   4       4.823   9.232   3.5040  0.00  0.00     0.000 C
ATOM     61  C4  A00 X   4       5.984   9.061   4.5070  0.00  0.00     0.000 C
ATOM     62  C5  A00 X   4       5.453   9.552   5.8770  0.00  0.00     0.000 C
ATOM     63  O5  A00 X   4       5.123  10.962   5.7820  0.00  0.00     0.000 O
BRANCH 59 66
ATOM     64   N  A00 X   4       5.015  11.025   2.1850  0.00  0.00     0.000 N
ATOM     66  HD  A00 X   4       5.850  11.247   2.2320  0.00  0.00     0.000 HD
ATOM     66   O  A00 X   4       3.687  13.032   2.1090  0.00  0.00     0.000 OA
ATOM     67   S  A00 X   4       4.353  12.123   1.2290  0.00  0.00     0.000 S
ATOM     68   O  A00 X   4       5.523  12.639   0.5790  0.00  0.00     0.000 OA
ATOM     69   O  A00 X   4       3.542  11.280   0.3980  0.00  0.00     0.000 OA
ENDBRANCH 59 66
BRANCH 62 70
ATOM     70   C  A00 X   4       6.447   9.357   7.0470  0.00  0.00     0.000 C
ATOM     71   O  A00 X   4       5.737   8.983  10.5770  0.00  0.00     0.000 OA
ATOM     72   O  A00 X   4       7.263  10.386   9.4590  0.00  0.00     0.000 OA
ATOM     73   O  A00 X   4       5.718   9.007   8.2340  0.00  0.00     0.000 O
ATOM     74   O  A00 X   4       4.887  10.926   9.4300  0.00  0.00     0.000 OA
ATOM     75   S  A00 X   4       5.895   9.918   9.4990  0.00  0.00     0.000 S
ENDBRANCH 62 70
ENDBRANCH 57 61
ENDBRANCH 41 57
ENDBRANCH 40 44
ENDBRANCH 20 40
ENDBRANCH 19 23
ENDBRANCH 1 19
TORSDOF 14
ENDMDL
MODEL 6
REMARK VINA RESULT:      -2.3      4.065      8.285
ROOT
ATOM      1  C1  A00 X   1      15.454   6.024   5.8740  0.00  0.00     0.000 C
ATOM      2  C2  A00 X   1      16.016   7.074   6.8690  0.00  0.00     0.000 C
ATOM      3  C3  A00 X   1      16.816   6.507   8.0880  0.00  0.00     0.000 C
ATOM      4  C4  A00 X   1      16.640   4.989   8.3550  0.00  0.00     0.000 C
ATOM      5  C5  A00 X   1      15.344   4.444   7.7550  0.00  0.00     0.000 C
ATOM      6  O5  A00 X   1      15.484   4.649   6.3310  0.00  0.00     0.000 O
ATOM      7   O  A00 X   1      16.385   7.178   9.2700  0.00  0.00     0.000 O
ATOM      9  HD  A00 X   1      16.476   6.340   9.4710  0.00  0.00     0.000 HD
ATOM      9   O  A00 X   1      17.752   4.241   7.8630  0.00  0.00     0.000 O
ATOM     11  HD  A00 X   1      17.842   3.404   8.0640  0.00  0.00     0.000 HD
ENDROOT
BRANCH 2 11
ATOM     11   O  A00 X   1      16.865   7.971   6.1270  0.00  0.00     0.000 O
ATOM     12   O  A00 X   1      18.275   9.580   7.2190  0.00  0.00     0.000 OA
ATOM     13   O  A00 X   1      15.859   9.773   7.4350  0.00  0.00     0.000 OA
ATOM     14   O  A00 X   1      16.917  10.169   5.3420  0.00  0.00     0.000 OA
ATOM     15   S  A00 X   1      16.982   9.463   6.5930  0.00  0.00     0.000 S
ENDBRANCH 2 11
BRANCH 5 16
ATOM     16   C  A00 X   1      14.059   5.041   8.3380  0.00  0.00     0.000 C
ATOM     17   O  A00 X   1      13.009   4.828   7.7670  0.00  0.00     0.000 OA
ATOM     18   O  A00 X   1      14.053   5.712   9.3510  0.00  0.00     0.000 OA
ENDBRANCH 5 16
BRANCH 1 19
ATOM     19  O4  A00 X   2      14.148   6.381   5.3590  0.00  0.00     0.000 O
BRANCH 19 23
ATOM     20  C1  A00 X   2      12.519   6.253   1.3980  0.00  0.00     0.000 C
ATOM     21  C2  A00 X   2      12.820   4.902   2.0900  0.00  0.00     0.000 C
ATOM     22  C3  A00 X   2      12.978   5.088   3.6140  0.00  0.00     0.000 C
ATOM     23  C4  A00 X   2      14.037   6.171   3.9220  0.00  0.00     0.000 C
ATOM     24  C5  A00 X   2      13.632   7.462   3.1600  0.00  0.00     0.000 C
ATOM     25  O5  A00 X   2      13.591   7.171   1.7380  0.00  0.00     0.000 O
ATOM     26   O  A00 X   2      13.187   3.800   4.2170  0.00  0.00     0.000 O
ATOM     28  HD  A00 X   2      13.819   3.588   3.6640  0.00  0.00     0.000 HD
BRANCH 21 30
ATOM     28   N  A00 X   2      12.244   3.612   2.4850  0.00  0.00     0.000 N
ATOM     30  HD  A00 X   2      12.390   3.571   1.6320  0.00  0.00     0.000 HD
ATOM     30   O  A00 X   2      12.641   2.082   0.7640  0.00  0.00     0.000 OA
ATOM     31   S  A00 X   2      11.538   2.728   1.3810  0.00  0.00     0.000 S
ATOM     32   O  A00 X   2      10.679   1.868   2.1350  0.00  0.00     0.000 OA
ATOM     33   O  A00 X   2      10.762   3.612   0.5630  0.00  0.00     0.000 OA
ENDBRANCH 21 30
BRANCH 24 34
ATOM     34   C  A00 X   2      14.402   8.765   3.4800  0.00  0.00     0.000 C
ATOM     35   O  A00 X   2      16.714  10.388   1.1830  0.00  0.00     0.000 OA
ATOM     36   O  A00 X   2      15.486   8.973   2.5540  0.00  0.00     0.000 O
ATOM     37   O  A00 X   2      14.465   9.880   0.6550  0.00  0.00     0.000 OA
ATOM     38   S  A00 X   2      15.382  10.276   1.6800  0.00  0.00     0.000 S
ATOM     39   O  A00 X   2      14.974  11.326   2.5650  0.00  0.00     0.000 OA
ENDBRANCH 24 34
BRANCH 20 40
ATOM     40  O4  A00 X   3      11.289   6.717   1.9720  0.00  0.00     0.000 O
BRANCH 40 44
ATOM     41  C1  A00 X   3       8.475   8.620   3.2330  0.00  0.00     0.000 C
ATOM     42  C2  A00 X   3       8.391   7.172   2.7010  0.00  0.00     0.000 C
ATOM     43  C3  A00 X   3       9.061   7.054   1.3070  0.00  0.00     0.000 C
ATOM     44  C4  A00 X   3      10.465   7.639   1.2270  0.00  0.00     0.000 C
ATOM     45  C5  A00 X   3      10.466   9.095   1.7740  0.00  0.00     0.000 C
ATOM     46  O5  A00 X   3       9.817   9.161   3.0850  0.00  0.00     0.000 O
ATOM     47   O  A00 X   3       8.967   5.777   0.6780  0.00  0.00     0.000 O
ATOM     49  HD  A00 X   3       9.779   5.961   0.4380  0.00  0.00     0.000 HD
BRANCH 42 49
ATOM     49   O  A00 X   3       9.043   6.326   3.6730  0.00  0.00     0.000 O
ATOM     50   O  A00 X   3       9.416   3.978   3.9530  0.00  0.00     0.000 OA
ATOM     51   O  A00 X   3       7.301   4.715   3.1960  0.00  0.00     0.000 OA
ATOM     52   O  A00 X   3       7.938   5.208   5.4180  0.00  0.00     0.000 OA
ATOM     53   S  A00 X   3       8.400   4.972   4.0940  0.00  0.00     0.000 S
ENDBRANCH 42 49
BRANCH 45 54
ATOM     54   C  A00 X   3       9.880  10.083   0.7590  0.00  0.00     0.000 C
ATOM     55   O  A00 X   3       9.136   9.699  -0.1200  0.00  0.00     0.000 OA
ATOM     56   O  A00 X   3      10.151  11.273   0.8160  0.00  0.00     0.000 OA
ENDBRANCH 45 54
BRANCH 41 57
ATOM     57  O4  A00 X   4       7.439   9.456   2.6710  0.00  0.00     0.000 O
BRANCH 57 61
ATOM     58  C1  A00 X   4       5.266  12.849   4.2200  0.00  0.00     0.000 C
ATOM     59  C2  A00 X   4       6.813  12.915   4.1810  0.00  0.00     0.000 C
ATOM     60  C3  A00 X   4       7.452  11.827   3.2950  0.00  0.00     0.000 C
ATOM     61  C4  A00 X   4       6.865  10.429   3.5880  0.00  0.00     0.000 C
ATOM     62  C5  A00 X   4       5.337  10.543   3.3620  0.00  0.00     0.000 C
ATOM     63  O5  A00 X   4       4.783  11.489   4.3120  0.00  0.00     0.000 O
BRANCH 59 66
ATOM     64   N  A00 X   4       6.383  12.710   5.5770  0.00  0.00     0.000 N
ATOM     66  HD  A00 X   4       5.537  12.596   5.7220  0.00  0.00     0.000 HD
ATOM     66   O  A00 X   4       6.926  15.022   5.9770  0.00  0.00     0.000 OA
ATOM     67   S  A00 X   4       6.845  13.777   6.6750  0.00  0.00     0.000 S
ATOM     68   O  A00 X   4       5.766  13.665   7.6140  0.00  0.00     0.000 OA
ATOM     69   O  A00 X   4       8.071  13.174   7.1140  0.00  0.00     0.000 OA
ENDBRANCH 59 66
BRANCH 62 70
ATOM     70   C  A00 X   4       4.576   9.203   3.5030  0.00  0.00     0.000 C
ATOM     71   O  A00 X   4       4.140   6.581   1.0450  0.00  0.00     0.000 OA
ATOM     72   O  A00 X   4       2.571   7.667   2.4240  0.00  0.00     0.000 OA
ATOM     73   O  A00 X   4       4.871   8.368   2.3710  0.00  0.00     0.000 O
ATOM     74   O  A00 X   4       3.460   8.822   0.4720  0.00  0.00     0.000 OA
ATOM     75   S  A00 X   4       3.669   7.858   1.5030  0.00  0.00     0.000 S
ENDBRANCH 62 70
ENDBRANCH 57 61
ENDBRANCH 41 57
ENDBRANCH 40 44
ENDBRANCH 20 40
ENDBRANCH 19 23
ENDBRANCH 1 19
TORSDOF 14
ENDMDL
MODEL 7
REMARK VINA RESULT:      -1.9      3.935      8.100
ROOT
ATOM      1  C1  A00 X   1      16.418   6.539   4.8590  0.00  0.00     0.000 C
ATOM      2  C2  A00 X   1      17.107   7.340   5.9960  0.00  0.00     0.000 C
ATOM      3  C3  A00 X   1      18.102   6.536   6.8970  0.00  0.00     0.000 C
ATOM      4  C4  A00 X   1      18.004   4.993   6.7880  0.00  0.00     0.000 C
ATOM      5  C5  A00 X   1      16.642   4.535   6.2670  0.00  0.00     0.000 C
ATOM      6  O5  A00 X   1      16.550   5.098   4.9390  0.00  0.00     0.000 O
ATOM      7   O  A00 X   1      17.849   6.863   8.2610  0.00  0.00     0.000 O
ATOM      9  HD  A00 X   1      17.989   6.009   8.2250  0.00  0.00     0.000 HD
ATOM      9   O  A00 X   1      19.040   4.461   5.9630  0.00  0.00     0.000 O
ATOM     11  HD  A00 X   1      19.179   3.607   5.9260  0.00  0.00     0.000 HD
ENDROOT
BRANCH 2 11
ATOM     11   O  A00 X   1      17.808   8.444   5.3920  0.00  0.00     0.000 O
ATOM     12   O  A00 X   1      18.232   8.541   3.0310  0.00  0.00     0.000 OA
ATOM     13   O  A00 X   1      19.251   6.771   4.3520  0.00  0.00     0.000 OA
ATOM     14   O  A00 X   1      19.936   9.032   4.6330  0.00  0.00     0.000 OA
ATOM     15   S  A00 X   1      18.860   8.151   4.2680  0.00  0.00     0.000 S
ENDBRANCH 2 11
BRANCH 5 16
ATOM     16   C  A00 X   1      15.452   4.888   7.1660  0.00  0.00     0.000 C
ATOM     17   O  A00 X   1      15.667   5.188   8.3220  0.00  0.00     0.000 OA
ATOM     18   O  A00 X   1      14.307   4.884   6.7620  0.00  0.00     0.000 OA
ENDBRANCH 5 16
BRANCH 1 19
ATOM     19  O4  A00 X   2      15.039   6.933   4.6510  0.00  0.00     0.000 O
BRANCH 19 23
ATOM     20  C1  A00 X   2      12.481   6.629   1.2260  0.00  0.00     0.000 C
ATOM     21  C2  A00 X   2      12.983   5.310   1.8620  0.00  0.00     0.000 C
ATOM     22  C3  A00 X   2      13.509   5.555   3.2920  0.00  0.00     0.000 C
ATOM     23  C4  A00 X   2      14.581   6.668   3.2940  0.00  0.00     0.000 C
ATOM     24  C5  A00 X   2      13.963   7.923   2.6180  0.00  0.00     0.000 C
ATOM     25  O5  A00 X   2      13.578   7.580   1.2610  0.00  0.00     0.000 O
ATOM     26   O  A00 X   2      13.898   4.294   3.8630  0.00  0.00     0.000 O
ATOM     28  HD  A00 X   2      14.378   4.074   3.1770  0.00  0.00     0.000 HD
BRANCH 21 30
ATOM     28   N  A00 X   2      12.414   4.063   2.3830  0.00  0.00     0.000 N
ATOM     30  HD  A00 X   2      12.460   3.977   1.5230  0.00  0.00     0.000 HD
ATOM     30   O  A00 X   2      12.561   2.441   0.7080  0.00  0.00     0.000 OA
ATOM     31   S  A00 X   2      11.557   3.157   1.4130  0.00  0.00     0.000 S
ATOM     32   O  A00 X   2      10.762   2.366   2.3010  0.00  0.00     0.000 OA
ATOM     33   O  A00 X   2      10.722   4.031   0.6440  0.00  0.00     0.000 OA
ENDBRANCH 21 30
BRANCH 24 34
ATOM     34   C  A00 X   2      14.751   9.252   2.6970  0.00  0.00     0.000 C
ATOM     35   O  A00 X   2      15.266  11.490  -0.1270  0.00  0.00     0.000 OA
ATOM     36   O  A00 X   2      15.091   9.737   1.3830  0.00  0.00     0.000 O
ATOM     37   O  A00 X   2      13.140  10.779   0.6240  0.00  0.00     0.000 OA
ATOM     38   S  A00 X   2      14.474  11.132   1.0030  0.00  0.00     0.000 S
ATOM     39   O  A00 X   2      14.637  11.974   2.1500  0.00  0.00     0.000 OA
ENDBRANCH 24 34
BRANCH 20 40
ATOM     40  O4  A00 X   3      11.420   7.089   2.0750  0.00  0.00     0.000 O
BRANCH 40 44
ATOM     41  C1  A00 X   3       8.915   8.985   3.8800  0.00  0.00     0.000 C
ATOM     42  C2  A00 X   3       8.812   7.480   3.5510  0.00  0.00     0.000 C
ATOM     43  C3  A00 X   3       9.075   7.221   2.0450  0.00  0.00     0.000 C
ATOM     44  C4  A00 X   3      10.345   7.865   1.5040  0.00  0.00     0.000 C
ATOM     45  C5  A00 X   3      10.373   9.376   1.8690  0.00  0.00     0.000 C
ATOM     46  O5  A00 X   3      10.111   9.574   3.2960  0.00  0.00     0.000 O
ATOM     47   O  A00 X   3       8.920   5.872   1.6090  0.00  0.00     0.000 O
ATOM     49  HD  A00 X   3       9.613   6.067   1.1280  0.00  0.00     0.000 HD
BRANCH 42 49
ATOM     49   O  A00 X   3       9.779   6.799   4.3800  0.00  0.00     0.000 O
ATOM     50   O  A00 X   3      10.480   4.535   4.7220  0.00  0.00     0.000 OA
ATOM     51   O  A00 X   3       8.172   4.993   4.4870  0.00  0.00     0.000 OA
ATOM     52   O  A00 X   3       9.282   5.761   6.4270  0.00  0.00     0.000 OA
ATOM     53   S  A00 X   3       9.422   5.439   5.0490  0.00  0.00     0.000 S
ENDBRANCH 42 49
BRANCH 45 54
ATOM     54   C  A00 X   3       9.444  10.196   0.9660  0.00  0.00     0.000 C
ATOM     55   O  A00 X   3       8.593   9.649   0.2950  0.00  0.00     0.000 OA
ATOM     56   O  A00 X   3       9.545  11.411   0.9040  0.00  0.00     0.000 OA
ENDBRANCH 45 54
BRANCH 41 57
ATOM     57  O4  A00 X   4       7.696   9.688   3.5530  0.00  0.00     0.000 O
BRANCH 57 61
ATOM     58  C1  A00 X   4       6.242  13.591   4.6900  0.00  0.00     0.000 C
ATOM     59  C2  A00 X   4       6.855  13.410   3.2790  0.00  0.00     0.000 C
ATOM     60  C3  A00 X   4       7.003  11.935   2.8570  0.00  0.00     0.000 C
ATOM     61  C4  A00 X   4       7.656  11.083   3.9670  0.00  0.00     0.000 C
ATOM     62  C5  A00 X   4       6.763  11.245   5.2220  0.00  0.00     0.000 C
ATOM     63  O5  A00 X   4       6.770  12.635   5.6370  0.00  0.00     0.000 O
BRANCH 59 66
ATOM     64   N  A00 X   4       7.942  13.894   2.4080  0.00  0.00     0.000 N
ATOM     66  HD  A00 X   4       8.754  13.795   2.6900  0.00  0.00     0.000 HD
ATOM     66   O  A00 X   4       7.218  16.133   2.9160  0.00  0.00     0.000 OA
ATOM     67   S  A00 X   4       7.874  15.401   1.8780  0.00  0.00     0.000 S
ATOM     68   O  A00 X   4       9.271  15.681   1.7140  0.00  0.00     0.000 OA
ATOM     69   O  A00 X   4       7.165  15.206   0.6460  0.00  0.00     0.000 OA
ENDBRANCH 59 66
BRANCH 62 70
ATOM     70   C  A00 X   4       7.198  10.371   6.4230  0.00  0.00     0.000 C
ATOM     71   O  A00 X   4       5.361   7.725   8.0760  0.00  0.00     0.000 OA
ATOM     72   O  A00 X   4       6.502   9.585   8.9610  0.00  0.00     0.000 OA
ATOM     73   O  A00 X   4       6.265   9.290   6.5860  0.00  0.00     0.000 O
ATOM     74   O  A00 X   4       4.334   9.899   7.8920  0.00  0.00     0.000 OA
ATOM     75   S  A00 X   4       5.544   9.145   7.9710  0.00  0.00     0.000 S
ENDBRANCH 62 70
ENDBRANCH 57 61
ENDBRANCH 41 57
ENDBRANCH 40 44
ENDBRANCH 20 40
ENDBRANCH 19 23
ENDBRANCH 1 19
TORSDOF 14
ENDMDL
MODEL 8
REMARK VINA RESULT:      -1.3      3.569      5.153
ROOT
ATOM      1  C1  A00 X   1      18.701  11.494   7.0290  0.00  0.00     0.000 C
ATOM      2  C2  A00 X   1      19.668  11.422   8.2410  0.00  0.00     0.000 C
ATOM      3  C3  A00 X   1      19.015  11.085   9.6220  0.00  0.00     0.000 C
ATOM      4  C4  A00 X   1      17.472  11.227   9.6850  0.00  0.00     0.000 C
ATOM      5  C5  A00 X   1      16.935  12.165   8.6040  0.00  0.00     0.000 C
ATOM      6  O5  A00 X   1      17.289  11.528   7.3560  0.00  0.00     0.000 O
ATOM      7   O  A00 X   1      19.543  11.970  10.6060  0.00  0.00     0.000 O
ATOM      9  HD  A00 X   1      18.694  11.895  10.7600  0.00  0.00     0.000 HD
ATOM      9   O  A00 X   1      16.827   9.958   9.5870  0.00  0.00     0.000 O
ATOM     11  HD  A00 X   1      15.978   9.882   9.7400  0.00  0.00     0.000 HD
ENDROOT
BRANCH 2 11
ATOM     11   O  A00 X   1      20.671  10.432   7.9420  0.00  0.00     0.000 O
ATOM     12   O  A00 X   1      22.213   9.644   9.6060  0.00  0.00     0.000 OA
ATOM     13   O  A00 X   1      22.284  11.979   8.9290  0.00  0.00     0.000 OA
ATOM     14   O  A00 X   1      22.940  10.266   7.4160  0.00  0.00     0.000 OA
ATOM     15   S  A00 X   1      22.110  10.607   8.5390  0.00  0.00     0.000 S
ENDBRANCH 2 11
BRANCH 5 16
ATOM     16   C  A00 X   1      17.413  13.616   8.7090  0.00  0.00     0.000 C
ATOM     17   O  A00 X   1      17.899  13.993   9.7550  0.00  0.00     0.000 OA
ATOM     18   O  A00 X   1      17.330  14.398   7.7830  0.00  0.00     0.000 OA
ENDBRANCH 5 16
BRANCH 1 19
ATOM     19  O4  A00 X   2      19.051  12.543   6.0930  0.00  0.00     0.000 O
BRANCH 19 23
ATOM     20  C1  A00 X   2      17.777  10.348   2.6410  0.00  0.00     0.000 C
ATOM     21  C2  A00 X   2      19.272  10.258   3.0330  0.00  0.00     0.000 C
ATOM     22  C3  A00 X   2      19.486  10.720   4.4900  0.00  0.00     0.000 C
ATOM     23  C4  A00 X   2      18.893  12.130   4.7060  0.00  0.00     0.000 C
ATOM     24  C5  A00 X   2      17.405  12.093   4.2600  0.00  0.00     0.000 C
ATOM     25  O5  A00 X   2      17.346  11.718   2.8600  0.00  0.00     0.000 O
ATOM     26   O  A00 X   2      20.874  10.553   4.8270  0.00  0.00     0.000 O
ATOM     28  HD  A00 X   2      21.148  10.967   4.1180  0.00  0.00     0.000 HD
BRANCH 21 30
ATOM     28   N  A00 X   2      20.591   9.702   3.3490  0.00  0.00     0.000 N
ATOM     30  HD  A00 X   2      20.369   9.394   2.5700  0.00  0.00     0.000 HD
ATOM     30   O  A00 X   2      21.522   8.871   1.3740  0.00  0.00     0.000 OA
ATOM     31   S  A00 X   2      21.050   8.377   2.6190  0.00  0.00     0.000 S
ATOM     32   O  A00 X   2      22.062   7.848   3.4810  0.00  0.00     0.000 OA
ATOM     33   O  A00 X   2      19.919   7.499   2.5820  0.00  0.00     0.000 OA
ENDBRANCH 21 30
BRANCH 24 34
ATOM     34   C  A00 X   2      16.519  13.317   4.5880  0.00  0.00     0.000 C
ATOM     35   O  A00 X   2      17.178  16.693   3.3940  0.00  0.00     0.000 OA
ATOM     36   O  A00 X   2      17.201  14.551   4.2900  0.00  0.00     0.000 O
ATOM     37   O  A00 X   2      16.946  14.812   1.9790  0.00  0.00     0.000 OA
ATOM     38   S  A00 X   2      16.519  15.445   3.1900  0.00  0.00     0.000 S
ATOM     39   O  A00 X   2      15.117  15.445   3.4800  0.00  0.00     0.000 OA
ENDBRANCH 24 34
BRANCH 20 40
ATOM     40  O4  A00 X   3      17.085   9.476   3.5470  0.00  0.00     0.000 O
BRANCH 40 44
ATOM     41  C1  A00 X   3      14.321   8.475   5.6630  0.00  0.00     0.000 C
ATOM     42  C2  A00 X   3      15.566   7.609   5.3730  0.00  0.00     0.000 C
ATOM     43  C3  A00 X   3      15.832   7.512   3.8490  0.00  0.00     0.000 C
ATOM     44  C4  A00 X   3      15.854   8.852   3.1240  0.00  0.00     0.000 C
ATOM     45  C5  A00 X   3      14.570   9.660   3.4610  0.00  0.00     0.000 C
ATOM     46  O5  A00 X   3      14.353   9.717   4.9080  0.00  0.00     0.000 O
ATOM     47   O  A00 X   3      16.910   6.664   3.4570  0.00  0.00     0.000 O
ATOM     49  HD  A00 X   3      17.048   7.295   2.8800  0.00  0.00     0.000 HD
BRANCH 42 49
ATOM     49   O  A00 X   3      16.677   8.220   6.0650  0.00  0.00     0.000 O
ATOM     50   O  A00 X   3      19.026   7.807   6.2770  0.00  0.00     0.000 OA
ATOM     51   O  A00 X   3      17.534   5.973   6.3350  0.00  0.00     0.000 OA
ATOM     52   O  A00 X   3      17.513   7.500   8.1380  0.00  0.00     0.000 OA
ATOM     53   S  A00 X   3      17.761   7.335   6.7480  0.00  0.00     0.000 S
ENDBRANCH 42 49
BRANCH 45 54
ATOM     54   C  A00 X   3      13.352   9.140   2.6880  0.00  0.00     0.000 C
ATOM     55   O  A00 X   3      13.433   8.138   2.0070  0.00  0.00     0.000 OA
ATOM     56   O  A00 X   3      12.280   9.723   2.7430  0.00  0.00     0.000 OA
ENDBRANCH 45 54
BRANCH 41 57
ATOM     57  O4  A00 X   4      13.098   7.721   5.5040  0.00  0.00     0.000 O
BRANCH 57 61
ATOM     58  C1  A00 X   4       9.264   7.873   7.4820  0.00  0.00     0.000 C
ATOM     59  C2  A00 X   4       9.714   9.095   6.6420  0.00  0.00     0.000 C
ATOM     60  C3  A00 X   4      10.903   8.794   5.7080  0.00  0.00     0.000 C
ATOM     61  C4  A00 X   4      12.039   8.055   6.4460  0.00  0.00     0.000 C
ATOM     62  C5  A00 X   4      11.413   6.763   7.0280  0.00  0.00     0.000 C
ATOM     63  O5  A00 X   4      10.389   7.121   7.9900  0.00  0.00     0.000 O
BRANCH 59 66
ATOM     64   N  A00 X   4       9.125  10.195   5.8580  0.00  0.00     0.000 N
ATOM     66  HD  A00 X   4       9.641  10.859   5.6510  0.00  0.00     0.000 HD
ATOM     66   O  A00 X   4       7.863  10.786   7.8220  0.00  0.00     0.000 OA
ATOM     67   S  A00 X   4       7.782  10.876   6.3970  0.00  0.00     0.000 S
ATOM     68   O  A00 X   4       7.923  12.195   5.8530  0.00  0.00     0.000 OA
ATOM     69   O  A00 X   4       6.802  10.066   5.7300  0.00  0.00     0.000 OA
ENDBRANCH 59 66
BRANCH 62 70
ATOM     70   C  A00 X   4      12.430   5.823   7.7190  0.00  0.00     0.000 C
ATOM     71   O  A00 X   4      14.228   6.325  10.8210  0.00  0.00     0.000 OA
ATOM     72   O  A00 X   4      14.992   5.660   8.6950  0.00  0.00     0.000 OA
ATOM     73   O  A00 X   4      12.702   6.309   9.0430  0.00  0.00     0.000 O
ATOM     74   O  A00 X   4      14.422   7.996   9.0930  0.00  0.00     0.000 OA
ATOM     75   S  A00 X   4      14.192   6.624   9.4170  0.00  0.00     0.000 S
ENDBRANCH 62 70
ENDBRANCH 57 61
ENDBRANCH 41 57
ENDBRANCH 40 44
ENDBRANCH 20 40
ENDBRANCH 19 23
ENDBRANCH 1 19
TORSDOF 14
ENDMDL
MODEL 9
REMARK VINA RESULT:      -1.2      6.018     11.809
ROOT
ATOM      1  C1  A00 X   1      18.418   7.868   8.2960  0.00  0.00     0.000 C
ATOM      2  C2  A00 X   1      18.789   6.454   8.8180  0.00  0.00     0.000 C
ATOM      3  C3  A00 X   1      18.525   6.191  10.3370  0.00  0.00     0.000 C
ATOM      4  C4  A00 X   1      18.281   7.454  11.2010  0.00  0.00     0.000 C
ATOM      5  C5  A00 X   1      18.865   8.713  10.5610  0.00  0.00     0.000 C
ATOM      6  O5  A00 X   1      18.146   8.860   9.3160  0.00  0.00     0.000 O
ATOM      7   O  A00 X   1      19.662   5.534  10.8920  0.00  0.00     0.000 O
ATOM      9  HD  A00 X   1      19.400   6.124  11.4700  0.00  0.00     0.000 HD
ATOM      9   O  A00 X   1      16.891   7.647  11.4630  0.00  0.00     0.000 O
ATOM     11  HD  A00 X   1      16.629   8.237  12.0410  0.00  0.00     0.000 HD
ENDROOT
BRANCH 2 11
ATOM     11   O  A00 X   1      18.050   5.492   8.0400  0.00  0.00     0.000 O
ATOM     12   O  A00 X   1      17.855   3.195   8.7130  0.00  0.00     0.000 OA
ATOM     13   O  A00 X   1      20.046   4.087   8.1480  0.00  0.00     0.000 OA
ATOM     14   O  A00 X   1      18.390   3.803   6.4640  0.00  0.00     0.000 OA
ATOM     15   S  A00 X   1      18.639   4.050   7.8590  0.00  0.00     0.000 S
ENDBRANCH 2 11
BRANCH 5 16
ATOM     16   C  A00 X   1      20.388   8.707  10.3930  0.00  0.00     0.000 C
ATOM     17   O  A00 X   1      21.041   7.910  11.0340  0.00  0.00     0.000 OA
ATOM     18   O  A00 X   1      20.963   9.465   9.6370  0.00  0.00     0.000 OA
ENDBRANCH 5 16
BRANCH 1 19
ATOM     19  O4  A00 X   2      19.357   8.366   7.3110  0.00  0.00     0.000 O
BRANCH 19 23
ATOM     20  C1  A00 X   2      19.364   8.088   3.0350  0.00  0.00     0.000 C
ATOM     21  C2  A00 X   2      18.094   8.658   3.7120  0.00  0.00     0.000 C
ATOM     22  C3  A00 X   2      18.392   9.095   5.1610  0.00  0.00     0.000 C
ATOM     23  C4  A00 X   2      19.029   7.936   5.9590  0.00  0.00     0.000 C
ATOM     24  C5  A00 X   2      20.274   7.444   5.1710  0.00  0.00     0.000 C
ATOM     25  O5  A00 X   2      19.849   6.995   3.8580  0.00  0.00     0.000 O
ATOM     26   O  A00 X   2      17.203   9.678   5.7210  0.00  0.00     0.000 O
ATOM     28  HD  A00 X   2      16.705   9.011   5.4850  0.00  0.00     0.000 HD
BRANCH 21 30
ATOM     28   N  A00 X   2      17.118   9.747   3.8190  0.00  0.00     0.000 N
ATOM     30  HD  A00 X   2      16.958   9.340   3.0720  0.00  0.00     0.000 HD
ATOM     30   O  A00 X   2      15.406   9.344   2.2820  0.00  0.00     0.000 OA
ATOM     31   S  A00 X   2      16.441  10.292   2.4990  0.00  0.00     0.000 S
ATOM     32   O  A00 X   2      15.994  11.601   2.8630  0.00  0.00     0.000 OA
ATOM     33   O  A00 X   2      17.465  10.375   1.5010  0.00  0.00     0.000 OA
ENDBRANCH 21 30
BRANCH 24 34
ATOM     34   C  A00 X   2      21.225   6.442   5.8670  0.00  0.00     0.000 C
ATOM     35   O  A00 X   2      22.367   3.330   4.3600  0.00  0.00     0.000 OA
ATOM     36   O  A00 X   2      21.218   5.165   5.1980  0.00  0.00     0.000 O
ATOM     37   O  A00 X   2      22.645   5.459   3.3680  0.00  0.00     0.000 OA
ATOM     38   S  A00 X   2      22.598   4.718   4.5910  0.00  0.00     0.000 S
ATOM     39   O  A00 X   2      23.590   5.011   5.5830  0.00  0.00     0.000 OA
ENDBRANCH 24 34
BRANCH 20 40
ATOM     40  O4  A00 X   3      20.321   9.157   3.0450  0.00  0.00     0.000 O
BRANCH 40 44
ATOM     41  C1  A00 X   3      23.368  11.116   3.0960  0.00  0.00     0.000 C
ATOM     42  C2  A00 X   3      21.996  11.636   2.6160  0.00  0.00     0.000 C
ATOM     43  C3  A00 X   3      21.366  10.668   1.5810  0.00  0.00     0.000 C
ATOM     44  C4  A00 X   3      21.333   9.209   2.0160  0.00  0.00     0.000 C
ATOM     45  C5  A00 X   3      22.747   8.759   2.4790  0.00  0.00     0.000 C
ATOM     46  O5  A00 X   3      23.307   9.705   3.4460  0.00  0.00     0.000 O
ATOM     47   O  A00 X   3      20.133  11.092   1.0020  0.00  0.00     0.000 O
ATOM     49  HD  A00 X   3      19.938  10.252   1.0800  0.00  0.00     0.000 HD
BRANCH 42 49
ATOM     49   O  A00 X   3      21.162  11.771   3.7880  0.00  0.00     0.000 O
ATOM     50   O  A00 X   3      18.897  12.402   4.2390  0.00  0.00     0.000 OA
ATOM     51   O  A00 X   3      20.127  13.631   2.6360  0.00  0.00     0.000 OA
ATOM     52   O  A00 X   3      20.758  13.795   4.9080  0.00  0.00     0.000 OA
ATOM     53   S  A00 X   3      20.171  12.964   3.9140  0.00  0.00     0.000 S
ENDBRANCH 42 49
BRANCH 45 54
ATOM     54   C  A00 X   3      23.676   8.494   1.2880  0.00  0.00     0.000 C
ATOM     55   O  A00 X   3      23.412   8.933   0.1870  0.00  0.00     0.000 OA
ATOM     56   O  A00 X   3      24.696   7.837   1.4240  0.00  0.00     0.000 OA
ENDBRANCH 45 54
BRANCH 41 57
ATOM     57  O4  A00 X   4      24.420  11.442   2.1600  0.00  0.00     0.000 O
BRANCH 57 61
ATOM     58  C1  A00 X   4      28.695  11.741   2.6850  0.00  0.00     0.000 C
ATOM     59  C2  A00 X   4      28.124  10.511   1.9360  0.00  0.00     0.000 C
ATOM     60  C3  A00 X   4      26.656  10.685   1.4980  0.00  0.00     0.000 C
ATOM     61  C4  A00 X   4      25.773  11.217   2.6470  0.00  0.00     0.000 C
ATOM     62  C5  A00 X   4      26.409  12.555   3.1010  0.00  0.00     0.000 C
ATOM     63  O5  A00 X   4      27.741  12.299   3.6170  0.00  0.00     0.000 O
BRANCH 59 66
ATOM     64   N  A00 X   4      28.203   9.474   2.9810  0.00  0.00     0.000 N
ATOM     66  HD  A00 X   4      28.228   9.739   3.8060  0.00  0.00     0.000 HD
ATOM     66   O  A00 X   4      30.455   9.045   2.2440  0.00  0.00     0.000 OA
ATOM     67   S  A00 X   4      29.359   8.374   2.8710  0.00  0.00     0.000 S
ATOM     68   O  A00 X   4      29.543   8.053   4.2560  0.00  0.00     0.000 OA
ATOM     69   O  A00 X   4      28.674   7.362   2.1180  0.00  0.00     0.000 OA
ENDBRANCH 59 66
BRANCH 62 70
ATOM     70   C  A00 X   4      25.598  13.305   4.1840  0.00  0.00     0.000 C
ATOM     71   O  A00 X   4      25.470  12.684   7.7490  0.00  0.00     0.000 OA
ATOM     72   O  A00 X   4      23.739  12.987   6.1810  0.00  0.00     0.000 OA
ATOM     73   O  A00 X   4      26.039  12.883   5.4850  0.00  0.00     0.000 O
ATOM     74   O  A00 X   4      24.950  10.873   6.2440  0.00  0.00     0.000 OA
ATOM     75   S  A00 X   4      24.971  12.283   6.4640  0.00  0.00     0.000 S
ENDBRANCH 62 70
ENDBRANCH 57 61
ENDBRANCH 41 57
ENDBRANCH 40 44
ENDBRANCH 20 40
ENDBRANCH 19 23
ENDBRANCH 1 19
TORSDOF 14
ENDMDL
MODEL 10
REMARK VINA RESULT:      -1.1      5.553     12.185
ROOT
ATOM      1  C1  A00 X   1      18.339   8.416   7.7790  0.00  0.00     0.000 C
ATOM      2  C2  A00 X   1      19.040   7.068   7.4590  0.00  0.00     0.000 C
ATOM      3  C3  A00 X   1      19.409   6.177   8.6900  0.00  0.00     0.000 C
ATOM      4  C4  A00 X   1      19.372   6.889  10.0660  0.00  0.00     0.000 C
ATOM      5  C5  A00 X   1      19.519   8.405   9.9360  0.00  0.00     0.000 C
ATOM      6  O5  A00 X   1      18.367   8.821   9.1700  0.00  0.00     0.000 O
ATOM      7   O  A00 X   1      20.739   5.692   8.5210  0.00  0.00     0.000 O
ATOM      9  HD  A00 X   1      20.653   5.916   9.3530  0.00  0.00     0.000 HD
ATOM      9   O  A00 X   1      18.176   6.580  10.7820  0.00  0.00     0.000 O
ATOM     11  HD  A00 X   1      18.090   6.805  11.6140  0.00  0.00     0.000 HD
ENDROOT
BRANCH 2 11
ATOM     11   O  A00 X   1      18.174   6.322   6.5810  0.00  0.00     0.000 O
ATOM     12   O  A00 X   1      18.476   3.970   6.2000  0.00  0.00     0.000 OA
ATOM     13   O  A00 X   1      20.209   5.522   5.4920  0.00  0.00     0.000 OA
ATOM     14   O  A00 X   1      18.097   5.495   4.3990  0.00  0.00     0.000 OA
ATOM     15   S  A00 X   1      18.805   5.250   5.6270  0.00  0.00     0.000 S
ENDBRANCH 2 11
BRANCH 5 16
ATOM     16   C  A00 X   1      20.851   8.878   9.3460  0.00  0.00     0.000 C
ATOM     17   O  A00 X   1      20.963  10.043   9.0230  0.00  0.00     0.000 OA
ATOM     18   O  A00 X   1      21.799   8.133   9.1950  0.00  0.00     0.000 OA
ENDBRANCH 5 16
BRANCH 1 19
ATOM     19  O4  A00 X   2      18.765   9.491   6.9070  0.00  0.00     0.000 O
BRANCH 19 23
ATOM     20  C1  A00 X   2      17.285  10.798   3.1030  0.00  0.00     0.000 C
ATOM     21  C2  A00 X   2      16.279  10.732   4.2770  0.00  0.00     0.000 C
ATOM     22  C3  A00 X   2      17.017  10.675   5.6310  0.00  0.00     0.000 C
ATOM     23  C4  A00 X   2      18.034   9.512   5.6470  0.00  0.00     0.000 C
ATOM     24  C5  A00 X   2      18.968   9.682   4.4180  0.00  0.00     0.000 C
ATOM     25  O5  A00 X   2      18.163   9.646   3.2110  0.00  0.00     0.000 O
ATOM     26   O  A00 X   2      16.043  10.685   6.6890  0.00  0.00     0.000 O
ATOM     28  HD  A00 X   2      15.579  10.044   6.3360  0.00  0.00     0.000 HD
BRANCH 21 30
ATOM     28   N  A00 X   2      15.323  11.641   4.9180  0.00  0.00     0.000 N
ATOM     30  HD  A00 X   2      14.925  11.307   4.2250  0.00  0.00     0.000 HD
ATOM     30   O  A00 X   2      13.195  11.170   4.0750  0.00  0.00     0.000 OA
ATOM     31   S  A00 X   2      14.139  12.231   4.0520  0.00  0.00     0.000 S
ATOM     32   O  A00 X   2      13.747  13.404   4.7690  0.00  0.00     0.000 OA
ATOM     33   O  A00 X   2      14.685  12.587   2.7760  0.00  0.00     0.000 OA
ENDBRANCH 21 30
BRANCH 24 34
ATOM     34   C  A00 X   2      20.220   8.778   4.3280  0.00  0.00     0.000 C
ATOM     35   O  A00 X   2      21.246   7.008   1.3150  0.00  0.00     0.000 OA
ATOM     36   O  A00 X   2      20.179   7.944   3.1520  0.00  0.00     0.000 O
ATOM     37   O  A00 X   2      20.896   9.345   1.4210  0.00  0.00     0.000 OA
ATOM     38   S  A00 X   2      21.344   8.180   2.1220  0.00  0.00     0.000 S
ATOM     39   O  A00 X   2      22.548   8.290   2.8900  0.00  0.00     0.000 OA
ENDBRANCH 24 34
BRANCH 20 40
ATOM     40  O4  A00 X   3      18.043  11.999   3.3090  0.00  0.00     0.000 O
BRANCH 40 44
ATOM     41  C1  A00 X   3      20.536  14.627   3.3260  0.00  0.00     0.000 C
ATOM     42  C2  A00 X   3      19.026  14.846   3.5590  0.00  0.00     0.000 C
ATOM     43  C3  A00 X   3      18.189  14.176   2.4380  0.00  0.00     0.000 C
ATOM     44  C4  A00 X   3      18.547  12.721   2.1640  0.00  0.00     0.000 C
ATOM     45  C5  A00 X   3      20.078  12.583   1.9360  0.00  0.00     0.000 C
ATOM     46  O5  A00 X   3      20.828  13.238   3.0110  0.00  0.00     0.000 O
ATOM     47   O  A00 X   3      16.780  14.387   2.5030  0.00  0.00     0.000 O
ATOM     49  HD  A00 X   3      16.758  13.559   2.2500  0.00  0.00     0.000 HD
BRANCH 42 49
ATOM     49   O  A00 X   3      18.713  14.291   4.8550  0.00  0.00     0.000 O
ATOM     50   O  A00 X   3      16.753  14.047   6.2080  0.00  0.00     0.000 OA
ATOM     51   O  A00 X   3      17.094  16.079   5.0490  0.00  0.00     0.000 OA
ATOM     52   O  A00 X   3      18.546  15.543   6.8350  0.00  0.00     0.000 OA
ATOM     53   S  A00 X   3      17.717  15.021   5.8030  0.00  0.00     0.000 S
ENDBRANCH 42 49
BRANCH 45 54
ATOM     54   C  A00 X   3      20.489  13.060   0.5380  0.00  0.00     0.000 C
ATOM     55   O  A00 X   3      19.739  13.745  -0.1270  0.00  0.00     0.000 OA
ATOM     56   O  A00 X   3      21.575  12.758   0.0680  0.00  0.00     0.000 OA
ENDBRANCH 45 54
BRANCH 41 57
ATOM     57  O4  A00 X   4      21.072  15.571   2.3710  0.00  0.00     0.000 O
BRANCH 57 61
ATOM     58  C1  A00 X   4      24.950  17.412   1.9170  0.00  0.00     0.000 C
ATOM     59  C2  A00 X   4      24.846  15.870   1.8190  0.00  0.00     0.000 C
ATOM     60  C3  A00 X   4      23.401  15.362   1.6360  0.00  0.00     0.000 C
ATOM     61  C4  A00 X   4      22.430  16.019   2.6400  0.00  0.00     0.000 C
ATOM     62  C5  A00 X   4      22.544  17.548   2.4180  0.00  0.00     0.000 C
ATOM     63  O5  A00 X   4      23.895  17.976   2.7290  0.00  0.00     0.000 O
BRANCH 59 66
ATOM     64   N  A00 X   4      25.356  14.540   2.1970  0.00  0.00     0.000 N
ATOM     66  HD  A00 X   4      25.174  14.253   2.9940  0.00  0.00     0.000 HD
ATOM     66   O  A00 X   4      27.564  15.502   2.2140  0.00  0.00     0.000 OA
ATOM     67   S  A00 X   4      26.917  14.245   2.0050  0.00  0.00     0.000 S
ATOM     68   O  A00 X   4      27.123  13.267   3.0330  0.00  0.00     0.000 OA
ATOM     69   O  A00 X   4      26.911  13.707   0.6740  0.00  0.00     0.000 OA
ENDBRANCH 59 66
BRANCH 62 70
ATOM     70   C  A00 X   4      21.556  18.385   3.2660  0.00  0.00     0.000 C
ATOM     71   O  A00 X   4      21.538  18.917   6.8470  0.00  0.00     0.000 OA
ATOM     72   O  A00 X   4      19.808  18.280   5.3820  0.00  0.00     0.000 OA
ATOM     73   O  A00 X   4      22.071  18.518   4.6010  0.00  0.00     0.000 O
ATOM     74   O  A00 X   4      21.507  16.652   6.0180  0.00  0.00     0.000 OA
ATOM     75   S  A00 X   4      21.172  18.021   5.7860  0.00  0.00     0.000 S
ENDBRANCH 62 70
ENDBRANCH 57 61
ENDBRANCH 41 57
ENDBRANCH 40 44
ENDBRANCH 20 40
ENDBRANCH 19 23
ENDBRANCH 1 19
TORSDOF 14
ENDMDL
MODEL 11
REMARK VINA RESULT:      -0.6      6.239     11.550
ROOT
ATOM      1  C1  A00 X   1      17.323  17.755   9.1880  0.00  0.00     0.000 C
ATOM      2  C2  A00 X   1      17.101  19.221   8.7310  0.00  0.00     0.000 C
ATOM      3  C3  A00 X   1      17.863  19.661   7.4370  0.00  0.00     0.000 C
ATOM      4  C4  A00 X   1      19.011  18.721   6.9850  0.00  0.00     0.000 C
ATOM      5  C5  A00 X   1      19.543  17.866   8.1350  0.00  0.00     0.000 C
ATOM      6  O5  A00 X   1      18.417  17.057   8.5420  0.00  0.00     0.000 O
ATOM      7   O  A00 X   1      18.452  20.939   7.6650  0.00  0.00     0.000 O
ATOM      9  HD  A00 X   1      19.033  20.463   7.2330  0.00  0.00     0.000 HD
ATOM      9   O  A00 X   1      18.603  17.880   5.9070  0.00  0.00     0.000 O
ATOM     11  HD  A00 X   1      19.183  17.404   5.4750  0.00  0.00     0.000 HD
ENDROOT
BRANCH 2 11
ATOM     11   O  A00 X   1      15.687  19.408   8.5290  0.00  0.00     0.000 O
ATOM     12   O  A00 X   1      14.806  21.363   7.4480  0.00  0.00     0.000 OA
ATOM     13   O  A00 X   1      15.976  21.600   9.5670  0.00  0.00     0.000 OA
ATOM     14   O  A00 X   1      13.861  20.515   9.4730  0.00  0.00     0.000 OA
ATOM     15   S  A00 X   1      15.070  20.830   8.7600  0.00  0.00     0.000 S
ENDBRANCH 2 11
BRANCH 5 16
ATOM     16   C  A00 X   1      20.181  18.652   9.2850  0.00  0.00     0.000 C
ATOM     17   O  A00 X   1      20.425  18.069  10.3220  0.00  0.00     0.000 OA
ATOM     18   O  A00 X   1      20.457  19.831   9.1940  0.00  0.00     0.000 OA
ENDBRANCH 5 16
BRANCH 1 19
ATOM     19  O4  A00 X   2      17.388  17.619  10.6290  0.00  0.00     0.000 O
BRANCH 19 23
ATOM     20  C1  A00 X   2      14.630  14.340  10.7170  0.00  0.00     0.000 C
ATOM     21  C2  A00 X   2      14.112  15.722  11.1850  0.00  0.00     0.000 C
ATOM     22  C3  A00 X   2      15.044  16.851  10.6980  0.00  0.00     0.000 C
ATOM     23  C4  A00 X   2      16.502  16.578  11.1320  0.00  0.00     0.000 C
ATOM     24  C5  A00 X   2      16.892  15.164  10.6220  0.00  0.00     0.000 C
ATOM     25  O5  A00 X   2      15.989  14.190  11.2070  0.00  0.00     0.000 O
ATOM     26   O  A00 X   2      14.486  18.114  11.0970  0.00  0.00     0.000 O
ATOM     28  HD  A00 X   2      14.378  17.864  11.9190  0.00  0.00     0.000 HD
BRANCH 21 30
ATOM     28   N  A00 X   2      12.986  16.603  10.8600  0.00  0.00     0.000 N
ATOM     30  HD  A00 X   2      12.692  16.019  11.4280  0.00  0.00     0.000 HD
ATOM     30   O  A00 X   2      11.331  16.295  12.4790  0.00  0.00     0.000 OA
ATOM     31   S  A00 X   2      11.516  16.071  11.0890  0.00  0.00     0.000 S
ATOM     32   O  A00 X   2      10.720  16.895  10.2340  0.00  0.00     0.000 OA
ATOM     33   O  A00 X   2      11.483  14.711  10.6410  0.00  0.00     0.000 OA
ENDBRANCH 21 30
BRANCH 24 34
ATOM     34   C  A00 X   2      18.376  14.740  10.7250  0.00  0.00     0.000 C
ATOM     35   O  A00 X   2      20.285  14.727  13.8250  0.00  0.00     0.000 OA
ATOM     36   O  A00 X   2      18.957  15.167  11.9730  0.00  0.00     0.000 O
ATOM     37   O  A00 X   2      18.248  13.565  13.5230  0.00  0.00     0.000 OA
ATOM     38   S  A00 X   2      19.462  14.009  12.9090  0.00  0.00     0.000 S
ATOM     39   O  A00 X   2      20.157  13.082  12.0670  0.00  0.00     0.000 OA
ENDBRANCH 24 34
BRANCH 20 40
ATOM     40  O4  A00 X   3      14.640  14.394   9.2830  0.00  0.00     0.000 O
BRANCH 40 44
ATOM     41  C1  A00 X   3      15.260  13.908   5.7480  0.00  0.00     0.000 C
ATOM     42  C2  A00 X   3      13.952  14.471   6.3420  0.00  0.00     0.000 C
ATOM     43  C3  A00 X   3      13.411  13.551   7.4670  0.00  0.00     0.000 C
ATOM     44  C4  A00 X   3      14.438  13.180   8.5290  0.00  0.00     0.000 C
ATOM     45  C5  A00 X   3      15.721  12.617   7.8550  0.00  0.00     0.000 C
ATOM     46  O5  A00 X   3      16.190  13.512   6.7940  0.00  0.00     0.000 O
ATOM     47   O  A00 X   3      12.157  13.928   8.0320  0.00  0.00     0.000 O
ATOM     49  HD  A00 X   3      12.538  13.673   8.7660  0.00  0.00     0.000 HD
BRANCH 42 49
ATOM     49   O  A00 X   3      14.248  15.795   6.8390  0.00  0.00     0.000 O
ATOM     50   O  A00 X   3      13.033  17.553   7.9180  0.00  0.00     0.000 OA
ATOM     51   O  A00 X   3      12.008  16.383   6.1370  0.00  0.00     0.000 OA
ATOM     52   O  A00 X   3      13.850  17.782   5.6530  0.00  0.00     0.000 OA
ATOM     53   S  A00 X   3      13.233  16.957   6.6340  0.00  0.00     0.000 S
ENDBRANCH 42 49
BRANCH 45 54
ATOM     54   C  A00 X   3      15.527  11.171   7.3840  0.00  0.00     0.000 C
ATOM     55   O  A00 X   3      14.417  10.684   7.3220  0.00  0.00     0.000 OA
ATOM     56   O  A00 X   3      16.485  10.484   7.0630  0.00  0.00     0.000 OA
ENDBRANCH 45 54
BRANCH 41 57
ATOM     57  O4  A00 X   4      15.002  12.875   4.7710  0.00  0.00     0.000 O
BRANCH 57 61
ATOM     58  C1  A00 X   4      17.476  11.115   1.7010  0.00  0.00     0.000 C
ATOM     59  C2  A00 X   4      17.325  10.369   3.0500  0.00  0.00     0.000 C
ATOM     60  C3  A00 X   4      16.159  10.890   3.9140  0.00  0.00     0.000 C
ATOM     61  C4  A00 X   4      16.166  12.431   4.0170  0.00  0.00     0.000 C
ATOM     62  C5  A00 X   4      16.101  12.965   2.5650  0.00  0.00     0.000 C
ATOM     63  O5  A00 X   4      17.288  12.542   1.8470  0.00  0.00     0.000 O
BRANCH 59 66
ATOM     64   N  A00 X   4      17.860   9.534   4.1410  0.00  0.00     0.000 N
ATOM     66  HD  A00 X   4      18.250   9.939   4.8000  0.00  0.00     0.000 HD
ATOM     66   O  A00 X   4      19.547   8.777   2.5990  0.00  0.00     0.000 OA
ATOM     67   S  A00 X   4      18.845   8.332   3.7620  0.00  0.00     0.000 S
ATOM     68   O  A00 X   4      19.626   8.250   4.9610  0.00  0.00     0.000 OA
ATOM     69   O  A00 X   4      17.895   7.267   3.6040  0.00  0.00     0.000 OA
ENDBRANCH 59 66
BRANCH 62 70
ATOM     70   C  A00 X   4      15.988  14.505   2.4630  0.00  0.00     0.000 C
ATOM     71   O  A00 X   4      18.642  16.961   2.2810  0.00  0.00     0.000 OA
ATOM     72   O  A00 X   4      16.729  16.868   3.6510  0.00  0.00     0.000 OA
ATOM     73   O  A00 X   4      17.280  15.057   2.1660  0.00  0.00     0.000 O
ATOM     74   O  A00 X   4      18.626  15.416   4.1320  0.00  0.00     0.000 OA
ATOM     75   S  A00 X   4      17.866  16.125   3.1540  0.00  0.00     0.000 S
ENDBRANCH 62 70
ENDBRANCH 57 61
ENDBRANCH 41 57
ENDBRANCH 40 44
ENDBRANCH 20 40
ENDBRANCH 19 23
ENDBRANCH 1 19
TORSDOF 14
ENDMDL
MODEL 12
REMARK VINA RESULT:      -0.4      7.021     11.813
ROOT
ATOM      1  C1  A00 X   1      17.374  18.152   9.5750  0.00  0.00     0.000 C
ATOM      2  C2  A00 X   1      18.206  19.429   9.2810  0.00  0.00     0.000 C
ATOM      3  C3  A00 X   1      19.657  19.195   8.7440  0.00  0.00     0.000 C
ATOM      4  C4  A00 X   1      20.210  17.756   8.9170  0.00  0.00     0.000 C
ATOM      5  C5  A00 X   1      19.494  16.993  10.0310  0.00  0.00     0.000 C
ATOM      6  O5  A00 X   1      18.119  16.910   9.5940  0.00  0.00     0.000 O
ATOM      7   O  A00 X   1      20.549  20.058   9.4450  0.00  0.00     0.000 O
ATOM      9  HD  A00 X   1      20.943  19.291   9.3700  0.00  0.00     0.000 HD
ATOM      9   O  A00 X   1      20.131  17.017   7.6980  0.00  0.00     0.000 O
ATOM     11  HD  A00 X   1      20.526  16.250   7.6230  0.00  0.00     0.000 HD
ENDROOT
BRANCH 2 11
ATOM     11   O  A00 X   1      17.474  20.220   8.3250  0.00  0.00     0.000 O
ATOM     12   O  A00 X   1      18.453  22.124   7.2380  0.00  0.00     0.000 OA
ATOM     13   O  A00 X   1      18.133  22.165   9.6480  0.00  0.00     0.000 OA
ATOM     14   O  A00 X   1      16.259  22.209   8.1830  0.00  0.00     0.000 OA
ATOM     15   S  A00 X   1      17.620  21.780   8.3620  0.00  0.00     0.000 S
ENDBRANCH 2 11
BRANCH 5 16
ATOM     16   C  A00 X   1      19.656  17.589  11.4330  0.00  0.00     0.000 C
ATOM     17   O  A00 X   1      18.932  17.189  12.3220  0.00  0.00     0.000 OA
ATOM     18   O  A00 X   1      20.485  18.439  11.6880  0.00  0.00     0.000 OA
ENDBRANCH 5 16
BRANCH 1 19
ATOM     19  O4  A00 X   2      16.538  18.286  10.7500  0.00  0.00     0.000 O
BRANCH 19 23
ATOM     20  C1  A00 X   2      13.028  16.857   8.7490  0.00  0.00     0.000 C
ATOM     21  C2  A00 X   2      13.108  18.372   9.0560  0.00  0.00     0.000 C
ATOM     22  C3  A00 X   2      14.560  18.793   9.3660  0.00  0.00     0.000 C
ATOM     23  C4  A00 X   2      15.151  17.920  10.4950  0.00  0.00     0.000 C
ATOM     24  C5  A00 X   2      14.994  16.432  10.0750  0.00  0.00     0.000 C
ATOM     25  O5  A00 X   2      13.584  16.146   9.8870  0.00  0.00     0.000 O
ATOM     26   O  A00 X   2      14.592  20.215   9.5760  0.00  0.00     0.000 O
ATOM     28  HD  A00 X   2      13.938  20.197  10.1430  0.00  0.00     0.000 HD
BRANCH 21 30
ATOM     28   N  A00 X   2      12.819  19.393   8.0450  0.00  0.00     0.000 N
ATOM     30  HD  A00 X   2      12.085  19.263   8.4870  0.00  0.00     0.000 HD
ATOM     30   O  A00 X   2      10.821  20.452   8.6320  0.00  0.00     0.000 OA
ATOM     31   S  A00 X   2      11.318  19.614   7.5990  0.00  0.00     0.000 S
ATOM     32   O  A00 X   2      11.435  20.240   6.3180  0.00  0.00     0.000 OA
ATOM     33   O  A00 X   2      10.720  18.319   7.4680  0.00  0.00     0.000 OA
ENDBRANCH 21 30
BRANCH 24 34
ATOM     34   C  A00 X   2      15.713  15.359  10.9260  0.00  0.00     0.000 C
ATOM     35   O  A00 X   2      15.259  14.961  14.5170  0.00  0.00     0.000 OA
ATOM     36   O  A00 X   2      15.621  15.659  12.3330  0.00  0.00     0.000 O
ATOM     37   O  A00 X   2      13.489  14.919  12.9490  0.00  0.00     0.000 OA
ATOM     38   S  A00 X   2      14.860  14.590  13.1990  0.00  0.00     0.000 S
ATOM     39   O  A00 X   2      15.325  13.309  12.7620  0.00  0.00     0.000 OA
ENDBRANCH 24 34
BRANCH 20 40
ATOM     40  O4  A00 X   3      13.863  16.650   7.6000  0.00  0.00     0.000 O
BRANCH 40 44
ATOM     41  C1  A00 X   3      15.837  15.556   4.7660  0.00  0.00     0.000 C
ATOM     42  C2  A00 X   3      14.846  16.740   4.7440  0.00  0.00     0.000 C
ATOM     43  C3  A00 X   3      13.465  16.319   5.3080  0.00  0.00     0.000 C
ATOM     44  C4  A00 X   3      13.520  15.611   6.6570  0.00  0.00     0.000 C
ATOM     45  C5  A00 X   3      14.533  14.433   6.5980  0.00  0.00     0.000 C
ATOM     46  O5  A00 X   3      15.817  14.873   6.0500  0.00  0.00     0.000 O
ATOM     47   O  A00 X   3      12.441  17.311   5.2560  0.00  0.00     0.000 O
ATOM     49  HD  A00 X   3      12.239  16.981   6.0320  0.00  0.00     0.000 HD
BRANCH 42 49
ATOM     49   O  A00 X   3      15.435  17.800   5.5280  0.00  0.00     0.000 O
ATOM     50   O  A00 X   3      14.834  20.030   6.1570  0.00  0.00     0.000 OA
ATOM     51   O  A00 X   3      14.419  19.319   3.9410  0.00  0.00     0.000 OA
ATOM     52   O  A00 X   3      16.661  19.593   4.6350  0.00  0.00     0.000 OA
ATOM     53   S  A00 X   3      15.338  19.279   5.0510  0.00  0.00     0.000 S
ENDBRANCH 42 49
BRANCH 45 54
ATOM     54   C  A00 X   3      13.948  13.219   5.8640  0.00  0.00     0.000 C
ATOM     55   O  A00 X   3      12.944  13.328   5.1920  0.00  0.00     0.000 OA
ATOM     56   O  A00 X   3      14.482  12.124   5.9450  0.00  0.00     0.000 OA
ENDBRANCH 45 54
BRANCH 41 57
ATOM     57  O4  A00 X   4      15.647  14.681   3.6320  0.00  0.00     0.000 O
BRANCH 57 61
ATOM     58  C1  A00 X   4      18.328  11.919   1.6740  0.00  0.00     0.000 C
ATOM     59  C2  A00 X   4      17.244  11.353   2.6250  0.00  0.00     0.000 C
ATOM     60  C3  A00 X   4      16.139  12.370   2.9750  0.00  0.00     0.000 C
ATOM     61  C4  A00 X   4      16.728  13.734   3.3950  0.00  0.00     0.000 C
ATOM     62  C5  A00 X   4      17.609  14.211   2.2130  0.00  0.00     0.000 C
ATOM     63  O5  A00 X   4      18.698  13.273   2.0210  0.00  0.00     0.000 O
BRANCH 59 66
ATOM     64   N  A00 X   4      16.961  10.496   3.7910  0.00  0.00     0.000 N
ATOM     66  HD  A00 X   4      17.255  10.759   4.5620  0.00  0.00     0.000 HD
ATOM     66   O  A00 X   4      18.518   8.905   2.8740  0.00  0.00     0.000 OA
ATOM     67   S  A00 X   4      17.358   8.949   3.7090  0.00  0.00     0.000 S
ATOM     68   O  A00 X   4      17.585   8.666   5.0960  0.00  0.00     0.000 OA
ATOM     69   O  A00 X   4      16.138   8.401   3.1880  0.00  0.00     0.000 OA
ENDBRANCH 59 66
BRANCH 62 70
ATOM     70   C  A00 X   4      18.206  15.626   2.4010  0.00  0.00     0.000 C
ATOM     71   O  A00 X   4      21.265  16.586   4.0830  0.00  0.00     0.000 OA
ATOM     72   O  A00 X   4      19.077  17.436   4.2740  0.00  0.00     0.000 OA
ATOM     73   O  A00 X   4      19.546  15.513   2.9070  0.00  0.00     0.000 O
ATOM     74   O  A00 X   4      19.633  15.299   5.3050  0.00  0.00     0.000 OA
ATOM     75   S  A00 X   4      19.883  16.236   4.2570  0.00  0.00     0.000 S
ENDBRANCH 62 70
ENDBRANCH 57 61
ENDBRANCH 41 57
ENDBRANCH 40 44
ENDBRANCH 20 40
ENDBRANCH 19 23
ENDBRANCH 1 19
TORSDOF 14
ENDMDL
MODEL 13
REMARK VINA RESULT:      -0.2     63.038     68.039
ROOT
ATOM      1  C1  A00 X   1      21.723  44.761  61.3700  0.00  0.00     0.000 C
ATOM      2  C2  A00 X   1      23.196  45.204  61.5740  0.00  0.00     0.000 C
ATOM      3  C3  A00 X   1      23.558  45.757  62.9920  0.00  0.00     0.000 C
ATOM      4  C4  A00 X   1      22.351  46.137  63.8880  0.00  0.00     0.000 C
ATOM      5  C5  A00 X   1      21.091  46.421  63.0700  0.00  0.00     0.000 C
ATOM      6  O5  A00 X   1      20.797  45.172  62.4050  0.00  0.00     0.000 O
ATOM      7   O  A00 X   1      24.336  46.941  62.8360  0.00  0.00     0.000 O
ATOM      9  HD  A00 X   1      23.776  47.086  63.4810  0.00  0.00     0.000 HD
ATOM      9   O  A00 X   1      22.080  45.124  64.8560  0.00  0.00     0.000 O
ATOM     11  HD  A00 X   1      21.520  45.269  65.5010  0.00  0.00     0.000 HD
ENDROOT
BRANCH 2 11
ATOM     11   O  A00 X   1      24.039  44.071  61.2830  0.00  0.00     0.000 O
ATOM     12   O  A00 X   1      26.405  44.111  61.6910  0.00  0.00     0.000 OA
ATOM     13   O  A00 X   1      25.456  45.627  60.0430  0.00  0.00     0.000 OA
ATOM     14   O  A00 X   1      25.499  43.284  59.6400  0.00  0.00     0.000 OA
ATOM     15   S  A00 X   1      25.445  44.319  60.6370  0.00  0.00     0.000 S
ENDBRANCH 2 11
BRANCH 5 16
ATOM     16   C  A00 X   1      21.194  47.615  62.1150  0.00  0.00     0.000 C
ATOM     17   O  A00 X   1      20.321  47.773  61.2870  0.00  0.00     0.000 OA
ATOM     18   O  A00 X   1      22.112  48.410  62.1630  0.00  0.00     0.000 OA
ENDBRANCH 5 16
BRANCH 1 19
ATOM     19  O4  A00 X   2      21.218  45.083  60.0510  0.00  0.00     0.000 O
BRANCH 19 23
ATOM     20  C1  A00 X   2      19.051  41.407  59.6480  0.00  0.00     0.000 C
ATOM     21  C2  A00 X   2      20.446  41.492  58.9810  0.00  0.00     0.000 C
ATOM     22  C3  A00 X   2      21.262  42.665  59.5620  0.00  0.00     0.000 C
ATOM     23  C4  A00 X   2      20.466  43.986  59.4570  0.00  0.00     0.000 C
ATOM     24  C5  A00 X   2      19.090  43.766  60.1420  0.00  0.00     0.000 C
ATOM     25  O5  A00 X   2      18.395  42.689  59.4600  0.00  0.00     0.000 O
ATOM     26   O  A00 X   2      22.569  42.659  58.9620  0.00  0.00     0.000 O
ATOM     28  HD  A00 X   2      22.254  42.609  58.1570  0.00  0.00     0.000 HD
BRANCH 21 30
ATOM     28   N  A00 X   2      19.939  40.639  57.9010  0.00  0.00     0.000 N
ATOM     30  HD  A00 X   2      20.803  40.634  57.8400  0.00  0.00     0.000 HD
ATOM     30   O  A00 X   2      21.713  39.343  57.1050  0.00  0.00     0.000 OA
ATOM     31   S  A00 X   2      20.861  40.381  56.6430  0.00  0.00     0.000 S
ATOM     32   O  A00 X   2      19.939  39.996  55.6200  0.00  0.00     0.000 OA
ATOM     33   O  A00 X   2      21.481  41.629  56.3090  0.00  0.00     0.000 OA
ENDBRANCH 21 30
BRANCH 24 34
ATOM     34   C  A00 X   2      18.191  45.002  60.3780  0.00  0.00     0.000 C
ATOM     35   O  A00 X   2      14.880  45.425  58.9220  0.00  0.00     0.000 OA
ATOM     36   O  A00 X   2      17.119  45.059  59.4150  0.00  0.00     0.000 O
ATOM     37   O  A00 X   2      15.517  43.566  60.2380  0.00  0.00     0.000 OA
ATOM     38   S  A00 X   2      15.669  44.972  60.0200  0.00  0.00     0.000 S
ATOM     39   O  A00 X   2      15.658  45.827  61.1690  0.00  0.00     0.000 OA
ENDBRANCH 24 34
BRANCH 20 40
ATOM     40  O4  A00 X   3      19.302  41.197  61.0450  0.00  0.00     0.000 O
BRANCH 40 44
ATOM     41  C1  A00 X   3      18.470  42.113  64.4500  0.00  0.00     0.000 C
ATOM     42  C2  A00 X   3      19.564  41.098  64.0540  0.00  0.00     0.000 C
ATOM     43  C3  A00 X   3      19.008  40.039  63.0680  0.00  0.00     0.000 C
ATOM     44  C4  A00 X   3      18.267  40.617  61.8690  0.00  0.00     0.000 C
ATOM     45  C5  A00 X   3      17.183  41.623  62.3480  0.00  0.00     0.000 C
ATOM     46  O5  A00 X   3      17.749  42.596  63.2840  0.00  0.00     0.000 O
ATOM     47   O  A00 X   3      19.909  38.997  62.7000  0.00  0.00     0.000 O
ATOM     49  HD  A00 X   3      19.540  39.105  61.9240  0.00  0.00     0.000 HD
BRANCH 42 49
ATOM     49   O  A00 X   3      20.647  41.851  63.4650  0.00  0.00     0.000 O
ATOM     50   O  A00 X   3      22.759  41.349  62.4550  0.00  0.00     0.000 OA
ATOM     51   O  A00 X   3      22.111  40.164  64.3960  0.00  0.00     0.000 OA
ATOM     52   O  A00 X   3      22.611  42.466  64.5950  0.00  0.00     0.000 OA
ATOM     53   S  A00 X   3      22.125  41.444  63.7330  0.00  0.00     0.000 S
ENDBRANCH 42 49
BRANCH 45 54
ATOM     54   C  A00 X   3      15.947  40.903  62.9010  0.00  0.00     0.000 C
ATOM     55   O  A00 X   3      14.929  41.519  63.1430  0.00  0.00     0.000 OA
ATOM     56   O  A00 X   3      15.964  39.700  63.1080  0.00  0.00     0.000 OA
ENDBRANCH 45 54
BRANCH 41 57
ATOM     57  O4  A00 X   4      17.617  41.596  65.4960  0.00  0.00     0.000 O
BRANCH 57 61
ATOM     58  C1  A00 X   4      15.555  43.466  68.7970  0.00  0.00     0.000 C
ATOM     59  C2  A00 X   4      15.188  43.895  67.3540  0.00  0.00     0.000 C
ATOM     60  C3  A00 X   4      15.710  42.928  66.2730  0.00  0.00     0.000 C
ATOM     61  C4  A00 X   4      17.197  42.574  66.4900  0.00  0.00     0.000 C
ATOM     62  C5  A00 X   4      17.297  41.968  67.9130  0.00  0.00     0.000 C
ATOM     63  O5  A00 X   4      16.911  42.972  68.8860  0.00  0.00     0.000 O
BRANCH 59 66
ATOM     64   N  A00 X   4      15.809  45.200  67.0610  0.00  0.00     0.000 N
ATOM     66  HD  A00 X   4      16.537  45.400  67.4850  0.00  0.00     0.000 HD
ATOM     66   O  A00 X   4      13.950  46.227  68.1950  0.00  0.00     0.000 OA
ATOM     67   S  A00 X   4      14.900  46.512  67.1660  0.00  0.00     0.000 S
ATOM     68   O  A00 X   4      15.895  47.489  67.4980  0.00  0.00     0.000 OA
ATOM     69   O  A00 X   4      14.420  46.596  65.8160  0.00  0.00     0.000 OA
ENDBRANCH 59 66
BRANCH 62 70
ATOM     70   C  A00 X   4      18.707  41.445  68.2790  0.00  0.00     0.000 C
ATOM     71   O  A00 X   4      21.730  43.337  68.9010  0.00  0.00     0.000 OA
ATOM     72   O  A00 X   4      21.347  41.467  67.5220  0.00  0.00     0.000 OA
ATOM     73   O  A00 X   4      19.535  42.550  68.6760  0.00  0.00     0.000 O
ATOM     74   O  A00 X   4      20.575  43.666  66.8100  0.00  0.00     0.000 OA
ATOM     75   S  A00 X   4      20.873  42.782  67.8910  0.00  0.00     0.000 S
ENDBRANCH 62 70
ENDBRANCH 57 61
ENDBRANCH 41 57
ENDBRANCH 40 44
ENDBRANCH 20 40
ENDBRANCH 19 23
ENDBRANCH 1 19
TORSDOF 14
ENDMDL
MODEL 14
REMARK VINA RESULT:      -0.2     63.883     68.192
ROOT
ATOM      1  C1  A00 X   1      36.219  64.754  38.6620  0.00  0.00     0.000 C
ATOM      2  C2  A00 X   1      36.708  66.074  39.3150  0.00  0.00     0.000 C
ATOM      3  C3  A00 X   1      37.485  65.927  40.6640  0.00  0.00     0.000 C
ATOM      4  C4  A00 X   1      37.355  64.549  41.3630  0.00  0.00     0.000 C
ATOM      5  C5  A00 X   1      36.101  63.794  40.9230  0.00  0.00     0.000 C
ATOM      6  O5  A00 X   1      36.283  63.578  39.5050  0.00  0.00     0.000 O
ATOM      7   O  A00 X   1      36.991  66.896  41.5860  0.00  0.00     0.000 O
ATOM      9  HD  A00 X   1      37.104  66.159  42.0270  0.00  0.00     0.000 HD
ATOM      9   O  A00 X   1      38.509  63.739  41.1390  0.00  0.00     0.000 O
ATOM     11  HD  A00 X   1      38.623  63.003  41.5800  0.00  0.00     0.000 HD
ENDROOT
BRANCH 2 11
ATOM     11   O  A00 X   1      37.550  66.751  38.3600  0.00  0.00     0.000 O
ATOM     12   O  A00 X   1      38.791  68.724  38.9350  0.00  0.00     0.000 OA
ATOM     13   O  A00 X   1      36.359  68.793  38.9760  0.00  0.00     0.000 OA
ATOM     14   O  A00 X   1      37.525  68.582  36.9130  0.00  0.00     0.000 OA
ATOM     15   S  A00 X   1      37.550  68.318  38.3260  0.00  0.00     0.000 S
ENDBRANCH 2 11
BRANCH 5 16
ATOM     16   C  A00 X   1      34.776  64.478  41.2740  0.00  0.00     0.000 C
ATOM     17   O  A00 X   1      33.754  64.057  40.7720  0.00  0.00     0.000 OA
ATOM     18   O  A00 X   1      34.712  65.420  42.0390  0.00  0.00     0.000 OA
ENDBRANCH 5 16
BRANCH 1 19
ATOM     19  O4  A00 X   2      34.920  64.886  38.0350  0.00  0.00     0.000 O
BRANCH 19 23
ATOM     20  C1  A00 X   2      35.965  62.463  34.6590  0.00  0.00     0.000 C
ATOM     21  C2  A00 X   2      36.036  63.999  34.4850  0.00  0.00     0.000 C
ATOM     22  C3  A00 X   2      36.062  64.706  35.8560  0.00  0.00     0.000 C
ATOM     23  C4  A00 X   2      34.865  64.255  36.7230  0.00  0.00     0.000 C
ATOM     24  C5  A00 X   2      34.896  62.705  36.8050  0.00  0.00     0.000 C
ATOM     25  O5  A00 X   2      34.792  62.164  35.4620  0.00  0.00     0.000 O
ATOM     26   O  A00 X   2      36.197  66.122  35.6420  0.00  0.00     0.000 O
ATOM     28  HD  A00 X   2      35.548  66.148  35.0700  0.00  0.00     0.000 HD
BRANCH 21 30
ATOM     28   N  A00 X   2      35.609  63.821  33.0940  0.00  0.00     0.000 N
ATOM     30  HD  A00 X   2      35.923  64.625  33.1580  0.00  0.00     0.000 HD
ATOM     30   O  A00 X   2      36.576  65.518  31.8130  0.00  0.00     0.000 OA
ATOM     31   S  A00 X   2      35.283  65.104  32.2300  0.00  0.00     0.000 S
ATOM     32   O  A00 X   2      34.443  64.605  31.1860  0.00  0.00     0.000 OA
ATOM     33   O  A00 X   2      34.552  66.005  33.0690  0.00  0.00     0.000 OA
ENDBRANCH 21 30
BRANCH 24 34
ATOM     34   C  A00 X   2      33.939  62.011  37.8030  0.00  0.00     0.000 C
ATOM     35   O  A00 X   2      30.317  62.382  37.7510  0.00  0.00     0.000 OA
ATOM     36   O  A00 X   2      32.627  62.608  37.7700  0.00  0.00     0.000 O
ATOM     37   O  A00 X   2      31.597  61.648  35.9030  0.00  0.00     0.000 OA
ATOM     38   S  A00 X   2      31.464  61.647  37.3280  0.00  0.00     0.000 S
ATOM     39   O  A00 X   2      31.678  60.409  38.0140  0.00  0.00     0.000 OA
ENDBRANCH 24 34
BRANCH 20 40
ATOM     40  O4  A00 X   3      37.148  62.099  35.3850  0.00  0.00     0.000 O
BRANCH 40 44
ATOM     41  C1  A00 X   3      38.567  60.154  38.0920  0.00  0.00     0.000 C
ATOM     42  C2  A00 X   3      39.364  61.125  37.1940  0.00  0.00     0.000 C
ATOM     43  C3  A00 X   3      39.104  60.834  35.6930  0.00  0.00     0.000 C
ATOM     44  C4  A00 X   3      37.632  60.741  35.3120  0.00  0.00     0.000 C
ATOM     45  C5  A00 X   3      36.901  59.744  36.2550  0.00  0.00     0.000 C
ATOM     46  O5  A00 X   3      37.182  60.049  37.6590  0.00  0.00     0.000 O
ATOM     47   O  A00 X   3      39.856  61.616  34.7680  0.00  0.00     0.000 O
ATOM     49  HD  A00 X   3      39.110  61.609  34.3280  0.00  0.00     0.000 HD
BRANCH 42 49
ATOM     49   O  A00 X   3      38.955  62.464  37.5510  0.00  0.00     0.000 O
ATOM     50   O  A00 X   3      39.461  64.685  36.8130  0.00  0.00     0.000 OA
ATOM     51   O  A00 X   3      41.223  63.123  37.0220  0.00  0.00     0.000 OA
ATOM     52   O  A00 X   3      40.153  63.883  38.9880  0.00  0.00     0.000 OA
ATOM     53   S  A00 X   3      39.998  63.618  37.5990  0.00  0.00     0.000 S
ENDBRANCH 42 49
BRANCH 45 54
ATOM     54   C  A00 X   3      37.200  58.287  35.8830  0.00  0.00     0.000 C
ATOM     55   O  A00 X   3      36.581  57.377  36.3950  0.00  0.00     0.000 OA
ATOM     56   O  A00 X   3      38.068  58.016  35.0670  0.00  0.00     0.000 OA
ENDBRANCH 45 54
BRANCH 41 57
ATOM     57  O4  A00 X   4      39.238  58.881  38.2280  0.00  0.00     0.000 O
BRANCH 57 61
ATOM     58  C1  A00 X   4      39.469  56.013  41.4470  0.00  0.00     0.000 C
ATOM     59  C2  A00 X   4      38.082  56.330  40.8350  0.00  0.00     0.000 C
ATOM     60  C3  A00 X   4      38.161  57.073  39.4850  0.00  0.00     0.000 C
ATOM     61  C4  A00 X   4      39.137  58.268  39.5450  0.00  0.00     0.000 C
ATOM     62  C5  A00 X   4      40.508  57.689  39.9730  0.00  0.00     0.000 C
ATOM     63  O5  A00 X   4      40.391  57.118  41.3010  0.00  0.00     0.000 O
BRANCH 59 66
ATOM     64   N  A00 X   4      37.296  57.217  41.7110  0.00  0.00     0.000 N
ATOM     66  HD  A00 X   4      37.733  57.763  42.2230  0.00  0.00     0.000 HD
ATOM     66   O  A00 X   4      36.710  55.265  42.9930  0.00  0.00     0.000 OA
ATOM     67   S  A00 X   4      36.195  56.557  42.6650  0.00  0.00     0.000 S
ATOM     68   O  A00 X   4      36.181  57.507  43.7400  0.00  0.00     0.000 OA
ATOM     69   O  A00 X   4      35.046  56.623  41.8080  0.00  0.00     0.000 OA
ENDBRANCH 59 66
BRANCH 62 70
ATOM     70   C  A00 X   4      41.656  58.726  39.9840  0.00  0.00     0.000 C
ATOM     71   O  A00 X   4      42.172  61.505  42.2460  0.00  0.00     0.000 OA
ATOM     72   O  A00 X   4      42.219  61.413  39.8940  0.00  0.00     0.000 OA
ATOM     73   O  A00 X   4      41.593  59.492  41.1980  0.00  0.00     0.000 O
ATOM     74   O  A00 X   4      40.079  61.360  41.0580  0.00  0.00     0.000 OA
ATOM     75   S  A00 X   4      41.472  61.050  41.0780  0.00  0.00     0.000 S
ENDBRANCH 62 70
ENDBRANCH 57 61
ENDBRANCH 41 57
ENDBRANCH 40 44
ENDBRANCH 20 40
ENDBRANCH 19 23
ENDBRANCH 1 19
TORSDOF 14
ENDMDL
MODEL 15
REMARK VINA RESULT:      -0.2     54.466     58.725
ROOT
ATOM      1  C1  A00 X   1      56.853  42.711  28.1210  0.00  0.00     0.000 C
ATOM      2  C2  A00 X   1      58.052  43.695  28.1730  0.00  0.00     0.000 C
ATOM      3  C3  A00 X   1      58.531  44.120  29.6000  0.00  0.00     0.000 C
ATOM      4  C4  A00 X   1      57.543  43.814  30.7550  0.00  0.00     0.000 C
ATOM      5  C5  A00 X   1      56.105  43.666  30.2600  0.00  0.00     0.000 C
ATOM      6  O5  A00 X   1      56.139  42.529  29.3690  0.00  0.00     0.000 O
ATOM      7   O  A00 X   1      58.742  45.530  29.6100  0.00  0.00     0.000 O
ATOM      9  HD  A00 X   1      58.354  45.325  30.3560  0.00  0.00     0.000 HD
ATOM      9   O  A00 X   1      57.929  42.644  31.4750  0.00  0.00     0.000 O
ATOM     11  HD  A00 X   1      57.541  42.438  32.2220  0.00  0.00     0.000 HD
ENDROOT
BRANCH 2 11
ATOM     11   O  A00 X   1      59.152  43.081  27.4720  0.00  0.00     0.000 O
ATOM     12   O  A00 X   1      61.352  44.045  27.4700  0.00  0.00     0.000 OA
ATOM     13   O  A00 X   1      59.518  45.262  26.4340  0.00  0.00     0.000 OA
ATOM     14   O  A00 X   1      60.328  43.248  25.4620  0.00  0.00     0.000 OA
ATOM     15   S  A00 X   1      60.149  43.994  26.6780  0.00  0.00     0.000 S
ENDBRANCH 2 11
BRANCH 5 16
ATOM     16   C  A00 X   1      55.504  44.925  29.6260  0.00  0.00     0.000 C
ATOM     17   O  A00 X   1      54.468  44.824  29.0030  0.00  0.00     0.000 OA
ATOM     18   O  A00 X   1      56.024  46.018  29.7300  0.00  0.00     0.000 OA
ENDBRANCH 5 16
BRANCH 1 19
ATOM     19  O4  A00 X   2      55.944  42.992  27.0280  0.00  0.00     0.000 O
BRANCH 19 23
ATOM     20  C1  A00 X   2      55.281  38.858  26.1130  0.00  0.00     0.000 C
ATOM     21  C2  A00 X   2      56.320  39.622  25.2580  0.00  0.00     0.000 C
ATOM     22  C3  A00 X   2      56.760  40.924  25.9590  0.00  0.00     0.000 C
ATOM     23  C4  A00 X   2      55.531  41.788  26.3220  0.00  0.00     0.000 C
ATOM     24  C5  A00 X   2      54.562  40.907  27.1580  0.00  0.00     0.000 C
ATOM     25  O5  A00 X   2      54.169  39.759  26.3630  0.00  0.00     0.000 O
ATOM     26   O  A00 X   2      57.772  41.559  25.1600  0.00  0.00     0.000 O
ATOM     28  HD  A00 X   2      57.303  41.507  24.4340  0.00  0.00     0.000 HD
BRANCH 21 30
ATOM     28   N  A00 X   2      55.909  38.813  24.1060  0.00  0.00     0.000 N
ATOM     30  HD  A00 X   2      56.665  39.181  23.8970  0.00  0.00     0.000 HD
ATOM     30   O  A00 X   2      57.768  38.522  22.7210  0.00  0.00     0.000 OA
ATOM     31   S  A00 X   2      56.502  39.163  22.6830  0.00  0.00     0.000 S
ATOM     32   O  A00 X   2      55.561  38.588  21.7730  0.00  0.00     0.000 OA
ATOM     33   O  A00 X   2      56.500  40.591  22.5630  0.00  0.00     0.000 OA
ENDBRANCH 21 30
BRANCH 24 34
ATOM     34   C  A00 X   2      53.360  41.600  27.8430  0.00  0.00     0.000 C
ATOM     35   O  A00 X   2      49.877  40.902  27.0420  0.00  0.00     0.000 OA
ATOM     36   O  A00 X   2      52.145  41.396  27.0950  0.00  0.00     0.000 O
ATOM     37   O  A00 X   2      51.436  39.253  27.7080  0.00  0.00     0.000 OA
ATOM     38   S  A00 X   2      51.013  40.612  27.8550  0.00  0.00     0.000 S
ATOM     39   O  A00 X   2      50.965  41.153  29.1800  0.00  0.00     0.000 OA
ENDBRANCH 24 34
BRANCH 20 40
ATOM     40  O4  A00 X   3      55.943  38.559  27.3510  0.00  0.00     0.000 O
BRANCH 40 44
ATOM     41  C1  A00 X   3      55.763  38.479  30.9690  0.00  0.00     0.000 C
ATOM     42  C2  A00 X   3      57.008  38.095  30.1400  0.00  0.00     0.000 C
ATOM     43  C3  A00 X   3      56.644  37.074  29.0310  0.00  0.00     0.000 C
ATOM     44  C4  A00 X   3      55.453  37.474  28.1690  0.00  0.00     0.000 C
ATOM     45  C5  A00 X   3      54.242  37.841  29.0720  0.00  0.00     0.000 C
ATOM     46  O5  A00 X   3      54.633  38.797  30.1090  0.00  0.00     0.000 O
ATOM     47   O  A00 X   3      57.735  36.580  28.2570  0.00  0.00     0.000 O
ATOM     49  HD  A00 X   3      57.161  36.648  27.6120  0.00  0.00     0.000 HD
BRANCH 42 49
ATOM     49   O  A00 X   3      57.538  39.316  29.5810  0.00  0.00     0.000 O
ATOM     50   O  A00 X   3      59.334  39.914  28.1160  0.00  0.00     0.000 OA
ATOM     51   O  A00 X   3      59.711  38.269  29.7720  0.00  0.00     0.000 OA
ATOM     52   O  A00 X   3      59.363  40.503  30.4610  0.00  0.00     0.000 OA
ATOM     53   S  A00 X   3      59.076  39.527  29.4670  0.00  0.00     0.000 S
ENDBRANCH 42 49
BRANCH 45 54
ATOM     54   C  A00 X   3      53.553  36.591  29.6320  0.00  0.00     0.000 C
ATOM     55   O  A00 X   3      52.512  36.683  30.2510  0.00  0.00     0.000 OA
ATOM     56   O  A00 X   3      54.038  35.483  29.4680  0.00  0.00     0.000 OA
ENDBRANCH 45 54
BRANCH 41 57
ATOM     57  O4  A00 X   4      55.469  37.492  31.9820  0.00  0.00     0.000 O
BRANCH 57 61
ATOM     58  C1  A00 X   4      53.830  37.766  35.9670  0.00  0.00     0.000 C
ATOM     59  C2  A00 X   4      52.956  38.223  34.7720  0.00  0.00     0.000 C
ATOM     60  C3  A00 X   4      53.489  37.752  33.4040  0.00  0.00     0.000 C
ATOM     61  C4  A00 X   4      55.000  38.029  33.2510  0.00  0.00     0.000 C
ATOM     62  C5  A00 X   4      55.697  37.305  34.4300  0.00  0.00     0.000 C
ATOM     63  O5  A00 X   4      55.243  37.883  35.6810  0.00  0.00     0.000 O
BRANCH 59 66
ATOM     64   N  A00 X   4      52.921  39.695  34.6900  0.00  0.00     0.000 N
ATOM     66  HD  A00 X   4      53.605  40.129  34.9970  0.00  0.00     0.000 HD
ATOM     66   O  A00 X   4      51.215  39.649  36.3890  0.00  0.00     0.000 OA
ATOM     67   S  A00 X   4      51.650  40.457  35.2930  0.00  0.00     0.000 S
ATOM     68   O  A00 X   4      52.246  41.711  35.6500  0.00  0.00     0.000 OA
ATOM     69   O  A00 X   4      50.813  40.513  34.1280  0.00  0.00     0.000 OA
ENDBRANCH 59 66
BRANCH 62 70
ATOM     70   C  A00 X   4      57.243  37.374  34.3890  0.00  0.00     0.000 C
ATOM     71   O  A00 X   4      59.392  40.242  34.9040  0.00  0.00     0.000 OA
ATOM     72   O  A00 X   4      59.377  38.624  33.1940  0.00  0.00     0.000 OA
ATOM     73   O  A00 X   4      57.674  38.649  34.8930  0.00  0.00     0.000 O
ATOM     74   O  A00 X   4      57.681  40.374  33.2100  0.00  0.00     0.000 OA
ATOM     75   S  A00 X   4      58.565  39.542  33.9610  0.00  0.00     0.000 S
ENDBRANCH 62 70
ENDBRANCH 57 61
ENDBRANCH 41 57
ENDBRANCH 40 44
ENDBRANCH 20 40
ENDBRANCH 19 23
ENDBRANCH 1 19
TORSDOF 14
ENDMDL
MODEL 16
REMARK VINA RESULT:      -0.2     61.461     66.699
ROOT
ATOM      1  C1  A00 X   1      55.412  40.836  41.5580  0.00  0.00     0.000 C
ATOM      2  C2  A00 X   1      56.499  39.745  41.3610  0.00  0.00     0.000 C
ATOM      3  C3  A00 X   1      57.949  40.263  41.0840  0.00  0.00     0.000 C
ATOM      4  C4  A00 X   1      58.060  41.755  40.6770  0.00  0.00     0.000 C
ATOM      5  C5  A00 X   1      56.751  42.295  40.1000  0.00  0.00     0.000 C
ATOM      6  O5  A00 X   1      55.798  42.180  41.1810  0.00  0.00     0.000 O
ATOM      7   O  A00 X   1      58.506  39.508  40.0100  0.00  0.00     0.000 O
ATOM      9  HD  A00 X   1      58.734  40.335  39.8860  0.00  0.00     0.000 HD
ATOM      9   O  A00 X   1      58.473  42.566  41.7760  0.00  0.00     0.000 O
ATOM     11  HD  A00 X   1      58.701  43.393  41.6530  0.00  0.00     0.000 HD
ENDROOT
BRANCH 2 11
ATOM     11   O  A00 X   1      56.513  38.922  42.5440  0.00  0.00     0.000 O
ATOM     12   O  A00 X   1      58.195  37.246  42.9050  0.00  0.00     0.000 OA
ATOM     13   O  A00 X   1      56.659  37.008  41.0330  0.00  0.00     0.000 OA
ATOM     14   O  A00 X   1      55.876  36.796  43.2690  0.00  0.00     0.000 OA
ATOM     15   S  A00 X   1      56.853  37.398  42.4030  0.00  0.00     0.000 S
ENDBRANCH 2 11
BRANCH 5 16
ATOM     16   C  A00 X   1      56.289  41.623  38.8030  0.00  0.00     0.000 C
ATOM     17   O  A00 X   1      55.164  41.842  38.4040  0.00  0.00     0.000 OA
ATOM     18   O  A00 X   1      57.009  40.888  38.1580  0.00  0.00     0.000 OA
ENDBRANCH 5 16
BRANCH 1 19
ATOM     19  O4  A00 X   2      54.138  40.469  40.9740  0.00  0.00     0.000 O
BRANCH 19 23
ATOM     20  C1  A00 X   2      51.840  42.111  44.1970  0.00  0.00     0.000 C
ATOM     21  C2  A00 X   2      52.114  40.588  44.2190  0.00  0.00     0.000 C
ATOM     22  C3  A00 X   2      53.279  40.226  43.2740  0.00  0.00     0.000 C
ATOM     23  C4  A00 X   2      53.014  40.768  41.8520  0.00  0.00     0.000 C
ATOM     24  C5  A00 X   2      52.737  42.292  41.9680  0.00  0.00     0.000 C
ATOM     25  O5  A00 X   2      51.579  42.492  42.8200  0.00  0.00     0.000 O
ATOM     26   O  A00 X   2      53.540  38.816  43.3820  0.00  0.00     0.000 O
ATOM     28  HD  A00 X   2      52.708  38.603  43.2670  0.00  0.00     0.000 HD
BRANCH 21 30
ATOM     28   N  A00 X   2      50.791  40.396  44.8210  0.00  0.00     0.000 N
ATOM     30  HD  A00 X   2      51.231  39.660  44.9420  0.00  0.00     0.000 HD
ATOM     30   O  A00 X   2      50.896  38.535  46.2290  0.00  0.00     0.000 OA
ATOM     31   S  A00 X   2      50.257  38.922  45.0220  0.00  0.00     0.000 S
ATOM     32   O  A00 X   2      48.839  39.085  45.1150  0.00  0.00     0.000 OA
ATOM     33   O  A00 X   2      50.596  38.183  43.8420  0.00  0.00     0.000 OA
ENDBRANCH 21 30
BRANCH 24 34
ATOM     34   C  A00 X   2      52.667  43.119  40.6620  0.00  0.00     0.000 C
ATOM     35   O  A00 X   2      50.350  42.439  37.9370  0.00  0.00     0.000 OA
ATOM     36   O  A00 X   2      51.926  42.421  39.6410  0.00  0.00     0.000 O
ATOM     37   O  A00 X   2      49.684  42.819  40.1750  0.00  0.00     0.000 OA
ATOM     38   S  A00 X   2      50.622  43.147  39.1450  0.00  0.00     0.000 S
ATOM     39   O  A00 X   2      50.966  44.527  38.9760  0.00  0.00     0.000 OA
ENDBRANCH 24 34
BRANCH 20 40
ATOM     40  O4  A00 X   3      53.055  42.731  44.6440  0.00  0.00     0.000 O
BRANCH 40 44
ATOM     41  C1  A00 X   3      55.486  45.370  44.1460  0.00  0.00     0.000 C
ATOM     42  C2  A00 X   3      55.584  44.276  45.2320  0.00  0.00     0.000 C
ATOM     43  C3  A00 X   3      54.266  44.179  46.0420  0.00  0.00     0.000 C
ATOM     44  C4  A00 X   3      53.007  44.065  45.1920  0.00  0.00     0.000 C
ATOM     45  C5  A00 X   3      52.978  45.200  44.1300  0.00  0.00     0.000 C
ATOM     46  O5  A00 X   3      54.244  45.261  43.3960  0.00  0.00     0.000 O
ATOM     47   O  A00 X   3      54.271  43.259  47.1320  0.00  0.00     0.000 O
ATOM     49  HD  A00 X   3      53.465  43.103  46.8580  0.00  0.00     0.000 HD
BRANCH 42 49
ATOM     49   O  A00 X   3      55.881  43.035  44.5560  0.00  0.00     0.000 O
ATOM     50   O  A00 X   3      56.166  40.743  45.1890  0.00  0.00     0.000 OA
ATOM     51   O  A00 X   3      57.105  42.429  46.5550  0.00  0.00     0.000 OA
ATOM     52   O  A00 X   3      58.022  42.081  44.4040  0.00  0.00     0.000 OA
ATOM     53   S  A00 X   3      56.848  42.000  45.2030  0.00  0.00     0.000 S
ENDBRANCH 42 49
BRANCH 45 54
ATOM     54   C  A00 X   3      52.571  46.544  44.7450  0.00  0.00     0.000 C
ATOM     55   O  A00 X   3      52.300  47.492  44.0370  0.00  0.00     0.000 OA
ATOM     56   O  A00 X   3      52.513  46.685  45.9570  0.00  0.00     0.000 OA
ENDBRANCH 45 54
BRANCH 41 57
ATOM     57  O4  A00 X   4      55.730  46.686  44.6900  0.00  0.00     0.000 O
BRANCH 57 61
ATOM     58  C1  A00 X   4      57.563  50.243  43.0680  0.00  0.00     0.000 C
ATOM     59  C2  A00 X   4      56.286  49.690  42.3860  0.00  0.00     0.000 C
ATOM     60  C3  A00 X   4      55.529  48.657  43.2460  0.00  0.00     0.000 C
ATOM     61  C4  A00 X   4      56.478  47.584  43.8220  0.00  0.00     0.000 C
ATOM     62  C5  A00 X   4      57.553  48.346  44.6380  0.00  0.00     0.000 C
ATOM     63  O5  A00 X   4      58.308  49.205  43.7460  0.00  0.00     0.000 O
BRANCH 59 66
ATOM     64   N  A00 X   4      56.635  48.982  41.1410  0.00  0.00     0.000 N
ATOM     66  HD  A00 X   4      57.421  48.620  41.0940  0.00  0.00     0.000 HD
ATOM     66   O  A00 X   4      56.713  51.132  40.0590  0.00  0.00     0.000 OA
ATOM     67   S  A00 X   4      56.459  49.759  39.7540  0.00  0.00     0.000 S
ATOM     68   O  A00 X   4      57.463  49.107  38.9640  0.00  0.00     0.000 OA
ATOM     69   O  A00 X   4      55.114  49.383  39.4230  0.00  0.00     0.000 OA
ENDBRANCH 59 66
BRANCH 62 70
ATOM     70   C  A00 X   4      58.543  47.428  45.3920  0.00  0.00     0.000 C
ATOM     71   O  A00 X   4      61.117  45.277  44.0290  0.00  0.00     0.000 OA
ATOM     72   O  A00 X   4      59.436  44.840  45.6190  0.00  0.00     0.000 OA
ATOM     73   O  A00 X   4      59.543  46.953  44.4750  0.00  0.00     0.000 O
ATOM     74   O  A00 X   4      58.850  44.992  43.2580  0.00  0.00     0.000 OA
ATOM     75   S  A00 X   4      59.716  45.403  44.3160  0.00  0.00     0.000 S
ENDBRANCH 62 70
ENDBRANCH 57 61
ENDBRANCH 41 57
ENDBRANCH 40 44
ENDBRANCH 20 40
ENDBRANCH 19 23
ENDBRANCH 1 19
TORSDOF 14
ENDMDL
MODEL 17
REMARK VINA RESULT:      -0.2     28.833     33.593
ROOT
ATOM      1  C1  A00 X   1      37.688  24.382  22.0110  0.00  0.00     0.000 C
ATOM      2  C2  A00 X   1      38.963  24.522  22.8850  0.00  0.00     0.000 C
ATOM      3  C3  A00 X   1      39.975  25.634  22.4510  0.00  0.00     0.000 C
ATOM      4  C4  A00 X   1      39.773  26.200  21.0220  0.00  0.00     0.000 C
ATOM      5  C5  A00 X   1      39.010  25.231  20.1190  0.00  0.00     0.000 C
ATOM      6  O5  A00 X   1      37.716  25.088  20.7460  0.00  0.00     0.000 O
ATOM      7   O  A00 X   1      41.293  25.093  22.4910  0.00  0.00     0.000 O
ATOM      9  HD  A00 X   1      41.237  25.577  21.7750  0.00  0.00     0.000 HD
ATOM      9   O  A00 X   1      39.105  27.461  21.0500  0.00  0.00     0.000 O
ATOM     11  HD  A00 X   1      39.049  27.946  20.3340  0.00  0.00     0.000 HD
ENDROOT
BRANCH 2 11
ATOM     11   O  A00 X   1      38.541  24.774  24.2390  0.00  0.00     0.000 O
ATOM     12   O  A00 X   1      40.107  25.306  25.9800  0.00  0.00     0.000 OA
ATOM     13   O  A00 X   1      40.209  23.122  24.9130  0.00  0.00     0.000 OA
ATOM     14   O  A00 X   1      38.368  23.699  26.3050  0.00  0.00     0.000 OA
ATOM     15   S  A00 X   1      39.390  24.189  25.4200  0.00  0.00     0.000 S
ENDBRANCH 2 11
BRANCH 5 16
ATOM     16   C  A00 X   1      39.716  23.897  19.8590  0.00  0.00     0.000 C
ATOM     17   O  A00 X   1      39.092  23.004  19.3220  0.00  0.00     0.000 OA
ATOM     18   O  A00 X   1      40.876  23.702  20.1630  0.00  0.00     0.000 OA
ENDBRANCH 5 16
BRANCH 1 19
ATOM     19  O4  A00 X   2      37.274  23.005  21.8380  0.00  0.00     0.000 O
BRANCH 19 23
ATOM     20  C1  A00 X   2      33.096  23.900  22.1640  0.00  0.00     0.000 C
ATOM     21  C2  A00 X   2      33.814  23.368  23.4280  0.00  0.00     0.000 C
ATOM     22  C3  A00 X   2      35.344  23.506  23.2910  0.00  0.00     0.000 C
ATOM     23  C4  A00 X   2      35.837  22.829  21.9920  0.00  0.00     0.000 C
ATOM     24  C5  A00 X   2      35.032  23.433  20.8080  0.00  0.00     0.000 C
ATOM     25  O5  A00 X   2      33.620  23.172  21.0210  0.00  0.00     0.000 O
ATOM     26   O  A00 X   2      35.959  23.065  24.5130  0.00  0.00     0.000 O
ATOM     28  HD  A00 X   2      35.516  22.321  24.5260  0.00  0.00     0.000 HD
BRANCH 21 30
ATOM     28   N  A00 X   2      32.576  22.672  23.7920  0.00  0.00     0.000 N
ATOM     30  HD  A00 X   2      33.072  22.687  24.5010  0.00  0.00     0.000 HD
ATOM     30   O  A00 X   2      32.444  22.592  26.1230  0.00  0.00     0.000 OA
ATOM     31   S  A00 X   2      32.592  21.694  25.0340  0.00  0.00     0.000 S
ATOM     32   O  A00 X   2      31.473  20.834  24.8030  0.00  0.00     0.000 OA
ATOM     33   O  A00 X   2      33.814  20.948  24.9690  0.00  0.00     0.000 OA
ENDBRANCH 21 30
BRANCH 24 34
ATOM     34   C  A00 X   2      35.491  23.092  19.3700  0.00  0.00     0.000 C
ATOM     35   O  A00 X   2      35.796  19.703  18.0750  0.00  0.00     0.000 OA
ATOM     36   O  A00 X   2      35.854  21.702  19.2530  0.00  0.00     0.000 O
ATOM     37   O  A00 X   2      33.813  20.585  19.0140  0.00  0.00     0.000 OA
ATOM     38   S  A00 X   2      34.987  20.864  18.2440  0.00  0.00     0.000 S
ATOM     39   O  A00 X   2      34.834  21.674  17.0730  0.00  0.00     0.000 OA
ENDBRANCH 24 34
BRANCH 20 40
ATOM     40  O4  A00 X   3      33.464  25.283  22.0620  0.00  0.00     0.000 O
BRANCH 40 44
ATOM     41  C1  A00 X   3      34.573  27.986  19.9200  0.00  0.00     0.000 C
ATOM     42  C2  A00 X   3      34.353  28.104  21.4440  0.00  0.00     0.000 C
ATOM     43  C3  A00 X   3      32.956  27.567  21.8470  0.00  0.00     0.000 C
ATOM     44  C4  A00 X   3      32.629  26.182  21.3020  0.00  0.00     0.000 C
ATOM     45  C5  A00 X   3      32.869  26.144  19.7660  0.00  0.00     0.000 C
ATOM     46  O5  A00 X   3      34.194  26.670  19.4310  0.00  0.00     0.000 O
ATOM     47   O  A00 X   3      32.608  27.705  23.2230  0.00  0.00     0.000 O
ATOM     49  HD  A00 X   3      32.261  26.922  23.0980  0.00  0.00     0.000 HD
BRANCH 42 49
ATOM     49   O  A00 X   3      35.411  27.357  22.0830  0.00  0.00     0.000 O
ATOM     50   O  A00 X   3      36.023  26.795  24.3290  0.00  0.00     0.000 OA
ATOM     51   O  A00 X   3      35.262  28.986  23.8670  0.00  0.00     0.000 OA
ATOM     52   O  A00 X   3      37.353  28.311  22.9950  0.00  0.00     0.000 OA
ATOM     53   S  A00 X   3      36.059  27.880  23.3980  0.00  0.00     0.000 S
ENDBRANCH 42 49
BRANCH 45 54
ATOM     54   C  A00 X   3      31.735  26.833  18.9970  0.00  0.00     0.000 C
ATOM     55   O  A00 X   3      31.655  26.731  17.7900  0.00  0.00     0.000 OA
ATOM     56   O  A00 X   3      30.894  27.496  19.5840  0.00  0.00     0.000 OA
ENDBRANCH 45 54
BRANCH 41 57
ATOM     57  O4  A00 X   4      33.953  29.079  19.2060  0.00  0.00     0.000 O
BRANCH 57 61
ATOM     58  C1  A00 X   4      35.016  31.216  15.6080  0.00  0.00     0.000 C
ATOM     59  C2  A00 X   4      34.723  29.698  15.5090  0.00  0.00     0.000 C
ATOM     60  C3  A00 X   4      34.017  29.126  16.7550  0.00  0.00     0.000 C
ATOM     61  C4  A00 X   4      34.705  29.575  18.0620  0.00  0.00     0.000 C
ATOM     62  C5  A00 X   4      34.699  31.124  18.0470  0.00  0.00     0.000 C
ATOM     63  O5  A00 X   4      35.485  31.593  16.9220  0.00  0.00     0.000 O
BRANCH 59 66
ATOM     64   N  A00 X   4      35.984  28.943  15.3920  0.00  0.00     0.000 N
ATOM     66  HD  A00 X   4      36.694  29.292  15.7440  0.00  0.00     0.000 HD
ATOM     66   O  A00 X   4      35.958  29.460  13.0400  0.00  0.00     0.000 OA
ATOM     67   S  A00 X   4      36.445  28.460  13.9380  0.00  0.00     0.000 S
ATOM     68   O  A00 X   4      37.868  28.430  14.1150  0.00  0.00     0.000 OA
ATOM     69   O  A00 X   4      35.830  27.164  13.8950  0.00  0.00     0.000 OA
ENDBRANCH 59 66
BRANCH 62 70
ATOM     70   C  A00 X   4      35.255  31.770  19.3390  0.00  0.00     0.000 C
ATOM     71   O  A00 X   4      38.664  31.821  20.5560  0.00  0.00     0.000 OA
ATOM     72   O  A00 X   4      36.653  31.265  21.6480  0.00  0.00     0.000 OA
ATOM     73   O  A00 X   4      36.691  31.761  19.2950  0.00  0.00     0.000 O
ATOM     74   O  A00 X   4      37.645  29.690  20.0740  0.00  0.00     0.000 OA
ATOM     75   S  A00 X   4      37.456  31.050  20.4640  0.00  0.00     0.000 S
ENDBRANCH 62 70
ENDBRANCH 57 61
ENDBRANCH 41 57
ENDBRANCH 40 44
ENDBRANCH 20 40
ENDBRANCH 19 23
ENDBRANCH 1 19
TORSDOF 14
ENDMDL
MODEL 18
REMARK VINA RESULT:      -0.2     34.027     37.663
ROOT
ATOM      1  C1  A00 X   1      19.699  35.912  32.1130  0.00  0.00     0.000 C
ATOM      2  C2  A00 X   1      20.947  36.243  32.9740  0.00  0.00     0.000 C
ATOM      3  C3  A00 X   1      20.833  35.922  34.5010  0.00  0.00     0.000 C
ATOM      4  C4  A00 X   1      19.397  35.667  35.0250  0.00  0.00     0.000 C
ATOM      5  C5  A00 X   1      18.333  36.292  34.1220  0.00  0.00     0.000 C
ATOM      6  O5  A00 X   1      18.488  35.619  32.8530  0.00  0.00     0.000 O
ATOM      7   O  A00 X   1      21.343  37.030  35.2400  0.00  0.00     0.000 O
ATOM      9  HD  A00 X   1      20.630  36.757  35.6480  0.00  0.00     0.000 HD
ATOM      9   O  A00 X   1      19.138  34.272  35.1810  0.00  0.00     0.000 O
ATOM     11  HD  A00 X   1      18.425  33.999  35.5890  0.00  0.00     0.000 HD
ENDROOT
BRANCH 2 11
ATOM     11   O  A00 X   1      22.064  35.518  32.4240  0.00  0.00     0.000 O
ATOM     12   O  A00 X   1      24.198  35.449  33.5230  0.00  0.00     0.000 OA
ATOM     13   O  A00 X   1      23.350  37.576  32.7020  0.00  0.00     0.000 OA
ATOM     14   O  A00 X   1      24.007  35.871  31.1780  0.00  0.00     0.000 OA
ATOM     15   S  A00 X   1      23.492  36.162  32.4890  0.00  0.00     0.000 S
ENDBRANCH 2 11
BRANCH 5 16
ATOM     16   C  A00 X   1      18.389  37.819  34.0170  0.00  0.00     0.000 C
ATOM     17   O  A00 X   1      17.721  38.368  33.1650  0.00  0.00     0.000 OA
ATOM     18   O  A00 X   1      19.070  38.499  34.7590  0.00  0.00     0.000 OA
ENDBRANCH 5 16
BRANCH 1 19
ATOM     19  O4  A00 X   2      19.459  36.891  31.0730  0.00  0.00     0.000 O
BRANCH 19 23
ATOM     20  C1  A00 X   2      18.298  33.968  28.1620  0.00  0.00     0.000 C
ATOM     21  C2  A00 X   2      19.758  34.480  28.1180  0.00  0.00     0.000 C
ATOM     22  C3  A00 X   2      20.140  35.167  29.4450  0.00  0.00     0.000 C
ATOM     23  C4  A00 X   2      19.125  36.278  29.7950  0.00  0.00     0.000 C
ATOM     24  C5  A00 X   2      17.707  35.644  29.7890  0.00  0.00     0.000 C
ATOM     25  O5  A00 X   2      17.443  35.101  28.4690  0.00  0.00     0.000 O
ATOM     26   O  A00 X   2      21.521  35.562  29.3800  0.00  0.00     0.000 O
ATOM     28  HD  A00 X   2      21.424  35.956  28.6140  0.00  0.00     0.000 HD
BRANCH 21 30
ATOM     28   N  A00 X   2      19.718  34.353  26.6580  0.00  0.00     0.000 N
ATOM     30  HD  A00 X   2      20.552  34.426  26.8800  0.00  0.00     0.000 HD
ATOM     30   O  A00 X   2      21.867  33.815  25.9150  0.00  0.00     0.000 OA
ATOM     31   S  A00 X   2      20.944  34.889  25.8160  0.00  0.00     0.000 S
ATOM     32   O  A00 X   2      20.395  35.095  24.5110  0.00  0.00     0.000 OA
ATOM     33   O  A00 X   2      21.338  36.140  26.3920  0.00  0.00     0.000 OA
ENDBRANCH 21 30
BRANCH 24 34
ATOM     34   C  A00 X   2      16.531  36.490  30.3320  0.00  0.00     0.000 C
ATOM     35   O  A00 X   2      13.693  37.567  28.3220  0.00  0.00     0.000 OA
ATOM     36   O  A00 X   2      15.755  37.056  29.2580  0.00  0.00     0.000 O
ATOM     37   O  A00 X   2      14.359  35.311  28.5660  0.00  0.00     0.000 OA
ATOM     38   S  A00 X   2      14.254  36.591  29.1980  0.00  0.00     0.000 S
ATOM     39   O  A00 X   2      13.764  36.629  30.5430  0.00  0.00     0.000 OA
ENDBRANCH 24 34
BRANCH 20 40
ATOM     40  O4  A00 X   3      18.251  33.024  29.2430  0.00  0.00     0.000 O
BRANCH 40 44
ATOM     41  C1  A00 X   3      16.481  31.777  32.1470  0.00  0.00     0.000 C
ATOM     42  C2  A00 X   3      17.837  31.236  31.6430  0.00  0.00     0.000 C
ATOM     43  C3  A00 X   3      17.774  30.902  30.1300  0.00  0.00     0.000 C
ATOM     44  C4  A00 X   3      17.215  32.019  29.2580  0.00  0.00     0.000 C
ATOM     45  C5  A00 X   3      15.851  32.505  29.8250  0.00  0.00     0.000 C
ATOM     46  O5  A00 X   3      15.955  32.799  31.2560  0.00  0.00     0.000 O
ATOM     47   O  A00 X   3      18.946  30.312  29.5730  0.00  0.00     0.000 O
ATOM     49  HD  A00 X   3      18.749  30.824  28.9030  0.00  0.00     0.000 HD
BRANCH 42 49
ATOM     49   O  A00 X   3      18.826  32.252  31.9190  0.00  0.00     0.000 O
ATOM     50   O  A00 X   3      21.174  32.530  31.5440  0.00  0.00     0.000 OA
ATOM     51   O  A00 X   3      20.374  30.421  32.2540  0.00  0.00     0.000 OA
ATOM     52   O  A00 X   3      20.272  32.233  33.7690  0.00  0.00     0.000 OA
ATOM     53   S  A00 X   3      20.251  31.851  32.3990  0.00  0.00     0.000 S
ENDBRANCH 42 49
BRANCH 45 54
ATOM     54   C  A00 X   3      14.717  31.530  29.4890  0.00  0.00     0.000 C
ATOM     55   O  A00 X   3      13.556  31.858  29.6310  0.00  0.00     0.000 OA
ATOM     56   O  A00 X   3      14.960  30.407  29.0750  0.00  0.00     0.000 OA
ENDBRANCH 45 54
BRANCH 41 57
ATOM     57  O4  A00 X   4      15.551  30.707  32.4280  0.00  0.00     0.000 O
BRANCH 57 61
ATOM     58  C1  A00 X   4      12.371  30.259  35.3140  0.00  0.00     0.000 C
ATOM     59  C2  A00 X   4      12.265  31.393  34.2640  0.00  0.00     0.000 C
ATOM     60  C3  A00 X   4      13.249  31.235  33.0870  0.00  0.00     0.000 C
ATOM     61  C4  A00 X   4      14.681  30.929  33.5740  0.00  0.00     0.000 C
ATOM     62  C5  A00 X   4      14.584  29.642  34.4310  0.00  0.00     0.000 C
ATOM     63  O5  A00 X   4      13.745  29.899  35.5850  0.00  0.00     0.000 O
BRANCH 59 66
ATOM     64   N  A00 X   4      12.587  32.702  34.8600  0.00  0.00     0.000 N
ATOM     66  HD  A00 X   4      13.134  32.712  35.5310  0.00  0.00     0.000 HD
ATOM     66   O  A00 X   4      10.333  32.761  35.7040  0.00  0.00     0.000 OA
ATOM     67   S  A00 X   4      11.379  33.650  35.3050  0.00  0.00     0.000 S
ATOM     68   O  A00 X   4      12.003  34.384  36.3660  0.00  0.00     0.000 OA
ATOM     69   O  A00 X   4      11.192  34.405  34.0980  0.00  0.00     0.000 OA
ENDBRANCH 59 66
BRANCH 62 70
ATOM     70   C  A00 X   4      15.950  29.107  34.9250  0.00  0.00     0.000 C
ATOM     71   O  A00 X   4      18.197  30.556  37.3650  0.00  0.00     0.000 OA
ATOM     72   O  A00 X   4      18.610  29.733  35.1980  0.00  0.00     0.000 OA
ATOM     73   O  A00 X   4      16.372  29.867  36.0690  0.00  0.00     0.000 O
ATOM     74   O  A00 X   4      17.526  31.897  35.4770  0.00  0.00     0.000 OA
ATOM     75   S  A00 X   4      17.762  30.589  35.9970  0.00  0.00     0.000 S
ENDBRANCH 62 70
ENDBRANCH 57 61
ENDBRANCH 41 57
ENDBRANCH 40 44
ENDBRANCH 20 40
ENDBRANCH 19 23
ENDBRANCH 1 19
TORSDOF 14
ENDMDL
MODEL 19
REMARK VINA RESULT:      -0.2     46.648     51.265
ROOT
ATOM      1  C1  A00 X   1      31.105  56.159  13.1110  0.00  0.00     0.000 C
ATOM      2  C2  A00 X   1      31.447  57.633  12.7630  0.00  0.00     0.000 C
ATOM      3  C3  A00 X   1      30.230  58.570  12.4710  0.00  0.00     0.000 C
ATOM      4  C4  A00 X   1      28.882  57.852  12.2020  0.00  0.00     0.000 C
ATOM      5  C5  A00 X   1      29.080  56.409  11.7380  0.00  0.00     0.000 C
ATOM      6  O5  A00 X   1      29.739  55.754  12.8460  0.00  0.00     0.000 O
ATOM      7   O  A00 X   1      30.516  59.342  11.3070  0.00  0.00     0.000 O
ATOM      9  HD  A00 X   1      29.688  59.094  11.2520  0.00  0.00     0.000 HD
ATOM      9   O  A00 X   1      28.039  57.877  13.3530  0.00  0.00     0.000 O
ATOM     11  HD  A00 X   1      27.211  57.630  13.2980  0.00  0.00     0.000 HD
ENDROOT
BRANCH 2 11
ATOM     11   O  A00 X   1      32.206  58.177  13.8610  0.00  0.00     0.000 O
ATOM     12   O  A00 X   1      33.089  60.410  13.8100  0.00  0.00     0.000 OA
ATOM     13   O  A00 X   1      33.900  58.772  12.2050  0.00  0.00     0.000 OA
ATOM     14   O  A00 X   1      34.415  58.551  14.5170  0.00  0.00     0.000 OA
ATOM     15   S  A00 X   1      33.473  59.045  13.5500  0.00  0.00     0.000 S
ENDBRANCH 2 11
BRANCH 5 16
ATOM     16   C  A00 X   1      29.819  56.252  10.4050  0.00  0.00     0.000 C
ATOM     17   O  A00 X   1      30.191  55.146  10.0740  0.00  0.00     0.000 OA
ATOM     18   O  A00 X   1      30.038  57.192   9.6680  0.00  0.00     0.000 OA
ENDBRANCH 5 16
BRANCH 1 19
ATOM     19  O4  A00 X   2      32.053  55.217  12.5530  0.00  0.00     0.000 O
BRANCH 19 23
ATOM     20  C1  A00 X   2      31.939  52.621  15.9610  0.00  0.00     0.000 C
ATOM     21  C2  A00 X   2      33.115  53.623  15.8640  0.00  0.00     0.000 C
ATOM     22  C3  A00 X   2      32.798  54.748  14.8570  0.00  0.00     0.000 C
ATOM     23  C4  A00 X   2      32.401  54.155  13.4870  0.00  0.00     0.000 C
ATOM     24  C5  A00 X   2      31.232  53.159  13.7210  0.00  0.00     0.000 C
ATOM     25  O5  A00 X   2      31.681  52.115  14.6240  0.00  0.00     0.000 O
ATOM     26   O  A00 X   2      33.887  55.686  14.8550  0.00  0.00     0.000 O
ATOM     28  HD  A00 X   2      34.485  55.068  14.7540  0.00  0.00     0.000 HD
BRANCH 21 30
ATOM     28   N  A00 X   2      33.974  52.617  16.4970  0.00  0.00     0.000 N
ATOM     30  HD  A00 X   2      34.393  53.373  16.5500  0.00  0.00     0.000 HD
ATOM     30   O  A00 X   2      35.590  53.732  17.7630  0.00  0.00     0.000 OA
ATOM     31   S  A00 X   2      35.524  52.906  16.6110  0.00  0.00     0.000 S
ATOM     32   O  A00 X   2      36.100  51.606  16.7660  0.00  0.00     0.000 OA
ATOM     33   O  A00 X   2      35.938  53.489  15.3690  0.00  0.00     0.000 OA
ENDBRANCH 21 30
BRANCH 24 34
ATOM     34   C  A00 X   2      30.496  52.600  12.4810  0.00  0.00     0.000 C
ATOM     35   O  A00 X   2      30.469  49.083  11.5380  0.00  0.00     0.000 OA
ATOM     36   O  A00 X   2      30.945  51.267  12.1640  0.00  0.00     0.000 O
ATOM     37   O  A00 X   2      29.776  49.890  13.6500  0.00  0.00     0.000 OA
ATOM     38   S  A00 X   2      29.841  50.150  12.2440  0.00  0.00     0.000 S
ATOM     39   O  A00 X   2      28.673  50.690  11.6150  0.00  0.00     0.000 OA
ENDBRANCH 24 34
BRANCH 20 40
ATOM     40  O4  A00 X   3      30.812  53.388  16.4090  0.00  0.00     0.000 O
BRANCH 40 44
ATOM     41  C1  A00 X   3      27.288  54.142  16.0430  0.00  0.00     0.000 C
ATOM     42  C2  A00 X   3      28.238  54.839  17.0410  0.00  0.00     0.000 C
ATOM     43  C3  A00 X   3      29.025  53.798  17.8780  0.00  0.00     0.000 C
ATOM     44  C4  A00 X   3      29.712  52.714  17.0570  0.00  0.00     0.000 C
ATOM     45  C5  A00 X   3      28.693  52.058  16.0830  0.00  0.00     0.000 C
ATOM     46  O5  A00 X   3      27.967  53.077  15.3220  0.00  0.00     0.000 O
ATOM     47   O  A00 X   3      29.872  54.328  18.8950  0.00  0.00     0.000 O
ATOM     49  HD  A00 X   3      30.398  53.692  18.6320  0.00  0.00     0.000 HD
BRANCH 42 49
ATOM     49   O  A00 X   3      29.126  55.674  16.2670  0.00  0.00     0.000 O
ATOM     50   O  A00 X   3      31.001  57.094  16.7170  0.00  0.00     0.000 OA
ATOM     51   O  A00 X   3      29.149  57.148  18.1860  0.00  0.00     0.000 OA
ATOM     52   O  A00 X   3      28.875  57.993  15.9960  0.00  0.00     0.000 OA
ATOM     53   S  A00 X   3      29.575  57.061  16.8120  0.00  0.00     0.000 S
ENDBRANCH 42 49
BRANCH 45 54
ATOM     54   C  A00 X   3      27.768  51.073  16.8080  0.00  0.00     0.000 C
ATOM     55   O  A00 X   3      27.758  51.012  18.0200  0.00  0.00     0.000 OA
ATOM     56   O  A00 X   3      27.028  50.332  16.1800  0.00  0.00     0.000 OA
ENDBRANCH 45 54
BRANCH 41 57
ATOM     57  O4  A00 X   4      26.056  53.730  16.6770  0.00  0.00     0.000 O
BRANCH 57 61
ATOM     58  C1  A00 X   4      21.984  53.434  15.2760  0.00  0.00     0.000 C
ATOM     59  C2  A00 X   4      23.067  52.560  14.5960  0.00  0.00     0.000 C
ATOM     60  C3  A00 X   4      24.382  52.477  15.3970  0.00  0.00     0.000 C
ATOM     61  C4  A00 X   4      24.862  53.871  15.8570  0.00  0.00     0.000 C
ATOM     62  C5  A00 X   4      23.706  54.475  16.6940  0.00  0.00     0.000 C
ATOM     63  O5  A00 X   4      22.540  54.640  15.8460  0.00  0.00     0.000 O
BRANCH 59 66
ATOM     64   N  A00 X   4      23.442  53.128  13.2880  0.00  0.00     0.000 N
ATOM     66  HD  A00 X   4      23.360  53.984  13.1860  0.00  0.00     0.000 HD
ATOM     66   O  A00 X   4      21.490  52.055  12.3740  0.00  0.00     0.000 OA
ATOM     67   S  A00 X   4      22.789  52.496  11.9720  0.00  0.00     0.000 S
ATOM     68   O  A00 X   4      22.811  53.634  11.1000  0.00  0.00     0.000 OA
ATOM     69   O  A00 X   4      23.769  51.495  11.6590  0.00  0.00     0.000 OA
ENDBRANCH 59 66
BRANCH 62 70
ATOM     70   C  A00 X   4      24.041  55.839  17.3420  0.00  0.00     0.000 C
ATOM     71   O  A00 X   4      24.534  59.046  15.7340  0.00  0.00     0.000 OA
ATOM     72   O  A00 X   4      25.838  57.916  17.3370  0.00  0.00     0.000 OA
ATOM     73   O  A00 X   4      23.900  56.878  16.3590  0.00  0.00     0.000 O
ATOM     74   O  A00 X   4      25.877  57.177  15.0150  0.00  0.00     0.000 OA
ATOM     75   S  A00 X   4      25.144  57.791  16.0740  0.00  0.00     0.000 S
ENDBRANCH 62 70
ENDBRANCH 57 61
ENDBRANCH 41 57
ENDBRANCH 40 44
ENDBRANCH 20 40
ENDBRANCH 19 23
ENDBRANCH 1 19
TORSDOF 14
ENDMDL
MODEL 20
REMARK VINA RESULT:      -0.2     36.226     40.731
ROOT
ATOM      1  C1  A00 X   1      40.578  34.432  21.0080  0.00  0.00     0.000 C
ATOM      2  C2  A00 X   1      41.768  33.669  21.6470  0.00  0.00     0.000 C
ATOM      3  C3  A00 X   1      42.005  33.920  23.1730  0.00  0.00     0.000 C
ATOM      4  C4  A00 X   1      41.278  35.153  23.7690  0.00  0.00     0.000 C
ATOM      5  C5  A00 X   1      40.920  36.184  22.6990  0.00  0.00     0.000 C
ATOM      6  O5  A00 X   1      40.010  35.494  21.8130  0.00  0.00     0.000 O
ATOM      7   O  A00 X   1      43.399  34.128  23.3910  0.00  0.00     0.000 O
ATOM      9  HD  A00 X   1      42.975  34.702  23.8820  0.00  0.00     0.000 HD
ATOM      9   O  A00 X   1      40.102  34.771  24.4820  0.00  0.00     0.000 O
ATOM     11  HD  A00 X   1      39.678  35.345  24.9730  0.00  0.00     0.000 HD
ENDROOT
BRANCH 2 11
ATOM     11   O  A00 X   1      41.552  32.261  21.4320  0.00  0.00     0.000 O
ATOM     12   O  A00 X   1      42.958  30.592  22.4360  0.00  0.00     0.000 OA
ATOM     13   O  A00 X   1      43.915  32.140  20.8210  0.00  0.00     0.000 OA
ATOM     14   O  A00 X   1      42.345  30.493  20.1280  0.00  0.00     0.000 OA
ATOM     15   S  A00 X   1      42.793  31.329  21.2080  0.00  0.00     0.000 S
ENDBRANCH 2 11
BRANCH 5 16
ATOM     16   C  A00 X   1      42.118  36.813  21.9790  0.00  0.00     0.000 C
ATOM     17   O  A00 X   1      41.914  37.478  20.9840  0.00  0.00     0.000 OA
ATOM     18   O  A00 X   1      43.259  36.675  22.3710  0.00  0.00     0.000 OA
ENDBRANCH 5 16
BRANCH 1 19
ATOM     19  O4  A00 X   2      40.860  34.884  19.6610  0.00  0.00     0.000 O
BRANCH 19 23
ATOM     20  C1  A00 X   2      36.925  34.000  18.2110  0.00  0.00     0.000 C
ATOM     21  C2  A00 X   2      38.036  32.955  17.9460  0.00  0.00     0.000 C
ATOM     22  C3  A00 X   2      39.246  33.193  18.8730  0.00  0.00     0.000 C
ATOM     23  C4  A00 X   2      39.750  34.648  18.7480  0.00  0.00     0.000 C
ATOM     24  C5  A00 X   2      38.545  35.592  19.0170  0.00  0.00     0.000 C
ATOM     25  O5  A00 X   2      37.510  35.319  18.0370  0.00  0.00     0.000 O
ATOM     26   O  A00 X   2      40.218  32.159  18.6360  0.00  0.00     0.000 O
ATOM     28  HD  A00 X   2      40.205  32.274  17.7780  0.00  0.00     0.000 HD
BRANCH 21 30
ATOM     28   N  A00 X   2      37.389  32.650  16.6660  0.00  0.00     0.000 N
ATOM     30  HD  A00 X   2      37.940  32.002  16.8290  0.00  0.00     0.000 HD
ATOM     30   O  A00 X   2      37.759  30.394  16.1850  0.00  0.00     0.000 OA
ATOM     31   S  A00 X   2      38.116  31.666  15.6650  0.00  0.00     0.000 S
ATOM     32   O  A00 X   2      37.537  31.984  14.3960  0.00  0.00     0.000 OA
ATOM     33   O  A00 X   2      39.508  32.004  15.6750  0.00  0.00     0.000 OA
ENDBRANCH 21 30
BRANCH 24 34
ATOM     34   C  A00 X   2      38.830  37.103  19.1790  0.00  0.00     0.000 C
ATOM     35   O  A00 X   2      37.537  39.674  16.9480  0.00  0.00     0.000 OA
ATOM     36   O  A00 X   2      38.498  37.829  17.9790  0.00  0.00     0.000 O
ATOM     37   O  A00 X   2      36.179  38.113  18.0930  0.00  0.00     0.000 OA
ATOM     38   S  A00 X   2      37.367  38.910  18.1400  0.00  0.00     0.000 S
ATOM     39   O  A00 X   2      37.648  39.612  19.3560  0.00  0.00     0.000 OA
ENDBRANCH 24 34
BRANCH 20 40
ATOM     40  O4  A00 X   3      36.544  33.822  19.5830  0.00  0.00     0.000 O
BRANCH 40 44
ATOM     41  C1  A00 X   3      35.797  35.381  22.7660  0.00  0.00     0.000 C
ATOM     42  C2  A00 X   3      35.812  33.858  22.5140  0.00  0.00     0.000 C
ATOM     43  C3  A00 X   3      34.952  33.491  21.2780  0.00  0.00     0.000 C
ATOM     44  C4  A00 X   3      35.259  34.306  20.0280  0.00  0.00     0.000 C
ATOM     45  C5  A00 X   3      35.221  35.825  20.3600  0.00  0.00     0.000 C
ATOM     46  O5  A00 X   3      36.037  36.123  21.5390  0.00  0.00     0.000 O
ATOM     47   O  A00 X   3      34.821  32.098  21.0000  0.00  0.00     0.000 O
ATOM     49  HD  A00 X   3      34.889  32.370  20.1810  0.00  0.00     0.000 HD
BRANCH 42 49
ATOM     49   O  A00 X   3      37.192  33.473  22.3300  0.00  0.00     0.000 O
ATOM     50   O  A00 X   3      38.372  31.462  21.7840  0.00  0.00     0.000 OA
ATOM     51   O  A00 X   3      36.557  31.346  23.2950  0.00  0.00     0.000 OA
ATOM     52   O  A00 X   3      38.524  32.463  23.9800  0.00  0.00     0.000 OA
ATOM     53   S  A00 X   3      37.706  32.107  22.8720  0.00  0.00     0.000 S
ENDBRANCH 42 49
BRANCH 45 54
ATOM     54   C  A00 X   3      33.783  36.344  20.4750  0.00  0.00     0.000 C
ATOM     55   O  A00 X   3      33.562  37.531  20.6070  0.00  0.00     0.000 OA
ATOM     56   O  A00 X   3      32.835  35.575  20.4380  0.00  0.00     0.000 OA
ENDBRANCH 45 54
BRANCH 41 57
ATOM     57  O4  A00 X   4      34.609  35.793  23.4790  0.00  0.00     0.000 O
BRANCH 57 61
ATOM     58  C1  A00 X   4      33.857  38.889  26.3920  0.00  0.00     0.000 C
ATOM     59  C2  A00 X   4      34.357  39.301  24.9850  0.00  0.00     0.000 C
ATOM     60  C3  A00 X   4      34.245  38.173  23.9390  0.00  0.00     0.000 C
ATOM     61  C4  A00 X   4      34.814  36.840  24.4690  0.00  0.00     0.000 C
ATOM     62  C5  A00 X   4      34.028  36.515  25.7630  0.00  0.00     0.000 C
ATOM     63  O5  A00 X   4      34.278  37.552  26.7470  0.00  0.00     0.000 O
BRANCH 59 66
ATOM     64   N  A00 X   4      35.789  39.645  25.0480  0.00  0.00     0.000 N
ATOM     66  HD  A00 X   4      36.265  39.265  25.6640  0.00  0.00     0.000 HD
ATOM     66   O  A00 X   4      35.127  41.826  25.8250  0.00  0.00     0.000 OA
ATOM     67   S  A00 X   4      36.193  41.191  25.1160  0.00  0.00     0.000 S
ATOM     68   O  A00 X   4      37.437  41.102  25.8230  0.00  0.00     0.000 OA
ATOM     69   O  A00 X   4      36.332  41.478  23.7160  0.00  0.00     0.000 OA
ENDBRANCH 59 66
BRANCH 62 70
ATOM     70   C  A00 X   4      34.382  35.146  26.3910  0.00  0.00     0.000 C
ATOM     71   O  A00 X   4      37.453  34.132  28.0190  0.00  0.00     0.000 OA
ATOM     72   O  A00 X   4      36.191  33.080  26.3320  0.00  0.00     0.000 OA
ATOM     73   O  A00 X   4      35.603  35.268  27.1390  0.00  0.00     0.000 O
ATOM     74   O  A00 X   4      37.573  35.008  25.7760  0.00  0.00     0.000 OA
ATOM     75   S  A00 X   4      36.795  34.323  26.7570  0.00  0.00     0.000 S
ENDBRANCH 62 70
ENDBRANCH 57 61
ENDBRANCH 41 57
ENDBRANCH 40 44
ENDBRANCH 20 40
ENDBRANCH 19 23
ENDBRANCH 1 19
TORSDOF 14
ENDMDL
MODEL 21
REMARK VINA RESULT:      -0.2     72.743     78.183
ROOT
ATOM      1  C1  A00 X   1      55.623  40.421  59.6060  0.00  0.00     0.000 C
ATOM      2  C2  A00 X   1      56.218  39.255  58.7720  0.00  0.00     0.000 C
ATOM      3  C3  A00 X   1      57.490  38.565  59.3660  0.00  0.00     0.000 C
ATOM      4  C4  A00 X   1      58.208  39.347  60.4960  0.00  0.00     0.000 C
ATOM      5  C5  A00 X   1      57.892  40.842  60.4560  0.00  0.00     0.000 C
ATOM      6  O5  A00 X   1      56.465  40.921  60.6740  0.00  0.00     0.000 O
ATOM      7   O  A00 X   1      58.446  38.393  58.3220  0.00  0.00     0.000 O
ATOM      9  HD  A00 X   1      58.880  38.651  59.0260  0.00  0.00     0.000 HD
ATOM      9   O  A00 X   1      57.884  38.820  61.7830  0.00  0.00     0.000 O
ATOM     11  HD  A00 X   1      58.318  39.078  62.4860  0.00  0.00     0.000 HD
ENDROOT
BRANCH 2 11
ATOM     11   O  A00 X   1      55.184  38.266  58.6020  0.00  0.00     0.000 O
ATOM     12   O  A00 X   1      55.629  36.121  57.6160  0.00  0.00     0.000 OA
ATOM     13   O  A00 X   1      55.900  38.129  56.2710  0.00  0.00     0.000 OA
ATOM     14   O  A00 X   1      53.737  37.432  56.9710  0.00  0.00     0.000 OA
ATOM     15   S  A00 X   1      55.142  37.434  57.2740  0.00  0.00     0.000 S
ENDBRANCH 2 11
BRANCH 5 16
ATOM     16   C  A00 X   1      58.360  41.569  59.1910  0.00  0.00     0.000 C
ATOM     17   O  A00 X   1      57.964  42.699  58.9900  0.00  0.00     0.000 OA
ATOM     18   O  A00 X   1      59.116  41.059  58.3880  0.00  0.00     0.000 OA
ENDBRANCH 5 16
BRANCH 1 19
ATOM     19  O4  A00 X   2      55.119  41.501  58.7810  0.00  0.00     0.000 O
BRANCH 19 23
ATOM     20  C1  A00 X   2      51.707  42.225  61.2710  0.00  0.00     0.000 C
ATOM     21  C2  A00 X   2      51.502  41.339  60.0180  0.00  0.00     0.000 C
ATOM     22  C3  A00 X   2      52.854  40.821  59.4850  0.00  0.00     0.000 C
ATOM     23  C4  A00 X   2      53.827  41.995  59.2370  0.00  0.00     0.000 C
ATOM     24  C5  A00 X   2      53.931  42.812  60.5540  0.00  0.00     0.000 C
ATOM     25  O5  A00 X   2      52.611  43.301  60.9050  0.00  0.00     0.000 O
ATOM     26   O  A00 X   2      52.607  39.950  58.3670  0.00  0.00     0.000 O
ATOM     28  HD  A00 X   2      52.091  40.523  57.9720  0.00  0.00     0.000 HD
BRANCH 21 30
ATOM     28   N  A00 X   2      50.157  41.905  59.8840  0.00  0.00     0.000 N
ATOM     30  HD  A00 X   2      50.181  41.195  59.3880  0.00  0.00     0.000 HD
ATOM     30   O  A00 X   2      48.769  40.271  58.9550  0.00  0.00     0.000 OA
ATOM     31   S  A00 X   2      49.304  41.539  58.6050  0.00  0.00     0.000 S
ATOM     32   O  A00 X   2      48.345  42.597  58.5230  0.00  0.00     0.000 OA
ATOM     33   O  A00 X   2      50.189  41.582  57.4790  0.00  0.00     0.000 OA
ENDBRANCH 21 30
BRANCH 24 34
ATOM     34   C  A00 X   2      55.018  43.909  60.6430  0.00  0.00     0.000 C
ATOM     35   O  A00 X   2      54.308  47.457  61.0460  0.00  0.00     0.000 OA
ATOM     36   O  A00 X   2      54.455  45.221  60.4430  0.00  0.00     0.000 O
ATOM     37   O  A00 X   2      53.526  45.778  62.5160  0.00  0.00     0.000 OA
ATOM     38   S  A00 X   2      54.593  46.204  61.6630  0.00  0.00     0.000 S
ATOM     39   O  A00 X   2      55.931  46.057  62.1510  0.00  0.00     0.000 OA
ENDBRANCH 24 34
BRANCH 20 40
ATOM     40  O4  A00 X   3      52.336  41.380  62.2450  0.00  0.00     0.000 O
BRANCH 40 44
ATOM     41  C1  A00 X   3      54.893  40.992  64.7810  0.00  0.00     0.000 C
ATOM     42  C2  A00 X   3      53.913  39.883  64.3430  0.00  0.00     0.000 C
ATOM     43  C3  A00 X   3      52.449  40.392  64.3730  0.00  0.00     0.000 C
ATOM     44  C4  A00 X   3      52.222  41.711  63.6460  0.00  0.00     0.000 C
ATOM     45  C5  A00 X   3      53.240  42.775  64.1430  0.00  0.00     0.000 C
ATOM     46  O5  A00 X   3      54.606  42.249  64.1070  0.00  0.00     0.000 O
ATOM     47   O  A00 X   3      51.446  39.424  64.0700  0.00  0.00     0.000 O
ATOM     49  HD  A00 X   3      51.086  40.093  63.6540  0.00  0.00     0.000 HD
BRANCH 42 49
ATOM     49   O  A00 X   3      54.303  39.475  63.0140  0.00  0.00     0.000 O
ATOM     50   O  A00 X   3      53.498  37.933  61.3690  0.00  0.00     0.000 OA
ATOM     51   O  A00 X   3      53.523  37.270  63.6380  0.00  0.00     0.000 OA
ATOM     52   O  A00 X   3      55.588  37.570  62.5290  0.00  0.00     0.000 OA
ATOM     53   S  A00 X   3      54.227  37.977  62.5970  0.00  0.00     0.000 S
ENDBRANCH 42 49
BRANCH 45 54
ATOM     54   C  A00 X   3      52.847  43.340  65.5130  0.00  0.00     0.000 C
ATOM     55   O  A00 X   3      53.459  44.269  65.9990  0.00  0.00     0.000 OA
ATOM     56   O  A00 X   3      51.913  42.865  66.1410  0.00  0.00     0.000 OA
ENDBRANCH 45 54
BRANCH 41 57
ATOM     57  O4  A00 X   4      54.967  41.102  66.2210  0.00  0.00     0.000 O
BRANCH 57 61
ATOM     58  C1  A00 X   4      58.163  42.147  68.9280  0.00  0.00     0.000 C
ATOM     59  C2  A00 X   4      57.695  43.200  67.8930  0.00  0.00     0.000 C
ATOM     60  C3  A00 X   4      56.340  42.859  67.2400  0.00  0.00     0.000 C
ATOM     61  C4  A00 X   4      56.291  41.395  66.7510  0.00  0.00     0.000 C
ATOM     62  C5  A00 X   4      56.580  40.512  67.9900  0.00  0.00     0.000 C
ATOM     63  O5  A00 X   4      57.917  40.796  68.4760  0.00  0.00     0.000 O
BRANCH 59 66
ATOM     64   N  A00 X   4      58.650  43.295  66.7740  0.00  0.00     0.000 N
ATOM     66  HD  A00 X   4      59.111  42.588  66.5800  0.00  0.00     0.000 HD
ATOM     66   O  A00 X   4      59.990  44.727  68.1710  0.00  0.00     0.000 OA
ATOM     67   S  A00 X   4      59.717  44.486  66.7890  0.00  0.00     0.000 S
ATOM     68   O  A00 X   4      60.785  43.885  66.0450  0.00  0.00     0.000 OA
ATOM     69   O  A00 X   4      58.988  45.489  66.0660  0.00  0.00     0.000 OA
ENDBRANCH 59 66
BRANCH 62 70
ATOM     70   C  A00 X   4      56.466  38.992  67.7230  0.00  0.00     0.000 C
ATOM     71   O  A00 X   4      58.627  36.878  65.7320  0.00  0.00     0.000 OA
ATOM     72   O  A00 X   4      56.283  37.095  65.7460  0.00  0.00     0.000 OA
ATOM     73   O  A00 X   4      57.670  38.530  67.0880  0.00  0.00     0.000 O
ATOM     74   O  A00 X   4      57.645  38.821  64.6970  0.00  0.00     0.000 OA
ATOM     75   S  A00 X   4      57.538  37.812  65.7000  0.00  0.00     0.000 S
ENDBRANCH 62 70
ENDBRANCH 57 61
ENDBRANCH 41 57
ENDBRANCH 40 44
ENDBRANCH 20 40
ENDBRANCH 19 23
ENDBRANCH 1 19
TORSDOF 14
ENDMDL
MODEL 22
REMARK VINA RESULT:      -0.2     75.298     80.775
ROOT
ATOM      1  C1  A00 X   1      58.612  39.626  61.4510  0.00  0.00     0.000 C
ATOM      2  C2  A00 X   1      59.207  38.460  60.6170  0.00  0.00     0.000 C
ATOM      3  C3  A00 X   1      60.480  37.770  61.2110  0.00  0.00     0.000 C
ATOM      4  C4  A00 X   1      61.198  38.551  62.3410  0.00  0.00     0.000 C
ATOM      5  C5  A00 X   1      60.881  40.046  62.3010  0.00  0.00     0.000 C
ATOM      6  O5  A00 X   1      59.455  40.126  62.5190  0.00  0.00     0.000 O
ATOM      7   O  A00 X   1      61.436  37.598  60.1670  0.00  0.00     0.000 O
ATOM      9  HD  A00 X   1      61.870  37.856  60.8710  0.00  0.00     0.000 HD
ATOM      9   O  A00 X   1      60.873  38.025  63.6270  0.00  0.00     0.000 O
ATOM     11  HD  A00 X   1      61.307  38.282  64.3310  0.00  0.00     0.000 HD
ENDROOT
BRANCH 2 11
ATOM     11   O  A00 X   1      58.174  37.470  60.4470  0.00  0.00     0.000 O
ATOM     12   O  A00 X   1      58.618  35.326  59.4610  0.00  0.00     0.000 OA
ATOM     13   O  A00 X   1      58.890  37.334  58.1160  0.00  0.00     0.000 OA
ATOM     14   O  A00 X   1      56.726  36.636  58.8160  0.00  0.00     0.000 OA
ATOM     15   S  A00 X   1      58.132  36.639  59.1190  0.00  0.00     0.000 S
ENDBRANCH 2 11
BRANCH 5 16
ATOM     16   C  A00 X   1      61.349  40.773  61.0360  0.00  0.00     0.000 C
ATOM     17   O  A00 X   1      60.954  41.903  60.8350  0.00  0.00     0.000 OA
ATOM     18   O  A00 X   1      62.105  40.264  60.2330  0.00  0.00     0.000 OA
ENDBRANCH 5 16
BRANCH 1 19
ATOM     19  O4  A00 X   2      58.109  40.705  60.6260  0.00  0.00     0.000 O
BRANCH 19 23
ATOM     20  C1  A00 X   2      54.696  41.430  63.1150  0.00  0.00     0.000 C
ATOM     21  C2  A00 X   2      54.492  40.543  61.8630  0.00  0.00     0.000 C
ATOM     22  C3  A00 X   2      55.844  40.025  61.3300  0.00  0.00     0.000 C
ATOM     23  C4  A00 X   2      56.817  41.200  61.0810  0.00  0.00     0.000 C
ATOM     24  C5  A00 X   2      56.921  42.017  62.3980  0.00  0.00     0.000 C
ATOM     25  O5  A00 X   2      55.600  42.506  62.7500  0.00  0.00     0.000 O
ATOM     26   O  A00 X   2      55.596  39.155  60.2120  0.00  0.00     0.000 O
ATOM     28  HD  A00 X   2      55.080  39.727  59.8170  0.00  0.00     0.000 HD
BRANCH 21 30
ATOM     28   N  A00 X   2      53.146  41.110  61.7290  0.00  0.00     0.000 N
ATOM     30  HD  A00 X   2      53.170  40.400  61.2330  0.00  0.00     0.000 HD
ATOM     30   O  A00 X   2      51.759  39.475  60.8000  0.00  0.00     0.000 OA
ATOM     31   S  A00 X   2      52.293  40.743  60.4490  0.00  0.00     0.000 S
ATOM     32   O  A00 X   2      51.334  41.801  60.3680  0.00  0.00     0.000 OA
ATOM     33   O  A00 X   2      53.178  40.786  59.3240  0.00  0.00     0.000 OA
ENDBRANCH 21 30
BRANCH 24 34
ATOM     34   C  A00 X   2      58.008  43.114  62.4880  0.00  0.00     0.000 C
ATOM     35   O  A00 X   2      57.297  46.662  62.8910  0.00  0.00     0.000 OA
ATOM     36   O  A00 X   2      57.444  44.425  62.2880  0.00  0.00     0.000 O
ATOM     37   O  A00 X   2      56.515  44.983  64.3610  0.00  0.00     0.000 OA
ATOM     38   S  A00 X   2      57.582  45.408  63.5080  0.00  0.00     0.000 S
ATOM     39   O  A00 X   2      58.921  45.262  63.9960  0.00  0.00     0.000 OA
ENDBRANCH 24 34
BRANCH 20 40
ATOM     40  O4  A00 X   3      55.325  40.584  64.0900  0.00  0.00     0.000 O
BRANCH 40 44
ATOM     41  C1  A00 X   3      57.883  40.197  66.6260  0.00  0.00     0.000 C
ATOM     42  C2  A00 X   3      56.902  39.087  66.1880  0.00  0.00     0.000 C
ATOM     43  C3  A00 X   3      55.438  39.596  66.2180  0.00  0.00     0.000 C
ATOM     44  C4  A00 X   3      55.211  40.915  65.4910  0.00  0.00     0.000 C
ATOM     45  C5  A00 X   3      56.229  41.980  65.9880  0.00  0.00     0.000 C
ATOM     46  O5  A00 X   3      57.595  41.453  65.9520  0.00  0.00     0.000 O
ATOM     47   O  A00 X   3      54.436  38.628  65.9150  0.00  0.00     0.000 O
ATOM     49  HD  A00 X   3      54.075  39.297  65.4990  0.00  0.00     0.000 HD
BRANCH 42 49
ATOM     49   O  A00 X   3      57.292  38.679  64.8580  0.00  0.00     0.000 O
ATOM     50   O  A00 X   3      56.487  37.137  63.2140  0.00  0.00     0.000 OA
ATOM     51   O  A00 X   3      56.512  36.475  65.4830  0.00  0.00     0.000 OA
ATOM     52   O  A00 X   3      58.578  36.775  64.3740  0.00  0.00     0.000 OA
ATOM     53   S  A00 X   3      57.216  37.181  64.4420  0.00  0.00     0.000 S
ENDBRANCH 42 49
BRANCH 45 54
ATOM     54   C  A00 X   3      55.836  42.545  67.3580  0.00  0.00     0.000 C
ATOM     55   O  A00 X   3      56.449  43.474  67.8440  0.00  0.00     0.000 OA
ATOM     56   O  A00 X   3      54.902  42.070  67.9860  0.00  0.00     0.000 OA
ENDBRANCH 45 54
BRANCH 41 57
ATOM     57  O4  A00 X   4      57.957  40.306  68.0650  0.00  0.00     0.000 O
BRANCH 57 61
ATOM     58  C1  A00 X   4      61.153  41.352  70.7730  0.00  0.00     0.000 C
ATOM     59  C2  A00 X   4      60.684  42.404  69.7380  0.00  0.00     0.000 C
ATOM     60  C3  A00 X   4      59.329  42.064  69.0850  0.00  0.00     0.000 C
ATOM     61  C4  A00 X   4      59.280  40.600  68.5960  0.00  0.00     0.000 C
ATOM     62  C5  A00 X   4      59.570  39.717  69.8350  0.00  0.00     0.000 C
ATOM     63  O5  A00 X   4      60.906  40.000  70.3210  0.00  0.00     0.000 O
BRANCH 59 66
ATOM     64   N  A00 X   4      61.639  42.500  68.6190  0.00  0.00     0.000 N
ATOM     66  HD  A00 X   4      62.100  41.793  68.4250  0.00  0.00     0.000 HD
ATOM     66   O  A00 X   4      62.979  43.932  70.0160  0.00  0.00     0.000 OA
ATOM     67   S  A00 X   4      62.706  43.691  68.6340  0.00  0.00     0.000 S
ATOM     68   O  A00 X   4      63.775  43.090  67.8900  0.00  0.00     0.000 OA
ATOM     69   O  A00 X   4      61.977  44.694  67.9100  0.00  0.00     0.000 OA
ENDBRANCH 59 66
BRANCH 62 70
ATOM     70   C  A00 X   4      59.456  38.197  69.5680  0.00  0.00     0.000 C
ATOM     71   O  A00 X   4      61.617  36.082  67.5770  0.00  0.00     0.000 OA
ATOM     72   O  A00 X   4      59.272  36.299  67.5910  0.00  0.00     0.000 OA
ATOM     73   O  A00 X   4      60.659  37.735  68.9330  0.00  0.00     0.000 O
ATOM     74   O  A00 X   4      60.634  38.026  66.5420  0.00  0.00     0.000 OA
ATOM     75   S  A00 X   4      60.527  37.017  67.5450  0.00  0.00     0.000 S
ENDBRANCH 62 70
ENDBRANCH 57 61
ENDBRANCH 41 57
ENDBRANCH 40 44
ENDBRANCH 20 40
ENDBRANCH 19 23
ENDBRANCH 1 19
TORSDOF 14
ENDMDL
MODEL 23
REMARK VINA RESULT:      -0.2     46.860     50.830
ROOT
ATOM      1  C1  A00 X   1      57.396  20.666  31.1580  0.00  0.00     0.000 C
ATOM      2  C2  A00 X   1      58.349  19.551  31.6630  0.00  0.00     0.000 C
ATOM      3  C3  A00 X   1      58.444  19.380  33.2150  0.00  0.00     0.000 C
ATOM      4  C4  A00 X   1      57.879  20.556  34.0530  0.00  0.00     0.000 C
ATOM      5  C5  A00 X   1      57.838  21.862  33.2610  0.00  0.00     0.000 C
ATOM      6  O5  A00 X   1      56.932  21.598  32.1660  0.00  0.00     0.000 O
ATOM      7   O  A00 X   1      59.816  19.247  33.5780  0.00  0.00     0.000 O
ATOM      9  HD  A00 X   1      59.445  19.761  34.1680  0.00  0.00     0.000 HD
ATOM      9   O  A00 X   1      56.578  20.258  34.5600  0.00  0.00     0.000 O
ATOM     11  HD  A00 X   1      56.207  20.772  35.1500  0.00  0.00     0.000 HD
ENDROOT
BRANCH 2 11
ATOM     11   O  A00 X   1      57.916  18.306  31.0800  0.00  0.00     0.000 O
ATOM     12   O  A00 X   1      58.875  16.201  31.7230  0.00  0.00     0.000 OA
ATOM     13   O  A00 X   1      60.276  17.863  30.6320  0.00  0.00     0.000 OA
ATOM     14   O  A00 X   1      58.536  16.777  29.4280  0.00  0.00     0.000 OA
ATOM     15   S  A00 X   1      58.991  17.225  30.7160  0.00  0.00     0.000 S
ENDBRANCH 2 11
BRANCH 5 16
ATOM     16   C  A00 X   1      59.204  22.391  32.8120  0.00  0.00     0.000 C
ATOM     17   O  A00 X   1      59.240  23.298  32.0060  0.00  0.00     0.000 OA
ATOM     18   O  A00 X   1      60.249  21.942  33.2390  0.00  0.00     0.000 OA
ENDBRANCH 5 16
BRANCH 1 19
ATOM     19  O4  A00 X   2      57.911  21.360  29.9940  0.00  0.00     0.000 O
BRANCH 19 23
ATOM     20  C1  A00 X   2      54.082  21.651  28.0910  0.00  0.00     0.000 C
ATOM     21  C2  A00 X   2      55.013  20.495  27.6500  0.00  0.00     0.000 C
ATOM     22  C3  A00 X   2      56.128  20.260  28.6910  0.00  0.00     0.000 C
ATOM     23  C4  A00 X   2      56.893  21.572  28.9750  0.00  0.00     0.000 C
ATOM     24  C5  A00 X   2      55.852  22.649  29.3860  0.00  0.00     0.000 C
ATOM     25  O5  A00 X   2      54.908  22.827  28.2980  0.00  0.00     0.000 O
ATOM     26   O  A00 X   2      56.921  19.137  28.2710  0.00  0.00     0.000 O
ATOM     28  HD  A00 X   2      57.032  19.450  27.4720  0.00  0.00     0.000 HD
BRANCH 21 30
ATOM     28   N  A00 X   2      54.480  20.635  26.2910  0.00  0.00     0.000 N
ATOM     30  HD  A00 X   2      54.883  19.869  26.3250  0.00  0.00     0.000 HD
ATOM     30   O  A00 X   2      54.498  18.527  25.2840  0.00  0.00     0.000 OA
ATOM     31   S  A00 X   2      55.135  19.786  25.1290  0.00  0.00     0.000 S
ATOM     32   O  A00 X   2      54.777  20.503  23.9440  0.00  0.00     0.000 OA
ATOM     33   O  A00 X   2      56.554  19.824  25.3240  0.00  0.00     0.000 OA
ENDBRANCH 21 30
BRANCH 24 34
ATOM     34   C  A00 X   2      56.379  23.992  29.9450  0.00  0.00     0.000 C
ATOM     35   O  A00 X   2      55.848  27.218  28.3430  0.00  0.00     0.000 OA
ATOM     36   O  A00 X   2      56.331  25.029  28.9450  0.00  0.00     0.000 O
ATOM     37   O  A00 X   2      54.103  25.742  28.9520  0.00  0.00     0.000 OA
ATOM     38   S  A00 X   2      55.399  26.249  29.2880  0.00  0.00     0.000 S
ATOM     39   O  A00 X   2      55.649  26.576  30.6590  0.00  0.00     0.000 OA
ENDBRANCH 24 34
BRANCH 20 40
ATOM     40  O4  A00 X   3      53.515  21.236  29.3420  0.00  0.00     0.000 O
BRANCH 40 44
ATOM     41  C1  A00 X   3      52.594  22.105  32.7360  0.00  0.00     0.000 C
ATOM     42  C2  A00 X   3      52.422  20.705  32.1090  0.00  0.00     0.000 C
ATOM     43  C3  A00 X   3      51.686  20.793  30.7470  0.00  0.00     0.000 C
ATOM     44  C4  A00 X   3      52.266  21.814  29.7780  0.00  0.00     0.000 C
ATOM     45  C5  A00 X   3      52.404  23.195  30.4790  0.00  0.00     0.000 C
ATOM     46  O5  A00 X   3      53.095  23.063  31.7630  0.00  0.00     0.000 O
ATOM     47   O  A00 X   3      51.394  19.548  30.1150  0.00  0.00     0.000 O
ATOM     49  HD  A00 X   3      51.605  19.990  29.4010  0.00  0.00     0.000 HD
BRANCH 42 49
ATOM     49   O  A00 X   3      53.745  20.144  31.9580  0.00  0.00     0.000 O
ATOM     50   O  A00 X   3      54.682  18.136  31.0520  0.00  0.00     0.000 OA
ATOM     51   O  A00 X   3      52.697  17.994  32.3290  0.00  0.00     0.000 OA
ATOM     52   O  A00 X   3      54.705  18.584  33.4280  0.00  0.00     0.000 OA
ATOM     53   S  A00 X   3      53.987  18.626  32.2010  0.00  0.00     0.000 S
ENDBRANCH 42 49
BRANCH 45 54
ATOM     54   C  A00 X   3      51.052  23.911  30.5920  0.00  0.00     0.000 C
ATOM     55   O  A00 X   3      50.995  25.075  30.9330  0.00  0.00     0.000 OA
ATOM     56   O  A00 X   3      50.011  23.324  30.3420  0.00  0.00     0.000 OA
ENDBRANCH 45 54
BRANCH 41 57
ATOM     57  O4  A00 X   4      51.395  22.535  33.4190  0.00  0.00     0.000 O
BRANCH 57 61
ATOM     58  C1  A00 X   4      50.719  24.951  36.9330  0.00  0.00     0.000 C
ATOM     59  C2  A00 X   4      51.422  25.597  35.7130  0.00  0.00     0.000 C
ATOM     60  C3  A00 X   4      51.287  24.772  34.4170  0.00  0.00     0.000 C
ATOM     61  C4  A00 X   4      51.618  23.282  34.6490  0.00  0.00     0.000 C
ATOM     62  C5  A00 X   4      50.656  22.788  35.7580  0.00  0.00     0.000 C
ATOM     63  O5  A00 X   4      50.924  23.520  36.9820  0.00  0.00     0.000 O
BRANCH 59 66
ATOM     64   N  A00 X   4      52.870  25.702  35.9660  0.00  0.00     0.000 N
ATOM     66  HD  A00 X   4      53.226  25.123  36.5030  0.00  0.00     0.000 HD
ATOM     66   O  A00 X   4      52.407  27.715  37.2030  0.00  0.00     0.000 OA
ATOM     67   S  A00 X   4      53.456  27.112  36.4420  0.00  0.00     0.000 S
ATOM     68   O  A00 X   4      54.595  26.678  37.1970  0.00  0.00     0.000 OA
ATOM     69   O  A00 X   4      53.780  27.694  35.1700  0.00  0.00     0.000 OA
ENDBRANCH 59 66
BRANCH 62 70
ATOM     70   C  A00 X   4      50.761  21.274  36.0580  0.00  0.00     0.000 C
ATOM     71   O  A00 X   4      53.475  19.462  37.6270  0.00  0.00     0.000 OA
ATOM     72   O  A00 X   4      52.289  19.030  35.6390  0.00  0.00     0.000 OA
ATOM     73   O  A00 X   4      51.895  21.036  36.9070  0.00  0.00     0.000 O
ATOM     74   O  A00 X   4      53.958  20.805  35.6830  0.00  0.00     0.000 OA
ATOM     75   S  A00 X   4      52.994  20.037  36.4020  0.00  0.00     0.000 S
ENDBRANCH 62 70
ENDBRANCH 57 61
ENDBRANCH 41 57
ENDBRANCH 40 44
ENDBRANCH 20 40
ENDBRANCH 19 23
ENDBRANCH 1 19
TORSDOF 14
ENDMDL
MODEL 24
REMARK VINA RESULT:      -0.2     66.503     71.439
ROOT
ATOM      1  C1  A00 X   1      33.710  48.425  57.9130  0.00  0.00     0.000 C
ATOM      2  C2  A00 X   1      34.072  48.582  56.4120  0.00  0.00     0.000 C
ATOM      3  C3  A00 X   1      35.536  49.035  56.1020  0.00  0.00     0.000 C
ATOM      4  C4  A00 X   1      36.324  49.620  57.3030  0.00  0.00     0.000 C
ATOM      5  C5  A00 X   1      35.398  50.147  58.3990  0.00  0.00     0.000 C
ATOM      6  O5  A00 X   1      34.664  48.986  58.8490  0.00  0.00     0.000 O
ATOM      7   O  A00 X   1      35.498  50.056  55.1070  0.00  0.00     0.000 O
ATOM      9  HD  A00 X   1      36.090  50.293  55.6940  0.00  0.00     0.000 HD
ATOM      9   O  A00 X   1      37.225  48.660  57.8530  0.00  0.00     0.000 O
ATOM     11  HD  A00 X   1      37.817  48.897  58.4400  0.00  0.00     0.000 HD
ENDROOT
BRANCH 2 11
ATOM     11   O  A00 X   1      33.825  47.317  55.7670  0.00  0.00     0.000 O
ATOM     12   O  A00 X   1      34.461  46.909  53.4880  0.00  0.00     0.000 OA
ATOM     13   O  A00 X   1      32.782  48.601  53.9700  0.00  0.00     0.000 OA
ATOM     14   O  A00 X   1      32.305  46.297  54.3180  0.00  0.00     0.000 OA
ATOM     15   S  A00 X   1      33.327  47.308  54.2810  0.00  0.00     0.000 S
ENDBRANCH 2 11
BRANCH 5 16
ATOM     16   C  A00 X   1      34.499  51.316  57.9810  0.00  0.00     0.000 C
ATOM     17   O  A00 X   1      33.595  51.646  58.7210  0.00  0.00     0.000 OA
ATOM     18   O  A00 X   1      34.663  51.925  56.9430  0.00  0.00     0.000 OA
ENDBRANCH 5 16
BRANCH 1 19
ATOM     19  O4  A00 X   2      32.360  48.857  58.2130  0.00  0.00     0.000 O
BRANCH 19 23
ATOM     20  C1  A00 X   2      31.628  45.667  60.9800  0.00  0.00     0.000 C
ATOM     21  C2  A00 X   2      31.101  45.495  59.5350  0.00  0.00     0.000 C
ATOM     22  C3  A00 X   2      31.796  46.482  58.5750  0.00  0.00     0.000 C
ATOM     23  C4  A00 X   2      31.660  47.932  59.0940  0.00  0.00     0.000 C
ATOM     24  C5  A00 X   2      32.203  47.968  60.5490  0.00  0.00     0.000 C
ATOM     25  O5  A00 X   2      31.421  47.054  61.3620  0.00  0.00     0.000 O
ATOM     26   O  A00 X   2      31.325  46.236  57.2390  0.00  0.00     0.000 O
ATOM     28  HD  A00 X   2      30.492  46.259  57.4750  0.00  0.00     0.000 HD
BRANCH 21 30
ATOM     28   N  A00 X   2      29.949  44.770  60.0820  0.00  0.00     0.000 N
ATOM     30  HD  A00 X   2      29.972  44.602  59.2330  0.00  0.00     0.000 HD
ATOM     30   O  A00 X   2      29.284  43.172  58.5130  0.00  0.00     0.000 OA
ATOM     31   S  A00 X   2      28.778  44.360  59.1030  0.00  0.00     0.000 S
ATOM     32   O  A00 X   2      27.659  44.172  59.9750  0.00  0.00     0.000 OA
ATOM     33   O  A00 X   2      28.546  45.472  58.2300  0.00  0.00     0.000 OA
ENDBRANCH 21 30
BRANCH 24 34
ATOM     34   C  A00 X   2      32.392  49.349  61.2190  0.00  0.00     0.000 C
ATOM     35   O  A00 X   2      29.723  51.784  61.6650  0.00  0.00     0.000 OA
ATOM     36   O  A00 X   2      31.279  50.222  60.9410  0.00  0.00     0.000 O
ATOM     37   O  A00 X   2      29.627  49.559  62.4590  0.00  0.00     0.000 OA
ATOM     38   S  A00 X   2      30.464  50.691  62.2020  0.00  0.00     0.000 S
ATOM     39   O  A00 X   2      31.429  51.043  63.2000  0.00  0.00     0.000 OA
ENDBRANCH 24 34
BRANCH 20 40
ATOM     40  O4  A00 X   3      33.035  45.393  60.9160  0.00  0.00     0.000 O
BRANCH 40 44
ATOM     41  C1  A00 X   3      36.379  46.380  61.8980  0.00  0.00     0.000 C
ATOM     42  C2  A00 X   3      36.049  45.185  60.9780  0.00  0.00     0.000 C
ATOM     43  C3  A00 X   3      34.975  44.270  61.6200  0.00  0.00     0.000 C
ATOM     44  C4  A00 X   3      33.734  45.002  62.1170  0.00  0.00     0.000 C
ATOM     45  C5  A00 X   3      34.147  46.184  63.0380  0.00  0.00     0.000 C
ATOM     46  O5  A00 X   3      35.169  47.015  62.3970  0.00  0.00     0.000 O
ATOM     47   O  A00 X   3      34.653  43.084  60.8960  0.00  0.00     0.000 O
ATOM     49  HD  A00 X   3      33.851  43.276  61.1590  0.00  0.00     0.000 HD
BRANCH 42 49
ATOM     49   O  A00 X   3      35.594  45.732  59.7210  0.00  0.00     0.000 O
ATOM     50   O  A00 X   3      34.773  44.861  57.6480  0.00  0.00     0.000 OA
ATOM     51   O  A00 X   3      36.599  43.784  58.6960  0.00  0.00     0.000 OA
ATOM     52   O  A00 X   3      36.928  45.947  57.8010  0.00  0.00     0.000 OA
ATOM     53   S  A00 X   3      35.987  45.050  58.3780  0.00  0.00     0.000 S
ENDBRANCH 42 49
BRANCH 45 54
ATOM     54   C  A00 X   3      34.553  45.700  64.4350  0.00  0.00     0.000 C
ATOM     55   O  A00 X   3      34.720  46.492  65.3400  0.00  0.00     0.000 OA
ATOM     56   O  A00 X   3      34.715  44.512  64.6630  0.00  0.00     0.000 OA
ENDBRANCH 45 54
BRANCH 41 57
ATOM     57  O4  A00 X   4      37.319  46.014  62.9330  0.00  0.00     0.000 O
BRANCH 57 61
ATOM     58  C1  A00 X   4      40.474  48.174  64.9380  0.00  0.00     0.000 C
ATOM     59  C2  A00 X   4      39.019  48.690  65.0740  0.00  0.00     0.000 C
ATOM     60  C3  A00 X   4      37.959  47.661  64.6320  0.00  0.00     0.000 C
ATOM     61  C4  A00 X   4      38.303  47.034  63.2640  0.00  0.00     0.000 C
ATOM     62  C5  A00 X   4      39.706  46.396  63.4190  0.00  0.00     0.000 C
ATOM     63  O5  A00 X   4      40.674  47.436  63.7100  0.00  0.00     0.000 O
BRANCH 59 66
ATOM     64   N  A00 X   4      38.822  49.863  64.2040  0.00  0.00     0.000 N
ATOM     66  HD  A00 X   4      39.314  49.921  63.4940  0.00  0.00     0.000 HD
ATOM     66   O  A00 X   4      39.822  51.196  65.9430  0.00  0.00     0.000 OA
ATOM     67   S  A00 X   4      38.889  51.317  64.8670  0.00  0.00     0.000 S
ATOM     68   O  A00 X   4      39.337  52.092  63.7460  0.00  0.00     0.000 OA
ATOM     69   O  A00 X   4      37.505  51.508  65.1980  0.00  0.00     0.000 OA
ENDBRANCH 59 66
BRANCH 62 70
ATOM     70   C  A00 X   4      40.185  45.614  62.1720  0.00  0.00     0.000 C
ATOM     71   O  A00 X   4      41.152  46.901  58.9290  0.00  0.00     0.000 OA
ATOM     72   O  A00 X   4      39.681  45.157  59.5120  0.00  0.00     0.000 OA
ATOM     73   O  A00 X   4      40.695  46.539  61.1980  0.00  0.00     0.000 O
ATOM     74   O  A00 X   4      38.974  47.472  59.7930  0.00  0.00     0.000 OA
ATOM     75   S  A00 X   4      40.048  46.531  59.7700  0.00  0.00     0.000 S
ENDBRANCH 62 70
ENDBRANCH 57 61
ENDBRANCH 41 57
ENDBRANCH 40 44
ENDBRANCH 20 40
ENDBRANCH 19 23
ENDBRANCH 1 19
TORSDOF 14
ENDMDL
MODEL 25
REMARK VINA RESULT:      -0.2     57.918     62.500
ROOT
ATOM      1  C1  A00 X   1      21.808  62.785  30.3540  0.00  0.00     0.000 C
ATOM      2  C2  A00 X   1      22.418  61.735  31.3200  0.00  0.00     0.000 C
ATOM      3  C3  A00 X   1      21.907  61.782  32.7980  0.00  0.00     0.000 C
ATOM      4  C4  A00 X   1      21.152  63.074  33.2030  0.00  0.00     0.000 C
ATOM      5  C5  A00 X   1      21.506  64.257  32.3010  0.00  0.00     0.000 C
ATOM      6  O5  A00 X   1      21.065  63.858  30.9840  0.00  0.00     0.000 O
ATOM      7   O  A00 X   1      23.028  61.677  33.6730  0.00  0.00     0.000 O
ATOM      9  HD  A00 X   1      22.499  62.276  34.0070  0.00  0.00     0.000 HD
ATOM      9   O  A00 X   1      19.739  62.875  33.2040  0.00  0.00     0.000 O
ATOM     11  HD  A00 X   1      19.210  63.473  33.5380  0.00  0.00     0.000 HD
ENDROOT
BRANCH 2 11
ATOM     11   O  A00 X   1      22.151  60.429  30.7730  0.00  0.00     0.000 O
ATOM     12   O  A00 X   1      22.650  58.418  31.9860  0.00  0.00     0.000 OA
ATOM     13   O  A00 X   1      24.470  59.886  31.3170  0.00  0.00     0.000 OA
ATOM     14   O  A00 X   1      23.238  58.673  29.6840  0.00  0.00     0.000 OA
ATOM     15   S  A00 X   1      23.206  59.289  30.9830  0.00  0.00     0.000 S
ENDBRANCH 2 11
BRANCH 5 16
ATOM     16   C  A00 X   1      22.974  64.692  32.3500  0.00  0.00     0.000 C
ATOM     17   O  A00 X   1      23.376  65.477  31.5150  0.00  0.00     0.000 OA
ATOM     18   O  A00 X   1      23.746  64.288  33.1960  0.00  0.00     0.000 OA
ENDBRANCH 5 16
BRANCH 1 19
ATOM     19  O4  A00 X   2      22.772  63.299  29.4020  0.00  0.00     0.000 O
BRANCH 19 23
ATOM     20  C1  A00 X   2      19.986  63.361  26.1470  0.00  0.00     0.000 C
ATOM     21  C2  A00 X   2      20.935  62.143  26.2510  0.00  0.00     0.000 C
ATOM     22  C3  A00 X   2      21.550  62.046  27.6630  0.00  0.00     0.000 C
ATOM     23  C4  A00 X   2      22.236  63.376  28.0500  0.00  0.00     0.000 C
ATOM     24  C5  A00 X   2      21.191  64.513  27.8860  0.00  0.00     0.000 C
ATOM     25  O5  A00 X   2      20.747  64.545  26.5050  0.00  0.00     0.000 O
ATOM     26   O  A00 X   2      22.367  60.864  27.7300  0.00  0.00     0.000 O
ATOM     28  HD  A00 X   2      22.795  61.058  27.0020  0.00  0.00     0.000 HD
BRANCH 21 30
ATOM     28   N  A00 X   2      20.969  62.092  24.7860  0.00  0.00     0.000 N
ATOM     30  HD  A00 X   2      21.277  61.334  25.0710  0.00  0.00     0.000 HD
ATOM     30   O  A00 X   2      21.228  59.862  24.1420  0.00  0.00     0.000 OA
ATOM     31   S  A00 X   2      21.959  61.078  24.0860  0.00  0.00     0.000 S
ATOM     32   O  A00 X   2      22.127  61.621  22.7740  0.00  0.00     0.000 OA
ATOM     33   O  A00 X   2      23.196  61.127  24.8070  0.00  0.00     0.000 OA
ENDBRANCH 21 30
BRANCH 24 34
ATOM     34   C  A00 X   2      21.554  65.916  28.4290  0.00  0.00     0.000 C
ATOM     35   O  A00 X   2      21.882  68.887  26.3500  0.00  0.00     0.000 OA
ATOM     36   O  A00 X   2      21.956  66.800  27.3640  0.00  0.00     0.000 O
ATOM     37   O  A00 X   2      19.944  67.533  26.4250  0.00  0.00     0.000 OA
ATOM     38   S  A00 X   2      21.046  68.067  27.1640  0.00  0.00     0.000 S
ATOM     39   O  A00 X   2      20.779  68.584  28.4730  0.00  0.00     0.000 OA
ENDBRANCH 24 34
BRANCH 20 40
ATOM     40  O4  A00 X   3      18.959  63.138  27.1240  0.00  0.00     0.000 O
BRANCH 40 44
ATOM     41  C1  A00 X   3      16.899  64.522  29.7630  0.00  0.00     0.000 C
ATOM     42  C2  A00 X   3      16.874  63.046  29.3100  0.00  0.00     0.000 C
ATOM     43  C3  A00 X   3      16.709  62.941  27.7720  0.00  0.00     0.000 C
ATOM     44  C4  A00 X   3      17.682  63.795  26.9700  0.00  0.00     0.000 C
ATOM     45  C5  A00 X   3      17.647  65.263  27.4800  0.00  0.00     0.000 C
ATOM     46  O5  A00 X   3      17.796  65.315  28.9360  0.00  0.00     0.000 O
ATOM     47   O  A00 X   3      16.586  61.620  27.2480  0.00  0.00     0.000 O
ATOM     49  HD  A00 X   3      17.081  61.946  26.6160  0.00  0.00     0.000 HD
BRANCH 42 49
ATOM     49   O  A00 X   3      18.113  62.447  29.7500  0.00  0.00     0.000 O
ATOM     50   O  A00 X   3      19.165  60.306  29.5600  0.00  0.00     0.000 OA
ATOM     51   O  A00 X   3      16.845  60.402  30.0020  0.00  0.00     0.000 OA
ATOM     52   O  A00 X   3      18.342  61.129  31.6800  0.00  0.00     0.000 OA
ATOM     53   S  A00 X   3      18.134  60.984  30.2800  0.00  0.00     0.000 S
ENDBRANCH 42 49
BRANCH 45 54
ATOM     54   C  A00 X   3      16.407  66.010  26.9740  0.00  0.00     0.000 C
ATOM     55   O  A00 X   3      15.529  65.419  26.3780  0.00  0.00     0.000 OA
ATOM     56   O  A00 X   3      16.280  67.211  27.1600  0.00  0.00     0.000 OA
ENDBRANCH 45 54
BRANCH 41 57
ATOM     57  O4  A00 X   4      15.566  65.069  29.8750  0.00  0.00     0.000 O
BRANCH 57 61
ATOM     58  C1  A00 X   4      13.796  67.980  32.5270  0.00  0.00     0.000 C
ATOM     59  C2  A00 X   4      14.959  68.426  31.6060  0.00  0.00     0.000 C
ATOM     60  C3  A00 X   4      15.262  67.428  30.4700  0.00  0.00     0.000 C
ATOM     61  C4  A00 X   4      15.363  65.978  30.9930  0.00  0.00     0.000 C
ATOM     62  C5  A00 X   4      14.016  65.674  31.6940  0.00  0.00     0.000 C
ATOM     63  O5  A00 X   4      13.854  66.566  32.8260  0.00  0.00     0.000 O
BRANCH 59 66
ATOM     64   N  A00 X   4      16.216  68.539  32.3680  0.00  0.00     0.000 N
ATOM     66  HD  A00 X   4      16.307  68.032  33.0650  0.00  0.00     0.000 HD
ATOM     66   O  A00 X   4      15.467  70.711  33.0900  0.00  0.00     0.000 OA
ATOM     67   S  A00 X   4      16.679  69.990  32.8550  0.00  0.00     0.000 S
ATOM     68   O  A00 X   4      17.427  69.643  34.0280  0.00  0.00     0.000 OA
ATOM     69   O  A00 X   4      17.488  70.386  31.7380  0.00  0.00     0.000 OA
ENDBRANCH 59 66
BRANCH 62 70
ATOM     70   C  A00 X   4      13.879  64.216  32.1950  0.00  0.00     0.000 C
ATOM     71   O  A00 X   4      15.626  62.586  34.9150  0.00  0.00     0.000 OA
ATOM     72   O  A00 X   4      15.272  61.901  32.6900  0.00  0.00     0.000 OA
ATOM     73   O  A00 X   4      14.574  64.076  33.4440  0.00  0.00     0.000 O
ATOM     74   O  A00 X   4      16.925  63.626  33.1700  0.00  0.00     0.000 OA
ATOM     75   S  A00 X   4      15.702  62.990  33.5390  0.00  0.00     0.000 S
ENDBRANCH 62 70
ENDBRANCH 57 61
ENDBRANCH 41 57
ENDBRANCH 40 44
ENDBRANCH 20 40
ENDBRANCH 19 23
ENDBRANCH 1 19
TORSDOF 14
ENDMDL
MODEL 26
REMARK VINA RESULT:      -0.2     47.672     52.278
ROOT
ATOM      1  C1  A00 X   1      51.908  44.477   9.5240  0.00  0.00     0.000 C
ATOM      2  C2  A00 X   1      52.396  45.900   9.9040  0.00  0.00     0.000 C
ATOM      3  C3  A00 X   1      53.281  46.630   8.8400  0.00  0.00     0.000 C
ATOM      4  C4  A00 X   1      53.862  45.727   7.7210  0.00  0.00     0.000 C
ATOM      5  C5  A00 X   1      53.930  44.259   8.1420  0.00  0.00     0.000 C
ATOM      6  O5  A00 X   1      52.555  43.879   8.3730  0.00  0.00     0.000 O
ATOM      7   O  A00 X   1      54.396  47.223   9.5010  0.00  0.00     0.000 O
ATOM      9  HD  A00 X   1      54.691  46.876   8.7650  0.00  0.00     0.000 HD
ATOM      9   O  A00 X   1      53.114  45.848   6.5110  0.00  0.00     0.000 O
ATOM     11  HD  A00 X   1      53.410  45.501   5.7750  0.00  0.00     0.000 HD
ENDROOT
BRANCH 2 11
ATOM     11   O  A00 X   1      51.232  46.705  10.1770  0.00  0.00     0.000 O
ATOM     12   O  A00 X   1      51.386  49.068  10.5750  0.00  0.00     0.000 OA
ATOM     13   O  A00 X   1      52.437  47.526  12.1360  0.00  0.00     0.000 OA
ATOM     14   O  A00 X   1      50.068  47.643  11.9700  0.00  0.00     0.000 OA
ATOM     15   S  A00 X   1      51.318  47.813  11.2810  0.00  0.00     0.000 S
ENDBRANCH 2 11
BRANCH 5 16
ATOM     16   C  A00 X   1      54.855  43.966   9.3280  0.00  0.00     0.000 C
ATOM     17   O  A00 X   1      54.804  42.871   9.8480  0.00  0.00     0.000 OA
ATOM     18   O  A00 X   1      55.639  44.787   9.7600  0.00  0.00     0.000 OA
ENDBRANCH 5 16
BRANCH 1 19
ATOM     19  O4  A00 X   2      51.895  43.569  10.6530  0.00  0.00     0.000 O
BRANCH 19 23
ATOM     20  C1  A00 X   2      48.241  41.665   9.4730  0.00  0.00     0.000 C
ATOM     21  C2  A00 X   2      48.152  42.782  10.5400  0.00  0.00     0.000 C
ATOM     22  C3  A00 X   2      49.432  43.645  10.5400  0.00  0.00     0.000 C
ATOM     23  C4  A00 X   2      50.686  42.758  10.7040  0.00  0.00     0.000 C
ATOM     24  C5  A00 X   2      50.648  41.673   9.5930  0.00  0.00     0.000 C
ATOM     25  O5  A00 X   2      49.437  40.888   9.7480  0.00  0.00     0.000 O
ATOM     26   O  A00 X   2      49.272  44.707  11.4970  0.00  0.00     0.000 O
ATOM     28  HD  A00 X   2      49.023  44.168  12.1280  0.00  0.00     0.000 HD
BRANCH 21 30
ATOM     28   N  A00 X   2      47.058  42.039  11.1730  0.00  0.00     0.000 N
ATOM     30  HD  A00 X   2      47.036  42.842  11.4960  0.00  0.00     0.000 HD
ATOM     30   O  A00 X   2      45.600  43.582  12.1480  0.00  0.00     0.000 OA
ATOM     31   S  A00 X   2      46.491  42.555  12.5550  0.00  0.00     0.000 S
ATOM     32   O  A00 X   2      45.863  41.398  13.1160  0.00  0.00     0.000 OA
ATOM     33   O  A00 X   2      47.614  42.948  13.3530  0.00  0.00     0.000 OA
ENDBRANCH 21 30
BRANCH 24 34
ATOM     34   C  A00 X   2      51.907  40.796   9.3920  0.00  0.00     0.000 C
ATOM     35   O  A00 X   2      53.301  38.610  11.9480  0.00  0.00     0.000 OA
ATOM     36   O  A00 X   2      52.422  40.324  10.6530  0.00  0.00     0.000 O
ATOM     37   O  A00 X   2      51.064  38.495  11.1870  0.00  0.00     0.000 OA
ATOM     38   S  A00 X   2      52.425  38.761  10.8330  0.00  0.00     0.000 S
ATOM     39   O  A00 X   2      52.910  38.213   9.6010  0.00  0.00     0.000 OA
ENDBRANCH 24 34
BRANCH 20 40
ATOM     40  O4  A00 X   3      48.387  42.340   8.2150  0.00  0.00     0.000 O
BRANCH 40 44
ATOM     41  C1  A00 X   3      50.099  42.524   5.0280  0.00  0.00     0.000 C
ATOM     42  C2  A00 X   3      49.016  43.516   5.5040  0.00  0.00     0.000 C
ATOM     43  C3  A00 X   3      47.751  42.765   5.9940  0.00  0.00     0.000 C
ATOM     44  C4  A00 X   3      48.025  41.653   6.9980  0.00  0.00     0.000 C
ATOM     45  C5  A00 X   3      49.119  40.695   6.4480  0.00  0.00     0.000 C
ATOM     46  O5  A00 X   3      50.289  41.447   5.9870  0.00  0.00     0.000 O
ATOM     47   O  A00 X   3      46.649  43.584   6.3770  0.00  0.00     0.000 O
ATOM     49  HD  A00 X   3      46.568  42.989   7.0000  0.00  0.00     0.000 HD
BRANCH 42 49
ATOM     49   O  A00 X   3      49.602  44.308   6.5600  0.00  0.00     0.000 O
ATOM     50   O  A00 X   3      48.871  46.053   8.0260  0.00  0.00     0.000 OA
ATOM     51   O  A00 X   3      48.205  46.114   5.7590  0.00  0.00     0.000 OA
ATOM     52   O  A00 X   3      50.485  46.465   6.2730  0.00  0.00     0.000 OA
ATOM     53   S  A00 X   3      49.279  45.826   6.6760  0.00  0.00     0.000 S
ENDBRANCH 42 49
BRANCH 45 54
ATOM     54   C  A00 X   3      48.557  39.743   5.3850  0.00  0.00     0.000 C
ATOM     55   O  A00 X   3      49.235  38.837   4.9460  0.00  0.00     0.000 OA
ATOM     56   O  A00 X   3      47.421  39.881   4.9600  0.00  0.00     0.000 OA
ENDBRANCH 45 54
BRANCH 41 57
ATOM     57  O4  A00 X   4      49.853  42.071   3.6780  0.00  0.00     0.000 O
BRANCH 57 61
ATOM     58  C1  A00 X   4      52.464  40.979   0.4180  0.00  0.00     0.000 C
ATOM     59  C2  A00 X   4      52.515  40.142   1.7210  0.00  0.00     0.000 C
ATOM     60  C3  A00 X   4      51.313  40.388   2.6560  0.00  0.00     0.000 C
ATOM     61  C4  A00 X   4      51.043  41.894   2.8580  0.00  0.00     0.000 C
ATOM     62  C5  A00 X   4      50.814  42.489   1.4460  0.00  0.00     0.000 C
ATOM     63  O5  A00 X   4      52.025  42.335   0.6620  0.00  0.00     0.000 O
BRANCH 59 66
ATOM     64   N  A00 X   4      53.709  40.510   2.5020  0.00  0.00     0.000 N
ATOM     66  HD  A00 X   4      54.020  41.312   2.4030  0.00  0.00     0.000 HD
ATOM     66   O  A00 X   4      54.968  39.019   1.0910  0.00  0.00     0.000 OA
ATOM     67   S  A00 X   4      54.994  39.561   2.4140  0.00  0.00     0.000 S
ATOM     68   O  A00 X   4      56.036  40.512   2.6700  0.00  0.00     0.000 OA
ATOM     69   O  A00 X   4      54.727  38.671   3.5080  0.00  0.00     0.000 OA
ENDBRANCH 59 66
BRANCH 62 70
ATOM     70   C  A00 X   4      50.416  43.984   1.4470  0.00  0.00     0.000 C
ATOM     71   O  A00 X   4      52.446  46.865   2.2770  0.00  0.00     0.000 OA
ATOM     72   O  A00 X   4      50.292  46.246   3.0000  0.00  0.00     0.000 OA
ATOM     73   O  A00 X   4      51.596  44.790   1.5980  0.00  0.00     0.000 O
ATOM     74   O  A00 X   4      52.242  45.093   3.9000  0.00  0.00     0.000 OA
ATOM     75   S  A00 X   4      51.651  45.791   2.8040  0.00  0.00     0.000 S
ENDBRANCH 62 70
ENDBRANCH 57 61
ENDBRANCH 41 57
ENDBRANCH 40 44
ENDBRANCH 20 40
ENDBRANCH 19 23
ENDBRANCH 1 19
TORSDOF 14
ENDMDL
MODEL 27
REMARK VINA RESULT:      -0.2     56.207     61.541
ROOT
ATOM      1  C1  A00 X   1      33.728  61.817  10.6420  0.00  0.00     0.000 C
ATOM      2  C2  A00 X   1      33.539  61.201   9.2300  0.00  0.00     0.000 C
ATOM      3  C3  A00 X   1      34.070  62.055   8.0320  0.00  0.00     0.000 C
ATOM      4  C4  A00 X   1      34.377  63.540   8.3530  0.00  0.00     0.000 C
ATOM      5  C5  A00 X   1      33.615  64.034   9.5830  0.00  0.00     0.000 C
ATOM      6  O5  A00 X   1      34.105  63.216  10.6700  0.00  0.00     0.000 O
ATOM      7   O  A00 X   1      33.086  62.058   7.0000  0.00  0.00     0.000 O
ATOM      9  HD  A00 X   1      33.403  62.862   7.0530  0.00  0.00     0.000 HD
ATOM      9   O  A00 X   1      35.776  63.758   8.5320  0.00  0.00     0.000 O
ATOM     11  HD  A00 X   1      36.093  64.562   8.5850  0.00  0.00     0.000 HD
ENDROOT
BRANCH 2 11
ATOM     11   O  A00 X   1      34.195  59.918   9.2200  0.00  0.00     0.000 O
ATOM     12   O  A00 X   1      34.455  58.640   7.2040  0.00  0.00     0.000 OA
ATOM     13   O  A00 X   1      32.219  59.079   8.0560  0.00  0.00     0.000 OA
ATOM     14   O  A00 X   1      33.697  57.637   9.2370  0.00  0.00     0.000 OA
ATOM     15   S  A00 X   1      33.590  58.764   8.3490  0.00  0.00     0.000 S
ENDBRANCH 2 11
BRANCH 5 16
ATOM     16   C  A00 X   1      32.089  64.024   9.4480  0.00  0.00     0.000 C
ATOM     17   O  A00 X   1      31.417  64.204  10.4420  0.00  0.00     0.000 OA
ATOM     18   O  A00 X   1      31.531  63.850   8.3830  0.00  0.00     0.000 OA
ENDBRANCH 5 16
BRANCH 1 19
ATOM     19  O4  A00 X   2      32.608  61.554  11.5230  0.00  0.00     0.000 O
BRANCH 19 23
ATOM     20  C1  A00 X   2      35.073  60.892  14.9650  0.00  0.00     0.000 C
ATOM     21  C2  A00 X   2      34.583  59.647  14.1870  0.00  0.00     0.000 C
ATOM     22  C3  A00 X   2      34.096  60.037  12.7760  0.00  0.00     0.000 C
ATOM     23  C4  A00 X   2      33.029  61.152  12.8580  0.00  0.00     0.000 C
ATOM     24  C5  A00 X   2      33.634  62.329  13.6720  0.00  0.00     0.000 C
ATOM     25  O5  A00 X   2      33.982  61.850  14.9970  0.00  0.00     0.000 O
ATOM     26   O  A00 X   2      33.717  58.842  12.0720  0.00  0.00     0.000 O
ATOM     28  HD  A00 X   2      33.218  58.558  12.7210  0.00  0.00     0.000 HD
BRANCH 21 30
ATOM     28   N  A00 X   2      34.502  58.929  15.4630  0.00  0.00     0.000 N
ATOM     30  HD  A00 X   2      34.474  58.331  14.8370  0.00  0.00     0.000 HD
ATOM     30   O  A00 X   2      34.963  56.675  15.0590  0.00  0.00     0.000 OA
ATOM     31   S  A00 X   2      33.871  57.480  15.4790  0.00  0.00     0.000 S
ATOM     32   O  A00 X   2      33.475  57.297  16.8410  0.00  0.00     0.000 OA
ATOM     33   O  A00 X   2      32.721  57.509  14.6260  0.00  0.00     0.000 OA
ENDBRANCH 21 30
BRANCH 24 34
ATOM     34   C  A00 X   2      32.854  63.664  13.7060  0.00  0.00     0.000 C
ATOM     35   O  A00 X   2      31.456  65.136  16.7290  0.00  0.00     0.000 OA
ATOM     36   O  A00 X   2      32.129  63.815  14.9420  0.00  0.00     0.000 O
ATOM     37   O  A00 X   2      33.735  64.555  16.4730  0.00  0.00     0.000 OA
ATOM     38   S  A00 X   2      32.556  65.044  15.8250  0.00  0.00     0.000 S
ATOM     39   O  A00 X   2      32.702  66.153  14.9320  0.00  0.00     0.000 OA
ENDBRANCH 24 34
BRANCH 20 40
ATOM     40  O4  A00 X   3      36.159  61.428  14.1940  0.00  0.00     0.000 O
BRANCH 40 44
ATOM     41  C1  A00 X   3      37.794  64.342  12.7940  0.00  0.00     0.000 C
ATOM     42  C2  A00 X   3      38.273  62.887  12.6030  0.00  0.00     0.000 C
ATOM     43  C3  A00 X   3      38.381  62.154  13.9650  0.00  0.00     0.000 C
ATOM     44  C4  A00 X   3      37.141  62.264  14.8430  0.00  0.00     0.000 C
ATOM     45  C5  A00 X   3      36.724  63.754  14.9920  0.00  0.00     0.000 C
ATOM     46  O5  A00 X   3      36.645  64.408  13.6840  0.00  0.00     0.000 O
ATOM     47   O  A00 X   3      38.899  60.826  13.9190  0.00  0.00     0.000 O
ATOM     49  HD  A00 X   3      38.292  60.689  14.5210  0.00  0.00     0.000 HD
BRANCH 42 49
ATOM     49   O  A00 X   3      37.323  62.240  11.7290  0.00  0.00     0.000 O
ATOM     50   O  A00 X   3      37.020  60.046  10.8190  0.00  0.00     0.000 OA
ATOM     51   O  A00 X   3      39.201  60.955  10.9050  0.00  0.00     0.000 OA
ATOM     52   O  A00 X   3      37.635  61.923   9.4230  0.00  0.00     0.000 OA
ATOM     53   S  A00 X   3      37.808  61.227  10.6510  0.00  0.00     0.000 S
ENDBRANCH 42 49
BRANCH 45 54
ATOM     54   C  A00 X   3      37.625  64.499  15.9850  0.00  0.00     0.000 C
ATOM     55   O  A00 X   3      37.372  65.639  16.3150  0.00  0.00     0.000 OA
ATOM     56   O  A00 X   3      38.612  63.959  16.4600  0.00  0.00     0.000 OA
ENDBRANCH 45 54
BRANCH 41 57
ATOM     57  O4  A00 X   4      38.880  65.217  13.1720  0.00  0.00     0.000 O
BRANCH 57 61
ATOM     58  C1  A00 X   4      39.738  69.366  12.3430  0.00  0.00     0.000 C
ATOM     59  C2  A00 X   4      38.452  69.019  13.1340  0.00  0.00     0.000 C
ATOM     60  C3  A00 X   4      38.435  67.575  13.6760  0.00  0.00     0.000 C
ATOM     61  C4  A00 X   4      38.831  66.551  12.5900  0.00  0.00     0.000 C
ATOM     62  C5  A00 X   4      40.235  66.969  12.0880  0.00  0.00     0.000 C
ATOM     63  O5  A00 X   4      40.152  68.283  11.4800  0.00  0.00     0.000 O
BRANCH 59 66
ATOM     64   N  A00 X   4      37.250  69.120  12.2870  0.00  0.00     0.000 N
ATOM     66  HD  A00 X   4      37.345  68.973  11.4390  0.00  0.00     0.000 HD
ATOM     66   O  A00 X   4      37.304  71.497  12.6660  0.00  0.00     0.000 OA
ATOM     67   S  A00 X   4      36.372  70.454  12.3730  0.00  0.00     0.000 S
ATOM     68   O  A00 X   4      35.810  70.480  11.0540  0.00  0.00     0.000 OA
ATOM     69   O  A00 X   4      35.442  70.079  13.4010  0.00  0.00     0.000 OA
ENDBRANCH 59 66
BRANCH 62 70
ATOM     70   C  A00 X   4      40.857  65.991  11.0630  0.00  0.00     0.000 C
ATOM     71   O  A00 X   4      39.855  65.364   7.6410  0.00  0.00     0.000 OA
ATOM     72   O  A00 X   4      40.309  63.871   9.4050  0.00  0.00     0.000 OA
ATOM     73   O  A00 X   4      40.302  66.250   9.7630  0.00  0.00     0.000 O
ATOM     74   O  A00 X   4      38.212  65.112   9.3870  0.00  0.00     0.000 OA
ATOM     75   S  A00 X   4      39.590  65.066   9.0200  0.00  0.00     0.000 S
ENDBRANCH 62 70
ENDBRANCH 57 61
ENDBRANCH 41 57
ENDBRANCH 40 44
ENDBRANCH 20 40
ENDBRANCH 19 23
ENDBRANCH 1 19
TORSDOF 14
ENDMDL
MODEL 28
REMARK VINA RESULT:      -0.2     49.068     53.597
ROOT
ATOM      1  C1  A00 X   1      18.262  32.637  50.7660  0.00  0.00     0.000 C
ATOM      2  C2  A00 X   1      17.900  32.984  49.2970  0.00  0.00     0.000 C
ATOM      3  C3  A00 X   1      19.044  33.618  48.4390  0.00  0.00     0.000 C
ATOM      4  C4  A00 X   1      20.259  34.156  49.2370  0.00  0.00     0.000 C
ATOM      5  C5  A00 X   1      19.902  34.468  50.6900  0.00  0.00     0.000 C
ATOM      6  O5  A00 X   1      19.507  33.196  51.2520  0.00  0.00     0.000 O
ATOM      7   O  A00 X   1      18.512  34.725  47.7150  0.00  0.00     0.000 O
ATOM      9  HD  A00 X   1      19.292  34.962  48.0060  0.00  0.00     0.000 HD
ATOM      9   O  A00 X   1      21.356  33.245  49.1940  0.00  0.00     0.000 O
ATOM     11  HD  A00 X   1      22.137  33.481  49.4860  0.00  0.00     0.000 HD
ENDROOT
BRANCH 2 11
ATOM     11   O  A00 X   1      17.450  31.773  48.6590  0.00  0.00     0.000 O
ATOM     12   O  A00 X   1      17.015  31.667  46.2990  0.00  0.00     0.000 OA
ATOM     13   O  A00 X   1      15.653  33.119  47.6970  0.00  0.00     0.000 OA
ATOM     14   O  A00 X   1      15.492  30.754  47.8990  0.00  0.00     0.000 OA
ATOM     15   S  A00 X   1      16.339  31.864  47.5570  0.00  0.00     0.000 S
ENDBRANCH 2 11
BRANCH 5 16
ATOM     16   C  A00 X   1      18.857  35.572  50.8790  0.00  0.00     0.000 C
ATOM     17   O  A00 X   1      18.375  35.734  51.9810  0.00  0.00     0.000 OA
ATOM     18   O  A00 X   1      18.500  36.294  49.9680  0.00  0.00     0.000 OA
ENDBRANCH 5 16
BRANCH 1 19
ATOM     19  O4  A00 X   2      17.173  32.892  51.6870  0.00  0.00     0.000 O
BRANCH 19 23
ATOM     20  C1  A00 X   2      17.916  29.372  54.0160  0.00  0.00     0.000 C
ATOM     21  C2  A00 X   2      16.803  29.297  52.9430  0.00  0.00     0.000 C
ATOM     22  C3  A00 X   2      16.944  30.447  51.9240  0.00  0.00     0.000 C
ATOM     23  C4  A00 X   2      16.990  31.812  52.6470  0.00  0.00     0.000 C
ATOM     24  C5  A00 X   2      18.127  31.752  53.7030  0.00  0.00     0.000 C
ATOM     25  O5  A00 X   2      17.839  30.682  54.6400  0.00  0.00     0.000 O
ATOM     26   O  A00 X   2      15.933  30.294  50.9130  0.00  0.00     0.000 O
ATOM     28  HD  A00 X   2      15.296  30.205  51.4930  0.00  0.00     0.000 HD
BRANCH 21 30
ATOM     28   N  A00 X   2      16.057  28.403  53.8340  0.00  0.00     0.000 N
ATOM     30  HD  A00 X   2      15.701  28.328  53.0480  0.00  0.00     0.000 HD
ATOM     30   O  A00 X   2      14.830  26.917  52.5130  0.00  0.00     0.000 OA
ATOM     31   S  A00 X   2      14.590  27.977  53.4270  0.00  0.00     0.000 S
ATOM     32   O  A00 X   2      13.996  27.583  54.6660  0.00  0.00     0.000 OA
ATOM     33   O  A00 X   2      13.938  29.144  52.9110  0.00  0.00     0.000 OA
ENDBRANCH 21 30
BRANCH 24 34
ATOM     34   C  A00 X   2      18.534  33.068  54.4060  0.00  0.00     0.000 C
ATOM     35   O  A00 X   2      18.253  33.637  57.9920  0.00  0.00     0.000 OA
ATOM     36   O  A00 X   2      17.991  33.137  55.7400  0.00  0.00     0.000 O
ATOM     37   O  A00 X   2      19.447  31.836  57.0290  0.00  0.00     0.000 OA
ATOM     38   S  A00 X   2      19.056  33.207  56.8950  0.00  0.00     0.000 S
ATOM     39   O  A00 X   2      20.054  34.142  56.4700  0.00  0.00     0.000 OA
ENDBRANCH 24 34
BRANCH 20 40
ATOM     40  O4  A00 X   3      19.154  29.254  53.3000  0.00  0.00     0.000 O
BRANCH 40 44
ATOM     41  C1  A00 X   3      22.551  30.418  52.8200  0.00  0.00     0.000 C
ATOM     42  C2  A00 X   3      21.874  29.309  51.9850  0.00  0.00     0.000 C
ATOM     43  C3  A00 X   3      21.234  28.236  52.9030  0.00  0.00     0.000 C
ATOM     44  C4  A00 X   3      20.332  28.794  53.9960  0.00  0.00     0.000 C
ATOM     45  C5  A00 X   3      21.083  29.898  54.7930  0.00  0.00     0.000 C
ATOM     46  O5  A00 X   3      21.680  30.882  53.8880  0.00  0.00     0.000 O
ATOM     47   O  A00 X   3      20.654  27.115  52.2390  0.00  0.00     0.000 O
ATOM     49  HD  A00 X   3      20.052  27.204  52.8550  0.00  0.00     0.000 HD
BRANCH 42 49
ATOM     49   O  A00 X   3      20.884  29.951  51.1530  0.00  0.00     0.000 O
ATOM     50   O  A00 X   3      19.251  29.250  49.5480  0.00  0.00     0.000 OA
ATOM     51   O  A00 X   3      21.390  28.243  49.5150  0.00  0.00     0.000 OA
ATOM     52   O  A00 X   3      21.205  30.516  48.8960  0.00  0.00     0.000 OA
ATOM     53   S  A00 X   3      20.656  29.471  49.6890  0.00  0.00     0.000 S
ENDBRANCH 42 49
BRANCH 45 54
ATOM     54   C  A00 X   3      22.091  29.298  55.7810  0.00  0.00     0.000 C
ATOM     55   O  A00 X   3      22.391  28.123  55.7230  0.00  0.00     0.000 OA
ATOM     56   O  A00 X   3      22.609  29.990  56.6440  0.00  0.00     0.000 OA
ENDBRANCH 45 54
BRANCH 41 57
ATOM     57  O4  A00 X   4      23.867  30.022  53.2660  0.00  0.00     0.000 O
BRANCH 57 61
ATOM     58  C1  A00 X   4      27.515  32.219  53.9760  0.00  0.00     0.000 C
ATOM     59  C2  A00 X   4      26.268  32.558  54.8290  0.00  0.00     0.000 C
ATOM     60  C3  A00 X   4      25.157  31.492  54.7450  0.00  0.00     0.000 C
ATOM     61  C4  A00 X   4      24.860  31.088  53.2850  0.00  0.00     0.000 C
ATOM     62  C5  A00 X   4      26.198  30.584  52.6910  0.00  0.00     0.000 C
ATOM     63  O5  A00 X   4      27.158  31.673  52.6860  0.00  0.00     0.000 O
BRANCH 59 66
ATOM     64   N  A00 X   4      25.646  33.808  54.3570  0.00  0.00     0.000 N
ATOM     66  HD  A00 X   4      25.746  34.014  53.5210  0.00  0.00     0.000 HD
ATOM     66   O  A00 X   4      27.294  34.999  55.6460  0.00  0.00     0.000 OA
ATOM     67   S  A00 X   4      25.963  35.160  55.1510  0.00  0.00     0.000 S
ATOM     68   O  A00 X   4      25.808  36.121  54.0980  0.00  0.00     0.000 OA
ATOM     69   O  A00 X   4      24.889  35.152  56.1030  0.00  0.00     0.000 OA
ENDBRANCH 59 66
BRANCH 62 70
ATOM     70   C  A00 X   4      26.081  30.026  51.2530  0.00  0.00     0.000 C
ATOM     71   O  A00 X   4      25.432  31.821  48.1760  0.00  0.00     0.000 OA
ATOM     72   O  A00 X   4      24.437  29.878  49.0580  0.00  0.00     0.000 OA
ATOM     73   O  A00 X   4      26.066  31.118  50.3190  0.00  0.00     0.000 O
ATOM     74   O  A00 X   4      23.869  32.053  49.9980  0.00  0.00     0.000 OA
ATOM     75   S  A00 X   4      24.841  31.236  49.3470  0.00  0.00     0.000 S
ENDBRANCH 62 70
ENDBRANCH 57 61
ENDBRANCH 41 57
ENDBRANCH 40 44
ENDBRANCH 20 40
ENDBRANCH 19 23
ENDBRANCH 1 19
TORSDOF 14
ENDMDL
MODEL 29
REMARK VINA RESULT:      -0.2     62.935     67.653
ROOT
ATOM      1  C1  A00 X   1      32.643  65.954  38.7040  0.00  0.00     0.000 C
ATOM      2  C2  A00 X   1      32.422  67.490  38.6660  0.00  0.00     0.000 C
ATOM      3  C3  A00 X   1      32.807  68.207  37.3300  0.00  0.00     0.000 C
ATOM      4  C4  A00 X   1      33.688  67.380  36.3580  0.00  0.00     0.000 C
ATOM      5  C5  A00 X   1      34.459  66.273  37.0770  0.00  0.00     0.000 C
ATOM      6  O5  A00 X   1      33.436  65.409  37.6210  0.00  0.00     0.000 O
ATOM      7   O  A00 X   1      33.544  69.387  37.6400  0.00  0.00     0.000 O
ATOM      9  HD  A00 X   1      33.930  69.016  36.9590  0.00  0.00     0.000 HD
ATOM      9   O  A00 X   1      32.912  66.819  35.2990  0.00  0.00     0.000 O
ATOM     11  HD  A00 X   1      33.299  66.448  34.6190  0.00  0.00     0.000 HD
ENDROOT
BRANCH 2 11
ATOM     11   O  A00 X   1      31.032  67.741  38.9500  0.00  0.00     0.000 O
ATOM     12   O  A00 X   1      30.161  69.969  39.1620  0.00  0.00     0.000 OA
ATOM     13   O  A00 X   1      31.811  69.178  40.7650  0.00  0.00     0.000 OA
ATOM     14   O  A00 X   1      29.620  68.254  40.7370  0.00  0.00     0.000 OA
ATOM     15   S  A00 X   1      30.658  68.878  39.9620  0.00  0.00     0.000 S
ENDBRANCH 2 11
BRANCH 5 16
ATOM     16   C  A00 X   1      35.470  66.760  38.1200  0.00  0.00     0.000 C
ATOM     17   O  A00 X   1      35.974  65.945  38.8650  0.00  0.00     0.000 OA
ATOM     18   O  A00 X   1      35.789  67.927  38.2230  0.00  0.00     0.000 OA
ENDBRANCH 5 16
BRANCH 1 19
ATOM     19  O4  A00 X   2      33.113  65.487  39.9920  0.00  0.00     0.000 O
BRANCH 19 23
ATOM     20  C1  A00 X   2      30.846  61.853  39.8430  0.00  0.00     0.000 C
ATOM     21  C2  A00 X   2      30.254  63.032  40.6510  0.00  0.00     0.000 C
ATOM     22  C3  A00 X   2      30.935  64.362  40.2640  0.00  0.00     0.000 C
ATOM     23  C4  A00 X   2      32.469  64.248  40.4060  0.00  0.00     0.000 C
ATOM     24  C5  A00 X   2      32.934  63.025  39.5690  0.00  0.00     0.000 C
ATOM     25  O5  A00 X   2      32.279  61.834  40.0780  0.00  0.00     0.000 O
ATOM     26   O  A00 X   2      30.305  65.431  40.9890  0.00  0.00     0.000 O
ATOM     28  HD  A00 X   2      30.379  65.026  41.7510  0.00  0.00     0.000 HD
BRANCH 21 30
ATOM     28   N  A00 X   2      29.697  62.057  41.5940  0.00  0.00     0.000 N
ATOM     30  HD  A00 X   2      29.291  62.808  41.7410  0.00  0.00     0.000 HD
ATOM     30   O  A00 X   2      27.702  62.926  42.4450  0.00  0.00     0.000 OA
ATOM     31   S  A00 X   2      29.000  62.587  42.9100  0.00  0.00     0.000 S
ATOM     32   O  A00 X   2      29.051  61.465  43.7960  0.00  0.00     0.000 OA
ATOM     33   O  A00 X   2      29.808  63.656  43.4160  0.00  0.00     0.000 OA
ENDBRANCH 21 30
BRANCH 24 34
ATOM     34   C  A00 X   2      34.453  62.826  39.3560  0.00  0.00     0.000 C
ATOM     35   O  A00 X   2      36.330  59.962  40.5940  0.00  0.00     0.000 OA
ATOM     36   O  A00 X   2      34.977  61.815  40.2400  0.00  0.00     0.000 O
ATOM     37   O  A00 X   2      34.427  59.793  39.2000  0.00  0.00     0.000 OA
ATOM     38   S  A00 X   2      35.593  60.555  39.5270  0.00  0.00     0.000 S
ATOM     39   O  A00 X   2      36.387  61.051  38.4430  0.00  0.00     0.000 OA
ENDBRANCH 24 34
BRANCH 20 40
ATOM     40  O4  A00 X   3      30.591  62.161  38.4650  0.00  0.00     0.000 O
BRANCH 40 44
ATOM     41  C1  A00 X   3      31.830  62.256  35.0620  0.00  0.00     0.000 C
ATOM     42  C2  A00 X   3      30.427  62.728  35.5010  0.00  0.00     0.000 C
ATOM     43  C3  A00 X   3      29.716  61.641  36.3470  0.00  0.00     0.000 C
ATOM     44  C4  A00 X   3      30.547  61.089  37.4980  0.00  0.00     0.000 C
ATOM     45  C5  A00 X   3      31.939  60.632  36.9770  0.00  0.00     0.000 C
ATOM     46  O5  A00 X   3      32.569  61.683  36.1760  0.00  0.00     0.000 O
ATOM     47   O  A00 X   3      28.375  61.933  36.7360  0.00  0.00     0.000 O
ATOM     49  HD  A00 X   3      28.626  61.556  37.4740  0.00  0.00     0.000 HD
BRANCH 42 49
ATOM     49   O  A00 X   3      30.607  63.948  36.2520  0.00  0.00     0.000 O
ATOM     50   O  A00 X   3      29.197  65.475  37.4400  0.00  0.00     0.000 OA
ATOM     51   O  A00 X   3      28.459  64.620  35.3630  0.00  0.00     0.000 OA
ATOM     52   O  A00 X   3      30.297  66.106  35.3810  0.00  0.00     0.000 OA
ATOM     53   S  A00 X   3      29.587  65.115  36.1130  0.00  0.00     0.000 S
ENDBRANCH 42 49
BRANCH 45 54
ATOM     54   C  A00 X   3      31.858  59.285  36.2480  0.00  0.00     0.000 C
ATOM     55   O  A00 X   3      32.867  58.714  35.8890  0.00  0.00     0.000 OA
ATOM     56   O  A00 X   3      30.778  58.764  36.0160  0.00  0.00     0.000 OA
ENDBRANCH 45 54
BRANCH 41 57
ATOM     57  O4  A00 X   4      31.766  61.401  33.8990  0.00  0.00     0.000 O
BRANCH 57 61
ATOM     58  C1  A00 X   4      34.404  60.815  30.5310  0.00  0.00     0.000 C
ATOM     59  C2  A00 X   4      34.929  60.485  31.9510  0.00  0.00     0.000 C
ATOM     60  C3  A00 X   4      33.814  60.386  33.0110  0.00  0.00     0.000 C
ATOM     61  C4  A00 X   4      32.843  61.584  32.9360  0.00  0.00     0.000 C
ATOM     62  C5  A00 X   4      32.278  61.597  31.4940  0.00  0.00     0.000 C
ATOM     63  O5  A00 X   4      33.363  61.818  30.5580  0.00  0.00     0.000 O
BRANCH 59 66
ATOM     64   N  A00 X   4      35.830  61.546  32.4360  0.00  0.00     0.000 N
ATOM     66  HD  A00 X   4      35.703  62.348  32.1350  0.00  0.00     0.000 HD
ATOM     66   O  A00 X   4      37.581  60.511  31.1470  0.00  0.00     0.000 OA
ATOM     67   S  A00 X   4      37.408  61.313  32.3170  0.00  0.00     0.000 S
ATOM     68   O  A00 X   4      37.863  62.668  32.2090  0.00  0.00     0.000 OA
ATOM     69   O  A00 X   4      37.670  60.704  33.5910  0.00  0.00     0.000 OA
ENDBRANCH 59 66
BRANCH 62 70
ATOM     70   C  A00 X   4      31.191  62.672  31.2510  0.00  0.00     0.000 C
ATOM     71   O  A00 X   4      31.563  66.270  31.1070  0.00  0.00     0.000 OA
ATOM     72   O  A00 X   4      30.034  64.932  32.2970  0.00  0.00     0.000 OA
ATOM     73   O  A00 X   4      31.823  63.943  31.0300  0.00  0.00     0.000 O
ATOM     74   O  A00 X   4      32.336  65.110  33.0740  0.00  0.00     0.000 OA
ATOM     75   S  A00 X   4      31.429  65.132  31.9730  0.00  0.00     0.000 S
ENDBRANCH 62 70
ENDBRANCH 57 61
ENDBRANCH 41 57
ENDBRANCH 40 44
ENDBRANCH 20 40
ENDBRANCH 19 23
ENDBRANCH 1 19
TORSDOF 14
ENDMDL
MODEL 30
REMARK VINA RESULT:      -0.2     48.892     54.490
ROOT
ATOM      1  C1  A00 X   1      31.974  52.663  19.8500  0.00  0.00     0.000 C
ATOM      2  C2  A00 X   1      32.534  52.000  18.5630  0.00  0.00     0.000 C
ATOM      3  C3  A00 X   1      33.472  52.891  17.6830  0.00  0.00     0.000 C
ATOM      4  C4  A00 X   1      33.434  54.410  17.9920  0.00  0.00     0.000 C
ATOM      5  C5  A00 X   1      32.138  54.825  18.6900  0.00  0.00     0.000 C
ATOM      6  O5  A00 X   1      32.145  54.099  19.9390  0.00  0.00     0.000 O
ATOM      7   O  A00 X   1      33.090  52.747  16.3170  0.00  0.00     0.000 O
ATOM      9  HD  A00 X   1      33.259  53.586  16.4470  0.00  0.00     0.000 HD
ATOM      9   O  A00 X   1      34.555  54.810  18.7800  0.00  0.00     0.000 O
ATOM     11  HD  A00 X   1      34.724  55.649  18.9100  0.00  0.00     0.000 HD
ENDROOT
BRANCH 2 11
ATOM     11   O  A00 X   1      33.250  50.813  18.9570  0.00  0.00     0.000 O
ATOM     12   O  A00 X   1      34.214  49.317  17.3450  0.00  0.00     0.000 OA
ATOM     13   O  A00 X   1      31.799  49.600  17.4100  0.00  0.00     0.000 OA
ATOM     14   O  A00 X   1      32.934  48.512  19.1950  0.00  0.00     0.000 OA
ATOM     15   S  A00 X   1      33.029  49.490  18.1460  0.00  0.00     0.000 S
ENDBRANCH 2 11
BRANCH 5 16
ATOM     16   C  A00 X   1      30.863  54.615  17.8660  0.00  0.00     0.000 C
ATOM     17   O  A00 X   1      29.789  54.739  18.4160  0.00  0.00     0.000 OA
ATOM     18   O  A00 X   1      30.890  54.336  16.6840  0.00  0.00     0.000 OA
ENDBRANCH 5 16
BRANCH 1 19
ATOM     19  O4  A00 X   2      30.607  52.275  20.1310  0.00  0.00     0.000 O
BRANCH 19 23
ATOM     20  C1  A00 X   2      31.186  52.180  24.3770  0.00  0.00     0.000 C
ATOM     21  C2  A00 X   2      31.259  50.835  23.6150  0.00  0.00     0.000 C
ATOM     22  C3  A00 X   2      31.467  51.068  22.1040  0.00  0.00     0.000 C
ATOM     23  C4  A00 X   2      30.380  52.015  21.5460  0.00  0.00     0.000 C
ATOM     24  C5  A00 X   2      30.396  53.312  22.4010  0.00  0.00     0.000 C
ATOM     25  O5  A00 X   2      30.118  52.965  23.7830  0.00  0.00     0.000 O
ATOM     26   O  A00 X   2      31.597  49.793  21.4540  0.00  0.00     0.000 O
ATOM     28  HD  A00 X   2      30.882  49.475  21.8240  0.00  0.00     0.000 HD
BRANCH 21 30
ATOM     28   N  A00 X   2      30.657  50.185  24.7840  0.00  0.00     0.000 N
ATOM     30  HD  A00 X   2      30.992  49.556  24.2920  0.00  0.00     0.000 HD
ATOM     30   O  A00 X   2      31.487  48.005  24.9130  0.00  0.00     0.000 OA
ATOM     31   S  A00 X   2      30.250  48.661  24.6780  0.00  0.00     0.000 S
ATOM     32   O  A00 X   2      29.275  48.499  25.7120  0.00  0.00     0.000 OA
ATOM     33   O  A00 X   2      29.647  48.472  23.3930  0.00  0.00     0.000 OA
ENDBRANCH 21 30
BRANCH 24 34
ATOM     34   C  A00 X   2      29.560  54.516  21.9080  0.00  0.00     0.000 C
ATOM     35   O  A00 X   2      26.765  55.951  23.7490  0.00  0.00     0.000 OA
ATOM     36   O  A00 X   2      28.328  54.635  22.6470  0.00  0.00     0.000 O
ATOM     37   O  A00 X   2      28.943  55.700  24.6370  0.00  0.00     0.000 OA
ATOM     38   S  A00 X   2      28.163  55.967  23.4670  0.00  0.00     0.000 S
ATOM     39   O  A00 X   2      28.597  57.027  22.6080  0.00  0.00     0.000 OA
ENDBRANCH 24 34
BRANCH 20 40
ATOM     40  O4  A00 X   3      32.445  52.828  24.1410  0.00  0.00     0.000 O
BRANCH 40 44
ATOM     41  C1  A00 X   3      34.227  55.879  23.3400  0.00  0.00     0.000 C
ATOM     42  C2  A00 X   3      34.892  54.501  23.5530  0.00  0.00     0.000 C
ATOM     43  C3  A00 X   3      34.421  53.858  24.8840  0.00  0.00     0.000 C
ATOM     44  C4  A00 X   3      32.910  53.828  25.0730  0.00  0.00     0.000 C
ATOM     45  C5  A00 X   3      32.317  55.247  24.8470  0.00  0.00     0.000 C
ATOM     46  O5  A00 X   3      32.795  55.819  23.5860  0.00  0.00     0.000 O
ATOM     47   O  A00 X   3      35.038  52.619  25.2280  0.00  0.00     0.000 O
ATOM     49  HD  A00 X   3      34.237  52.424  25.4940  0.00  0.00     0.000 HD
BRANCH 42 49
ATOM     49   O  A00 X   3      34.540  53.681  22.4170  0.00  0.00     0.000 O
ATOM     50   O  A00 X   3      34.924  51.421  21.7270  0.00  0.00     0.000 OA
ATOM     51   O  A00 X   3      36.700  52.629  22.7150  0.00  0.00     0.000 OA
ATOM     52   O  A00 X   3      35.942  53.287  20.5750  0.00  0.00     0.000 OA
ATOM     53   S  A00 X   3      35.577  52.690  21.8130  0.00  0.00     0.000 S
ENDBRANCH 42 49
BRANCH 45 54
ATOM     54   C  A00 X   3      32.558  56.162  26.0540  0.00  0.00     0.000 C
ATOM     55   O  A00 X   3      32.054  57.265  26.1050  0.00  0.00     0.000 OA
ATOM     56   O  A00 X   3      33.261  55.797  26.9840  0.00  0.00     0.000 OA
ENDBRANCH 45 54
BRANCH 41 57
ATOM     57  O4  A00 X   4      34.907  56.919  24.0760  0.00  0.00     0.000 O
BRANCH 57 61
ATOM     58  C1  A00 X   4      35.625  61.100  23.2720  0.00  0.00     0.000 C
ATOM     59  C2  A00 X   4      34.161  60.610  23.3980  0.00  0.00     0.000 C
ATOM     60  C3  A00 X   4      34.034  59.210  24.0320  0.00  0.00     0.000 C
ATOM     61  C4  A00 X   4      35.007  58.199  23.3890  0.00  0.00     0.000 C
ATOM     62  C5  A00 X   4      36.428  58.791  23.5630  0.00  0.00     0.000 C
ATOM     63  O5  A00 X   4      36.514  60.045  22.8390  0.00  0.00     0.000 O
BRANCH 59 66
ATOM     64   N  A00 X   4      33.503  60.487  22.0850  0.00  0.00     0.000 N
ATOM     66  HD  A00 X   4      34.004  60.306  21.4020  0.00  0.00     0.000 HD
ATOM     66   O  A00 X   4      33.133  62.865  22.1590  0.00  0.00     0.000 OA
ATOM     67   S  A00 X   4      32.561  61.683  21.5950  0.00  0.00     0.000 S
ATOM     68   O  A00 X   4      32.694  61.551  20.1730  0.00  0.00     0.000 OA
ATOM     69   O  A00 X   4      31.298  61.238  22.1110  0.00  0.00     0.000 OA
ENDBRANCH 59 66
BRANCH 62 70
ATOM     70   C  A00 X   4      37.565  57.862  23.0740  0.00  0.00     0.000 C
ATOM     71   O  A00 X   4      38.406  56.910  19.6830  0.00  0.00     0.000 OA
ATOM     72   O  A00 X   4      38.106  55.598  21.6160  0.00  0.00     0.000 OA
ATOM     73   O  A00 X   4      37.681  57.965  21.6450  0.00  0.00     0.000 O
ATOM     74   O  A00 X   4      36.161  56.513  20.4680  0.00  0.00     0.000 OA
ATOM     75   S  A00 X   4      37.542  56.651  20.8010  0.00  0.00     0.000 S
ENDBRANCH 62 70
ENDBRANCH 57 61
ENDBRANCH 41 57
ENDBRANCH 40 44
ENDBRANCH 20 40
ENDBRANCH 19 23
ENDBRANCH 1 19
TORSDOF 14
ENDMDL
MODEL 31
REMARK VINA RESULT:      -0.2     74.251     78.151
ROOT
ATOM      1  C1  A00 X   1      34.955  64.662  52.4780  0.00  0.00     0.000 C
ATOM      2  C2  A00 X   1      35.475  63.211  52.3030  0.00  0.00     0.000 C
ATOM      3  C3  A00 X   1      34.966  62.167  53.3510  0.00  0.00     0.000 C
ATOM      4  C4  A00 X   1      34.316  62.763  54.6260  0.00  0.00     0.000 C
ATOM      5  C5  A00 X   1      34.766  64.200  54.8860  0.00  0.00     0.000 C
ATOM      6  O5  A00 X   1      34.298  64.944  53.7380  0.00  0.00     0.000 O
ATOM      7   O  A00 X   1      36.072  61.381  53.7890  0.00  0.00     0.000 O
ATOM      9  HD  A00 X   1      35.592  61.558  54.4880  0.00  0.00     0.000 HD
ATOM      9   O  A00 X   1      32.891  62.708  54.5600  0.00  0.00     0.000 O
ATOM     11  HD  A00 X   1      32.411  62.885  55.2590  0.00  0.00     0.000 HD
ENDROOT
BRANCH 2 11
ATOM     11   O  A00 X   1      35.106  62.768  50.9820  0.00  0.00     0.000 O
ATOM     12   O  A00 X   1      35.411  60.494  50.2730  0.00  0.00     0.000 OA
ATOM     13   O  A00 X   1      37.361  61.843  50.8190  0.00  0.00     0.000 OA
ATOM     14   O  A00 X   1      36.055  62.337  48.8930  0.00  0.00     0.000 OA
ATOM     15   S  A00 X   1      36.056  61.782  50.2200  0.00  0.00     0.000 S
ENDBRANCH 2 11
BRANCH 5 16
ATOM     16   C  A00 X   1      36.264  64.371  55.1570  0.00  0.00     0.000 C
ATOM     17   O  A00 X   1      36.731  65.491  55.1580  0.00  0.00     0.000 OA
ATOM     18   O  A00 X   1      36.998  63.428  55.3780  0.00  0.00     0.000 OA
ENDBRANCH 5 16
BRANCH 1 19
ATOM     19  O4  A00 X   2      35.959  65.660  52.1710  0.00  0.00     0.000 O
BRANCH 19 23
ATOM     20  C1  A00 X   2      33.198  68.278  50.1990  0.00  0.00     0.000 C
ATOM     21  C2  A00 X   2      34.053  67.342  49.3110  0.00  0.00     0.000 C
ATOM     22  C3  A00 X   2      34.654  66.191  50.1460  0.00  0.00     0.000 C
ATOM     23  C4  A00 X   2      35.436  66.748  51.3570  0.00  0.00     0.000 C
ATOM     24  C5  A00 X   2      34.480  67.680  52.1500  0.00  0.00     0.000 C
ATOM     25  O5  A00 X   2      34.045  68.756  51.2780  0.00  0.00     0.000 O
ATOM     26   O  A00 X   2      35.379  65.314  49.2670  0.00  0.00     0.000 O
ATOM     28  HD  A00 X   2      35.823  65.963  48.9040  0.00  0.00     0.000 HD
BRANCH 21 30
ATOM     28   N  A00 X   2      34.090  68.399  48.2970  0.00  0.00     0.000 N
ATOM     30  HD  A00 X   2      34.339  67.668  47.9060  0.00  0.00     0.000 HD
ATOM     30   O  A00 X   2      34.183  67.387  46.1930  0.00  0.00     0.000 OA
ATOM     31   S  A00 X   2      35.003  68.197  47.0230  0.00  0.00     0.000 S
ATOM     32   O  A00 X   2      35.218  69.528  46.5450  0.00  0.00     0.000 OA
ATOM     33   O  A00 X   2      36.237  67.625  47.4730  0.00  0.00     0.000 OA
ENDBRANCH 21 30
BRANCH 24 34
ATOM     34   C  A00 X   2      34.945  68.186  53.5360  0.00  0.00     0.000 C
ATOM     35   O  A00 X   2      35.530  71.689  54.3390  0.00  0.00     0.000 OA
ATOM     36   O  A00 X   2      35.428  69.542  53.4620  0.00  0.00     0.000 O
ATOM     37   O  A00 X   2      33.491  70.853  53.4810  0.00  0.00     0.000 OA
ATOM     38   S  A00 X   2      34.623  70.589  54.3160  0.00  0.00     0.000 S
ATOM     39   O  A00 X   2      34.381  69.975  55.5870  0.00  0.00     0.000 OA
ENDBRANCH 24 34
BRANCH 20 40
ATOM     40  O4  A00 X   3      32.154  67.455  50.7380  0.00  0.00     0.000 O
BRANCH 40 44
ATOM     41  C1  A00 X   3      30.195  66.494  53.6300  0.00  0.00     0.000 C
ATOM     42  C2  A00 X   3      30.056  65.868  52.2260  0.00  0.00     0.000 C
ATOM     43  C3  A00 X   3      29.892  66.965  51.1430  0.00  0.00     0.000 C
ATOM     44  C4  A00 X   3      30.935  68.074  51.2010  0.00  0.00     0.000 C
ATOM     45  C5  A00 X   3      31.012  68.656  52.6410  0.00  0.00     0.000 C
ATOM     46  O5  A00 X   3      31.156  67.586  53.6300  0.00  0.00     0.000 O
ATOM     47   O  A00 X   3      29.668  66.500  49.8130  0.00  0.00     0.000 O
ATOM     49  HD  A00 X   3      30.190  67.161  49.6140  0.00  0.00     0.000 HD
BRANCH 42 49
ATOM     49   O  A00 X   3      31.241  65.074  51.9970  0.00  0.00     0.000 O
ATOM     50   O  A00 X   3      32.123  63.753  50.2060  0.00  0.00     0.000 OA
ATOM     51   O  A00 X   3      29.814  63.615  50.6960  0.00  0.00     0.000 OA
ATOM     52   O  A00 X   3      31.353  62.743  52.2640  0.00  0.00     0.000 OA
ATOM     53   S  A00 X   3      31.143  63.714  51.2460  0.00  0.00     0.000 S
ENDBRANCH 42 49
BRANCH 45 54
ATOM     54   C  A00 X   3      29.838  69.597  52.9370  0.00  0.00     0.000 C
ATOM     55   O  A00 X   3      29.806  70.241  53.9650  0.00  0.00     0.000 OA
ATOM     56   O  A00 X   3      28.915  69.714  52.1450  0.00  0.00     0.000 OA
ENDBRANCH 45 54
BRANCH 41 57
ATOM     57  O4  A00 X   4      28.909  66.844  54.1880  0.00  0.00     0.000 O
BRANCH 57 61
ATOM     58  C1  A00 X   4      27.358  66.854  58.2180  0.00  0.00     0.000 C
ATOM     59  C2  A00 X   4      28.559  67.774  57.8830  0.00  0.00     0.000 C
ATOM     60  C3  A00 X   4      28.790  67.958  56.3700  0.00  0.00     0.000 C
ATOM     61  C4  A00 X   4      28.771  66.609  55.6190  0.00  0.00     0.000 C
ATOM     62  C5  A00 X   4      27.399  65.959  55.9250  0.00  0.00     0.000 C
ATOM     63  O5  A00 X   4      27.301  65.700  57.3490  0.00  0.00     0.000 O
BRANCH 59 66
ATOM     64   N  A00 X   4      29.814  67.198  58.4000  0.00  0.00     0.000 N
ATOM     66  HD  A00 X   4      29.858  66.336  58.4730  0.00  0.00     0.000 HD
ATOM     66   O  A00 X   4      29.237  68.122  60.5470  0.00  0.00     0.000 OA
ATOM     67   S  A00 X   4      30.389  67.754  59.7850  0.00  0.00     0.000 S
ATOM     68   O  A00 X   4      31.096  66.599  60.2550  0.00  0.00     0.000 OA
ATOM     69   O  A00 X   4      31.237  68.807  59.3020  0.00  0.00     0.000 OA
ENDBRANCH 59 66
BRANCH 62 70
ATOM     70   C  A00 X   4      27.144  64.635  55.1660  0.00  0.00     0.000 C
ATOM     71   O  A00 X   4      28.738  61.417  55.6310  0.00  0.00     0.000 OA
ATOM     72   O  A00 X   4      28.344  62.666  53.6740  0.00  0.00     0.000 OA
ATOM     73   O  A00 X   4      27.818  63.561  55.8430  0.00  0.00     0.000 O
ATOM     74   O  A00 X   4      30.127  63.339  55.1920  0.00  0.00     0.000 OA
ATOM     75   S  A00 X   4      28.854  62.715  55.0260  0.00  0.00     0.000 S
ENDBRANCH 62 70
ENDBRANCH 57 61
ENDBRANCH 41 57
ENDBRANCH 40 44
ENDBRANCH 20 40
ENDBRANCH 19 23
ENDBRANCH 1 19
TORSDOF 14
ENDMDL
MODEL 32
REMARK VINA RESULT:      -0.2     59.685     64.841
ROOT
ATOM      1  C1  A00 X   1      32.975  52.616  48.2850  0.00  0.00     0.000 C
ATOM      2  C2  A00 X   1      31.739  51.815  48.7750  0.00  0.00     0.000 C
ATOM      3  C3  A00 X   1      30.501  51.809  47.8190  0.00  0.00     0.000 C
ATOM      4  C4  A00 X   1      30.516  52.881  46.6990  0.00  0.00     0.000 C
ATOM      5  C5  A00 X   1      31.422  54.063  47.0440  0.00  0.00     0.000 C
ATOM      6  O5  A00 X   1      32.745  53.492  47.1540  0.00  0.00     0.000 O
ATOM      7   O  A00 X   1      29.326  52.046  48.5910  0.00  0.00     0.000 O
ATOM      9  HD  A00 X   1      29.248  52.505  47.8610  0.00  0.00     0.000 HD
ATOM      9   O  A00 X   1      30.909  52.322  45.4460  0.00  0.00     0.000 O
ATOM     11  HD  A00 X   1      30.831  52.780  44.7160  0.00  0.00     0.000 HD
ENDROOT
BRANCH 2 11
ATOM     11   O  A00 X   1      32.161  50.456  49.0050  0.00  0.00     0.000 O
ATOM     12   O  A00 X   1      30.595  48.710  49.5190  0.00  0.00     0.000 OA
ATOM     13   O  A00 X   1      30.869  50.559  51.0750  0.00  0.00     0.000 OA
ATOM     14   O  A00 X   1      32.621  48.982  50.7560  0.00  0.00     0.000 OA
ATOM     15   S  A00 X   1      31.489  49.639  50.1610  0.00  0.00     0.000 S
ENDBRANCH 2 11
BRANCH 5 16
ATOM     16   C  A00 X   1      30.997  54.867  48.2770  0.00  0.00     0.000 C
ATOM     17   O  A00 X   1      31.771  55.681  48.7360  0.00  0.00     0.000 OA
ATOM     18   O  A00 X   1      29.912  54.724  48.8060  0.00  0.00     0.000 OA
ENDBRANCH 5 16
BRANCH 1 19
ATOM     19  O4  A00 X   2      33.656  53.309  49.3600  0.00  0.00     0.000 O
BRANCH 19 23
ATOM     20  C1  A00 X   2      37.570  52.467  47.8310  0.00  0.00     0.000 C
ATOM     21  C2  A00 X   2      37.030  51.551  48.9550  0.00  0.00     0.000 C
ATOM     22  C3  A00 X   2      35.500  51.691  49.0910  0.00  0.00     0.000 C
ATOM     23  C4  A00 X   2      35.104  53.173  49.2820  0.00  0.00     0.000 C
ATOM     24  C5  A00 X   2      35.718  53.983  48.1080  0.00  0.00     0.000 C
ATOM     25  O5  A00 X   2      37.161  53.827  48.1360  0.00  0.00     0.000 O
ATOM     26   O  A00 X   2      35.040  50.773  50.0980  0.00  0.00     0.000 O
ATOM     28  HD  A00 X   2      35.627  51.037  50.6770  0.00  0.00     0.000 HD
BRANCH 21 30
ATOM     28   N  A00 X   2      38.398  51.439  49.4720  0.00  0.00     0.000 N
ATOM     30  HD  A00 X   2      37.938  50.804  49.8390  0.00  0.00     0.000 HD
ATOM     30   O  A00 X   2      38.640  49.326  50.4380  0.00  0.00     0.000 OA
ATOM     31   S  A00 X   2      38.632  50.687  50.8430  0.00  0.00     0.000 S
ATOM     32   O  A00 X   2      39.892  51.191  51.2950  0.00  0.00     0.000 OA
ATOM     33   O  A00 X   2      37.586  51.094  51.7330  0.00  0.00     0.000 OA
ENDBRANCH 21 30
BRANCH 24 34
ATOM     34   C  A00 X   2      35.281  55.457  47.9370  0.00  0.00     0.000 C
ATOM     35   O  A00 X   2      35.647  58.007  50.5100  0.00  0.00     0.000 OA
ATOM     36   O  A00 X   2      35.216  56.134  49.2070  0.00  0.00     0.000 O
ATOM     37   O  A00 X   2      37.436  56.704  49.6760  0.00  0.00     0.000 OA
ATOM     38   S  A00 X   2      36.198  57.352  49.3690  0.00  0.00     0.000 S
ATOM     39   O  A00 X   2      36.124  58.096  48.1470  0.00  0.00     0.000 OA
ENDBRANCH 24 34
BRANCH 20 40
ATOM     40  O4  A00 X   3      36.921  52.029  46.6280  0.00  0.00     0.000 O
BRANCH 40 44
ATOM     41  C1  A00 X   3      35.203  52.955  43.5770  0.00  0.00     0.000 C
ATOM     42  C2  A00 X   3      35.454  51.504  44.0390  0.00  0.00     0.000 C
ATOM     43  C3  A00 X   3      36.946  51.286  44.4000  0.00  0.00     0.000 C
ATOM     44  C4  A00 X   3      37.526  52.325  45.3510  0.00  0.00     0.000 C
ATOM     45  C5  A00 X   3      37.238  53.756  44.8160  0.00  0.00     0.000 C
ATOM     46  O5  A00 X   3      35.821  53.913  44.4800  0.00  0.00     0.000 O
ATOM     47   O  A00 X   3      37.313  49.955  44.7590  0.00  0.00     0.000 O
ATOM     49  HD  A00 X   3      37.806  50.368  45.3390  0.00  0.00     0.000 HD
BRANCH 42 49
ATOM     49   O  A00 X   3      34.596  51.268  45.1780  0.00  0.00     0.000 O
ATOM     50   O  A00 X   3      34.196  49.466  46.7020  0.00  0.00     0.000 OA
ATOM     51   O  A00 X   3      34.475  48.977  44.4050  0.00  0.00     0.000 OA
ATOM     52   O  A00 X   3      32.535  50.147  45.0820  0.00  0.00     0.000 OA
ATOM     53   S  A00 X   3      33.904  49.887  45.3680  0.00  0.00     0.000 S
ENDBRANCH 42 49
BRANCH 45 54
ATOM     54   C  A00 X   3      38.177  54.131  43.6630  0.00  0.00     0.000 C
ATOM     55   O  A00 X   3      38.193  55.261  43.2210  0.00  0.00     0.000 OA
ATOM     56   O  A00 X   3      38.923  53.300  43.1690  0.00  0.00     0.000 OA
ENDBRANCH 45 54
BRANCH 41 57
ATOM     57  O4  A00 X   4      35.559  53.142  42.1890  0.00  0.00     0.000 O
BRANCH 57 61
ATOM     58  C1  A00 X   4      33.942  55.625  39.0490  0.00  0.00     0.000 C
ATOM     59  C2  A00 X   4      34.525  56.310  40.3100  0.00  0.00     0.000 C
ATOM     60  C3  A00 X   4      35.384  55.369  41.1790  0.00  0.00     0.000 C
ATOM     61  C4  A00 X   4      34.676  54.022  41.4370  0.00  0.00     0.000 C
ATOM     62  C5  A00 X   4      34.373  53.415  40.0440  0.00  0.00     0.000 C
ATOM     63  O5  A00 X   4      33.462  54.290  39.3300  0.00  0.00     0.000 O
BRANCH 59 66
ATOM     64   N  A00 X   4      33.432  56.770  41.1860  0.00  0.00     0.000 N
ATOM     66  HD  A00 X   4      32.683  56.337  41.1510  0.00  0.00     0.000 HD
ATOM     66   O  A00 X   4      33.259  58.718  39.7800  0.00  0.00     0.000 OA
ATOM     67   S  A00 X   4      33.014  58.313  41.1290  0.00  0.00     0.000 S
ATOM     68   O  A00 X   4      31.633  58.220  41.5040  0.00  0.00     0.000 OA
ATOM     69   O  A00 X   4      33.868  58.844  42.1540  0.00  0.00     0.000 OA
ENDBRANCH 59 66
BRANCH 62 70
ATOM     70   C  A00 X   4      33.755  51.998  40.0930  0.00  0.00     0.000 C
ATOM     71   O  A00 X   4      30.458  51.005  41.2120  0.00  0.00     0.000 OA
ATOM     72   O  A00 X   4      32.584  50.144  41.7470  0.00  0.00     0.000 OA
ATOM     73   O  A00 X   4      32.349  52.102  40.3690  0.00  0.00     0.000 O
ATOM     74   O  A00 X   4      31.859  52.256  42.7230  0.00  0.00     0.000 OA
ATOM     75   S  A00 X   4      31.790  51.347  41.6250  0.00  0.00     0.000 S
ENDBRANCH 62 70
ENDBRANCH 57 61
ENDBRANCH 41 57
ENDBRANCH 40 44
ENDBRANCH 20 40
ENDBRANCH 19 23
ENDBRANCH 1 19
TORSDOF 14
ENDMDL
MODEL 33
REMARK VINA RESULT:      -0.2     61.116     65.308
ROOT
ATOM      1  C1  A00 X   1      43.898  34.902  56.8120  0.00  0.00     0.000 C
ATOM      2  C2  A00 X   1      43.382  36.325  57.1520  0.00  0.00     0.000 C
ATOM      3  C3  A00 X   1      41.993  36.399  57.8680  0.00  0.00     0.000 C
ATOM      4  C4  A00 X   1      41.146  35.101  57.8200  0.00  0.00     0.000 C
ATOM      5  C5  A00 X   1      41.549  34.191  56.6600  0.00  0.00     0.000 C
ATOM      6  O5  A00 X   1      42.923  33.836  56.9320  0.00  0.00     0.000 O
ATOM      7   O  A00 X   1      41.211  37.416  57.2450  0.00  0.00     0.000 O
ATOM      9  HD  A00 X   1      40.684  36.746  57.3980  0.00  0.00     0.000 HD
ATOM      9   O  A00 X   1      41.227  34.379  59.0490  0.00  0.00     0.000 O
ATOM     11  HD  A00 X   1      40.700  33.710  59.2020  0.00  0.00     0.000 HD
ENDROOT
BRANCH 2 11
ATOM     11   O  A00 X   1      44.371  36.965  57.9810  0.00  0.00     0.000 O
ATOM     12   O  A00 X   1      43.975  39.093  59.0200  0.00  0.00     0.000 OA
ATOM     13   O  A00 X   1      44.043  38.947  56.5930  0.00  0.00     0.000 OA
ATOM     14   O  A00 X   1      46.018  38.616  57.8750  0.00  0.00     0.000 OA
ATOM     15   S  A00 X   1      44.584  38.512  57.8500  0.00  0.00     0.000 S
ENDBRANCH 2 11
BRANCH 5 16
ATOM     16   C  A00 X   1      41.334  34.787  55.2650  0.00  0.00     0.000 C
ATOM     17   O  A00 X   1      41.823  34.221  54.3090  0.00  0.00     0.000 OA
ATOM     18   O  A00 X   1      40.688  35.800  55.0810  0.00  0.00     0.000 OA
ENDBRANCH 5 16
BRANCH 1 19
ATOM     19  O4  A00 X   2      44.589  34.845  55.5400  0.00  0.00     0.000 O
BRANCH 19 23
ATOM     20  C1  A00 X   2      47.602  32.140  56.9450  0.00  0.00     0.000 C
ATOM     21  C2  A00 X   2      47.949  33.648  56.9250  0.00  0.00     0.000 C
ATOM     22  C3  A00 X   2      46.670  34.505  56.8210  0.00  0.00     0.000 C
ATOM     23  C4  A00 X   2      45.820  34.069  55.6070  0.00  0.00     0.000 C
ATOM     24  C5  A00 X   2      45.557  32.543  55.7350  0.00  0.00     0.000 C
ATOM     25  O5  A00 X   2      46.832  31.849  55.7480  0.00  0.00     0.000 O
ATOM     26   O  A00 X   2      47.040  35.894  56.8750  0.00  0.00     0.000 O
ATOM     28  HD  A00 X   2      47.644  35.808  56.2610  0.00  0.00     0.000 HD
BRANCH 21 30
ATOM     28   N  A00 X   2      49.330  33.285  56.5950  0.00  0.00     0.000 N
ATOM     30  HD  A00 X   2      49.343  34.112  56.8510  0.00  0.00     0.000 HD
ATOM     30   O  A00 X   2      50.748  34.893  57.5240  0.00  0.00     0.000 OA
ATOM     31   S  A00 X   2      50.353  34.436  56.2380  0.00  0.00     0.000 S
ATOM     32   O  A00 X   2      51.375  33.764  55.4970  0.00  0.00     0.000 OA
ATOM     33   O  A00 X   2      49.664  35.371  55.4000  0.00  0.00     0.000 OA
ENDBRANCH 21 30
BRANCH 24 34
ATOM     34   C  A00 X   2      44.537  31.899  54.7670  0.00  0.00     0.000 C
ATOM     35   O  A00 X   2      44.816  32.005  51.1390  0.00  0.00     0.000 OA
ATOM     36   O  A00 X   2      44.705  32.395  53.4240  0.00  0.00     0.000 O
ATOM     37   O  A00 X   2      46.501  31.164  52.5700  0.00  0.00     0.000 OA
ATOM     38   S  A00 X   2      45.094  31.311  52.3530  0.00  0.00     0.000 S
ATOM     39   O  A00 X   2      44.261  30.174  52.6060  0.00  0.00     0.000 OA
ENDBRANCH 24 34
BRANCH 20 40
ATOM     40  O4  A00 X   3      46.778  31.947  58.1040  0.00  0.00     0.000 O
BRANCH 40 44
ATOM     41  C1  A00 X   3      43.796  30.435  59.5000  0.00  0.00     0.000 C
ATOM     42  C2  A00 X   3      44.765  31.351  60.2780  0.00  0.00     0.000 C
ATOM     43  C3  A00 X   3      46.231  30.871  60.1200  0.00  0.00     0.000 C
ATOM     44  C4  A00 X   3      46.666  30.628  58.6800  0.00  0.00     0.000 C
ATOM     45  C5  A00 X   3      45.646  29.696  57.9660  0.00  0.00     0.000 C
ATOM     46  O5  A00 X   3      44.277  30.181  58.1510  0.00  0.00     0.000 O
ATOM     47   O  A00 X   3      47.207  31.594  60.8680  0.00  0.00     0.000 O
ATOM     49  HD  A00 X   3      47.676  31.482  60.1490  0.00  0.00     0.000 HD
BRANCH 42 49
ATOM     49   O  A00 X   3      44.589  32.689  59.7620  0.00  0.00     0.000 O
ATOM     50   O  A00 X   3      45.576  34.836  60.1410  0.00  0.00     0.000 OA
ATOM     51   O  A00 X   3      45.121  33.446  61.9980  0.00  0.00     0.000 OA
ATOM     52   O  A00 X   3      43.299  34.356  60.7980  0.00  0.00     0.000 OA
ATOM     53   S  A00 X   3      44.649  33.915  60.7190  0.00  0.00     0.000 S
ENDBRANCH 42 49
BRANCH 45 54
ATOM     54   C  A00 X   3      45.829  28.231  58.3820  0.00  0.00     0.000 C
ATOM     55   O  A00 X   3      46.542  27.939  59.3210  0.00  0.00     0.000 OA
ATOM     56   O  A00 X   3      45.263  27.334  57.7770  0.00  0.00     0.000 OA
ENDBRANCH 45 54
BRANCH 41 57
ATOM     57  O4  A00 X   4      43.479  29.238  60.2450  0.00  0.00     0.000 O
BRANCH 57 61
ATOM     58  C1  A00 X   4      39.925  26.802  60.5190  0.00  0.00     0.000 C
ATOM     59  C2  A00 X   4      40.627  26.937  59.1450  0.00  0.00     0.000 C
ATOM     60  C3  A00 X   4      42.053  27.516  59.2380  0.00  0.00     0.000 C
ATOM     61  C4  A00 X   4      42.102  28.780  60.1230  0.00  0.00     0.000 C
ATOM     62  C5  A00 X   4      41.550  28.364  61.5090  0.00  0.00     0.000 C
ATOM     63  O5  A00 X   4      40.168  27.948  61.3670  0.00  0.00     0.000 O
BRANCH 59 66
ATOM     64   N  A00 X   4      39.872  27.871  58.2910  0.00  0.00     0.000 N
ATOM     66  HD  A00 X   4      39.408  28.487  58.6840  0.00  0.00     0.000 HD
ATOM     66   O  A00 X   4      38.410  26.036  57.7470  0.00  0.00     0.000 OA
ATOM     67   S  A00 X   4      38.888  27.262  57.1870  0.00  0.00     0.000 S
ATOM     68   O  A00 X   4      37.921  28.316  57.0930  0.00  0.00     0.000 OA
ATOM     69   O  A00 X   4      39.782  27.182  56.0670  0.00  0.00     0.000 OA
ENDBRANCH 59 66
BRANCH 62 70
ATOM     70   C  A00 X   4      41.621  29.479  62.5780  0.00  0.00     0.000 C
ATOM     71   O  A00 X   4      39.716  32.552  62.7710  0.00  0.00     0.000 OA
ATOM     72   O  A00 X   4      42.032  32.169  62.9550  0.00  0.00     0.000 OA
ATOM     73   O  A00 X   4      40.520  30.384  62.3950  0.00  0.00     0.000 O
ATOM     74   O  A00 X   4      40.971  32.098  60.7630  0.00  0.00     0.000 OA
ATOM     75   S  A00 X   4      40.847  31.901  62.1710  0.00  0.00     0.000 S
ENDBRANCH 62 70
ENDBRANCH 57 61
ENDBRANCH 41 57
ENDBRANCH 40 44
ENDBRANCH 20 40
ENDBRANCH 19 23
ENDBRANCH 1 19
TORSDOF 14
ENDMDL
MODEL 34
REMARK VINA RESULT:      -0.2     64.561     69.558
ROOT
ATOM      1  C1  A00 X   1      54.372  38.798  47.9310  0.00  0.00     0.000 C
ATOM      2  C2  A00 X   1      54.939  37.554  47.1970  0.00  0.00     0.000 C
ATOM      3  C3  A00 X   1      56.426  37.657  46.7200  0.00  0.00     0.000 C
ATOM      4  C4  A00 X   1      57.026  39.086  46.7040  0.00  0.00     0.000 C
ATOM      5  C5  A00 X   1      55.946  40.165  46.6260  0.00  0.00     0.000 C
ATOM      6  O5  A00 X   1      55.175  40.001  47.8370  0.00  0.00     0.000 O
ATOM      7   O  A00 X   1      56.512  37.167  45.3840  0.00  0.00     0.000 O
ATOM      9  HD  A00 X   1      57.011  37.873  45.4290  0.00  0.00     0.000 HD
ATOM      9   O  A00 X   1      57.856  39.316  47.8420  0.00  0.00     0.000 O
ATOM     11  HD  A00 X   1      58.355  40.023  47.8880  0.00  0.00     0.000 HD
ENDROOT
BRANCH 2 11
ATOM     11   O  A00 X   1      54.807  36.425  48.0810  0.00  0.00     0.000 O
ATOM     12   O  A00 X   1      55.760  34.283  47.5580  0.00  0.00     0.000 OA
ATOM     13   O  A00 X   1      54.001  35.182  46.1390  0.00  0.00     0.000 OA
ATOM     14   O  A00 X   1      53.521  34.497  48.3660  0.00  0.00     0.000 OA
ATOM     15   S  A00 X   1      54.520  35.011  47.4680  0.00  0.00     0.000 S
ENDBRANCH 2 11
BRANCH 5 16
ATOM     16   C  A00 X   1      55.096  40.140  45.3510  0.00  0.00     0.000 C
ATOM     17   O  A00 X   1      54.091  40.818  45.3090  0.00  0.00     0.000 OA
ATOM     18   O  A00 X   1      55.396  39.473  44.3810  0.00  0.00     0.000 OA
ENDBRANCH 5 16
BRANCH 1 19
ATOM     19  O4  A00 X   2      52.986  39.061  47.6000  0.00  0.00     0.000 O
BRANCH 19 23
ATOM     20  C1  A00 X   2      51.923  40.182  51.5970  0.00  0.00     0.000 C
ATOM     21  C2  A00 X   2      51.616  38.731  51.1570  0.00  0.00     0.000 C
ATOM     22  C3  A00 X   2      52.423  38.356  49.8960  0.00  0.00     0.000 C
ATOM     23  C4  A00 X   2      52.185  39.389  48.7710  0.00  0.00     0.000 C
ATOM     24  C5  A00 X   2      52.509  40.796  49.3420  0.00  0.00     0.000 C
ATOM     25  O5  A00 X   2      51.636  41.054  50.4720  0.00  0.00     0.000 O
ATOM     26   O  A00 X   2      52.156  36.982  49.5680  0.00  0.00     0.000 O
ATOM     28  HD  A00 X   2      51.297  37.087  49.6080  0.00  0.00     0.000 HD
BRANCH 21 30
ATOM     28   N  A00 X   2      50.411  38.772  51.9920  0.00  0.00     0.000 N
ATOM     30  HD  A00 X   2      50.560  37.939  51.8070  0.00  0.00     0.000 HD
ATOM     30   O  A00 X   2      50.013  36.617  52.8010  0.00  0.00     0.000 OA
ATOM     31   S  A00 X   2      49.403  37.557  51.9290  0.00  0.00     0.000 S
ATOM     32   O  A00 X   2      48.173  38.112  52.4040  0.00  0.00     0.000 OA
ATOM     33   O  A00 X   2      49.279  37.180  50.5520  0.00  0.00     0.000 OA
ENDBRANCH 21 30
BRANCH 24 34
ATOM     34   C  A00 X   2      52.572  41.984  48.3530  0.00  0.00     0.000 C
ATOM     35   O  A00 X   2      49.815  42.994  46.2000  0.00  0.00     0.000 OA
ATOM     36   O  A00 X   2      51.491  41.928  47.4000  0.00  0.00     0.000 O
ATOM     37   O  A00 X   2      49.654  42.806  48.5520  0.00  0.00     0.000 OA
ATOM     38   S  A00 X   2      50.495  43.144  47.4440  0.00  0.00     0.000 S
ATOM     39   O  A00 X   2      51.300  44.323  47.5580  0.00  0.00     0.000 OA
ENDBRANCH 24 34
BRANCH 20 40
ATOM     40  O4  A00 X   3      53.330  40.212  51.8800  0.00  0.00     0.000 O
BRANCH 40 44
ATOM     41  C1  A00 X   3      56.470  41.974  51.4760  0.00  0.00     0.000 C
ATOM     42  C2  A00 X   3      56.307  40.619  52.1990  0.00  0.00     0.000 C
ATOM     43  C3  A00 X   3      55.174  40.686  53.2560  0.00  0.00     0.000 C
ATOM     44  C4  A00 X   3      53.857  41.247  52.7370  0.00  0.00     0.000 C
ATOM     45  C5  A00 X   3      54.101  42.610  52.0290  0.00  0.00     0.000 C
ATOM     46  O5  A00 X   3      55.184  42.503  51.0490  0.00  0.00     0.000 O
ATOM     47   O  A00 X   3      54.992  39.514  54.0480  0.00  0.00     0.000 O
ATOM     49  HD  A00 X   3      54.155  39.713  53.9480  0.00  0.00     0.000 HD
BRANCH 42 49
ATOM     49   O  A00 X   3      56.026  39.629  51.1850  0.00  0.00     0.000 O
ATOM     50   O  A00 X   3      55.532  37.287  51.1400  0.00  0.00     0.000 OA
ATOM     51   O  A00 X   3      57.211  38.071  52.6080  0.00  0.00     0.000 OA
ATOM     52   O  A00 X   3      57.618  38.159  50.2820  0.00  0.00     0.000 OA
ATOM     53   S  A00 X   3      56.624  38.197  51.2980  0.00  0.00     0.000 S
ENDBRANCH 42 49
BRANCH 45 54
ATOM     54   C  A00 X   3      54.311  43.744  53.0390  0.00  0.00     0.000 C
ATOM     55   O  A00 X   3      54.456  43.503  54.2200  0.00  0.00     0.000 OA
ATOM     56   O  A00 X   3      54.335  44.910  52.6740  0.00  0.00     0.000 OA
ENDBRANCH 45 54
BRANCH 41 57
ATOM     57  O4  A00 X   4      57.258  42.903  52.2540  0.00  0.00     0.000 O
BRANCH 57 61
ATOM     58  C1  A00 X   4      60.039  46.021  51.1700  0.00  0.00     0.000 C
ATOM     59  C2  A00 X   4      58.570  46.140  50.6930  0.00  0.00     0.000 C
ATOM     60  C3  A00 X   4      57.607  45.184  51.4260  0.00  0.00     0.000 C
ATOM     61  C4  A00 X   4      58.161  43.744  51.4820  0.00  0.00     0.000 C
ATOM     62  C5  A00 X   4      59.539  43.834  52.1830  0.00  0.00     0.000 C
ATOM     63  O5  A00 X   4      60.432  44.646  51.3770  0.00  0.00     0.000 O
BRANCH 59 66
ATOM     64   N  A00 X   4      58.473  45.782  49.2670  0.00  0.00     0.000 N
ATOM     66  HD  A00 X   4      59.060  45.228  48.9530  0.00  0.00     0.000 HD
ATOM     66   O  A00 X   4      59.183  48.026  48.7580  0.00  0.00     0.000 OA
ATOM     67   S  A00 X   4      58.412  46.964  48.1920  0.00  0.00     0.000 S
ATOM     68   O  A00 X   4      58.998  46.313  47.0570  0.00  0.00     0.000 OA
ATOM     69   O  A00 X   4      56.991  47.146  48.0960  0.00  0.00     0.000 OA
ENDBRANCH 59 66
BRANCH 62 70
ATOM     70   C  A00 X   4      60.212  42.464  52.4340  0.00  0.00     0.000 C
ATOM     71   O  A00 X   4      61.612  40.157  50.0200  0.00  0.00     0.000 OA
ATOM     72   O  A00 X   4      60.112  39.794  51.7980  0.00  0.00     0.000 OA
ATOM     73   O  A00 X   4      60.838  42.013  51.2210  0.00  0.00     0.000 O
ATOM     74   O  A00 X   4      59.320  40.855  49.7520  0.00  0.00     0.000 OA
ATOM     75   S  A00 X   4      60.406  40.619  50.6470  0.00  0.00     0.000 S
ENDBRANCH 62 70
ENDBRANCH 57 61
ENDBRANCH 41 57
ENDBRANCH 40 44
ENDBRANCH 20 40
ENDBRANCH 19 23
ENDBRANCH 1 19
TORSDOF 14
ENDMDL
MODEL 35
REMARK VINA RESULT:      -0.2     61.873     66.191
ROOT
ATOM      1  C1  A00 X   1       9.758  70.148  31.3060  0.00  0.00     0.000 C
ATOM      2  C2  A00 X   1       8.591  71.167  31.2140  0.00  0.00     0.000 C
ATOM      3  C3  A00 X   1       8.382  71.849  29.8220  0.00  0.00     0.000 C
ATOM      4  C4  A00 X   1       9.563  71.712  28.8270  0.00  0.00     0.000 C
ATOM      5  C5  A00 X   1      10.886  71.431  29.5370  0.00  0.00     0.000 C
ATOM      6  O5  A00 X   1      10.687  70.159  30.1940  0.00  0.00     0.000 O
ATOM      7   O  A00 X   1       8.180  73.246  30.0220  0.00  0.00     0.000 O
ATOM      9  HD  A00 X   1       8.697  73.159  29.3330  0.00  0.00     0.000 HD
ATOM      9   O  A00 X   1       9.311  70.698  27.8550  0.00  0.00     0.000 O
ATOM     11  HD  A00 X   1       9.828  70.610  27.1650  0.00  0.00     0.000 HD
ENDROOT
BRANCH 2 11
ATOM     11   O  A00 X   1       7.380  70.481  31.5870  0.00  0.00     0.000 O
ATOM     12   O  A00 X   1       5.219  71.505  31.3640  0.00  0.00     0.000 OA
ATOM     13   O  A00 X   1       6.836  72.462  32.9080  0.00  0.00     0.000 OA
ATOM     14   O  A00 X   1       5.857  70.341  33.3510  0.00  0.00     0.000 OA
ATOM     15   S  A00 X   1       6.257  71.278  32.3370  0.00  0.00     0.000 S
ENDBRANCH 2 11
BRANCH 5 16
ATOM     16   C  A00 X   1      11.364  72.540  30.4800  0.00  0.00     0.000 C
ATOM     17   O  A00 X   1      12.287  72.305  31.2330  0.00  0.00     0.000 OA
ATOM     18   O  A00 X   1      10.859  73.645  30.4960  0.00  0.00     0.000 OA
ENDBRANCH 5 16
BRANCH 1 19
ATOM     19  O4  A00 X   2      10.453  70.205  32.5760  0.00  0.00     0.000 O
BRANCH 19 23
ATOM     20  C1  A00 X   2      10.941  65.956  32.8450  0.00  0.00     0.000 C
ATOM     21  C2  A00 X   2       9.763  66.591  33.6230  0.00  0.00     0.000 C
ATOM     22  C3  A00 X   2       9.458  68.009  33.0970  0.00  0.00     0.000 C
ATOM     23  C4  A00 X   2      10.732  68.883  33.1200  0.00  0.00     0.000 C
ATOM     24  C5  A00 X   2      11.837  68.132  32.3270  0.00  0.00     0.000 C
ATOM     25  O5  A00 X   2      12.080  66.851  32.9630  0.00  0.00     0.000 O
ATOM     26   O  A00 X   2       8.317  68.526  33.8020  0.00  0.00     0.000 O
ATOM     28  HD  A00 X   2       8.646  68.333  34.5800  0.00  0.00     0.000 HD
BRANCH 21 30
ATOM     28   N  A00 X   2       9.959  65.581  34.6680  0.00  0.00     0.000 N
ATOM     30  HD  A00 X   2       9.177  65.930  34.8000  0.00  0.00     0.000 HD
ATOM     30   O  A00 X   2       7.879  65.111  35.6240  0.00  0.00     0.000 OA
ATOM     31   S  A00 X   2       9.117  65.696  36.0010  0.00  0.00     0.000 S
ATOM     32   O  A00 X   2       9.878  64.941  36.9480  0.00  0.00     0.000 OA
ATOM     33   O  A00 X   2       9.096  67.080  36.3700  0.00  0.00     0.000 OA
ENDBRANCH 21 30
BRANCH 24 34
ATOM     34   C  A00 X   2      13.143  68.895  32.0030  0.00  0.00     0.000 C
ATOM     35   O  A00 X   2      16.427  67.942  33.2540  0.00  0.00     0.000 OA
ATOM     36   O  A00 X   2      14.206  68.516  32.9000  0.00  0.00     0.000 O
ATOM     37   O  A00 X   2      15.007  66.497  32.0330  0.00  0.00     0.000 OA
ATOM     38   S  A00 X   2      15.453  67.844  32.2170  0.00  0.00     0.000 S
ATOM     39   O  A00 X   2      15.736  68.615  31.0440  0.00  0.00     0.000 OA
ENDBRANCH 24 34
BRANCH 20 40
ATOM     40  O4  A00 X   3      10.516  65.899  31.4760  0.00  0.00     0.000 O
BRANCH 40 44
ATOM     41  C1  A00 X   3      11.333  66.413  27.9840  0.00  0.00     0.000 C
ATOM     42  C2  A00 X   3       9.958  65.943  28.5060  0.00  0.00     0.000 C
ATOM     43  C3  A00 X   3      10.113  64.740  29.4720  0.00  0.00     0.000 C
ATOM     44  C4  A00 X   3      11.134  64.947  30.5830  0.00  0.00     0.000 C
ATOM     45  C5  A00 X   3      12.489  65.413  29.9800  0.00  0.00     0.000 C
ATOM     46  O5  A00 X   3      12.295  66.542  29.0680  0.00  0.00     0.000 O
ATOM     47   O  A00 X   3       8.898  64.165  29.9510  0.00  0.00     0.000 O
ATOM     49  HD  A00 X   3       9.349  64.103  30.6870  0.00  0.00     0.000 HD
BRANCH 42 49
ATOM     49   O  A00 X   3       9.347  67.074  29.1650  0.00  0.00     0.000 O
ATOM     50   O  A00 X   3       7.313  67.493  30.3560  0.00  0.00     0.000 OA
ATOM     51   O  A00 X   3       7.236  66.171  28.3970  0.00  0.00     0.000 OA
ATOM     52   O  A00 X   3       7.734  68.472  28.1860  0.00  0.00     0.000 OA
ATOM     53   S  A00 X   3       7.817  67.330  29.0290  0.00  0.00     0.000 S
ENDBRANCH 42 49
BRANCH 45 54
ATOM     54   C  A00 X   3      13.258  64.249  29.3440  0.00  0.00     0.000 C
ATOM     55   O  A00 X   3      12.723  63.171  29.1790  0.00  0.00     0.000 OA
ATOM     56   O  A00 X   3      14.420  64.384  28.9940  0.00  0.00     0.000 OA
ENDBRANCH 45 54
BRANCH 41 57
ATOM     57  O4  A00 X   4      11.794  65.596  26.8850  0.00  0.00     0.000 O
BRANCH 57 61
ATOM     58  C1  A00 X   4      14.139  66.460  23.3630  0.00  0.00     0.000 C
ATOM     59  C2  A00 X   4      14.785  66.672  24.7550  0.00  0.00     0.000 C
ATOM     60  C3  A00 X   4      14.005  66.002  25.9040  0.00  0.00     0.000 C
ATOM     61  C4  A00 X   4      12.495  66.317  25.8310  0.00  0.00     0.000 C
ATOM     62  C5  A00 X   4      12.016  65.833  24.4400  0.00  0.00     0.000 C
ATOM     63  O5  A00 X   4      12.699  66.591  23.4090  0.00  0.00     0.000 O
BRANCH 59 66
ATOM     64   N  A00 X   4      14.815  68.109  25.0800  0.00  0.00     0.000 N
ATOM     66  HD  A00 X   4      14.205  68.612  24.7260  0.00  0.00     0.000 HD
ATOM     66   O  A00 X   4      16.812  68.268  23.7450  0.00  0.00     0.000 OA
ATOM     67   S  A00 X   4      16.182  68.908  24.8570  0.00  0.00     0.000 S
ATOM     68   O  A00 X   4      15.673  70.225  24.6040  0.00  0.00     0.000 OA
ATOM     69   O  A00 X   4      16.783  68.749  26.1510  0.00  0.00     0.000 OA
ENDBRANCH 59 66
BRANCH 62 70
ATOM     70   C  A00 X   4      10.490  65.964  24.2160  0.00  0.00     0.000 C
ATOM     71   O  A00 X   4       8.513  68.970  23.8160  0.00  0.00     0.000 OA
ATOM     72   O  A00 X   4       8.192  67.096  25.2060  0.00  0.00     0.000 OA
ATOM     73   O  A00 X   4      10.176  67.321  23.8650  0.00  0.00     0.000 O
ATOM     74   O  A00 X   4       9.888  68.749  25.7840  0.00  0.00     0.000 OA
ATOM     75   S  A00 X   4       9.143  68.090  24.7590  0.00  0.00     0.000 S
ENDBRANCH 62 70
ENDBRANCH 57 61
ENDBRANCH 41 57
ENDBRANCH 40 44
ENDBRANCH 20 40
ENDBRANCH 19 23
ENDBRANCH 1 19
TORSDOF 14
ENDMDL
MODEL 36
REMARK VINA RESULT:      -0.2     60.764     66.067
ROOT
ATOM      1  C1  A00 X   1      52.360  43.351  39.7820  0.00  0.00     0.000 C
ATOM      2  C2  A00 X   1      52.579  42.577  38.4550  0.00  0.00     0.000 C
ATOM      3  C3  A00 X   1      52.831  43.452  37.1830  0.00  0.00     0.000 C
ATOM      4  C4  A00 X   1      52.472  44.954  37.3220  0.00  0.00     0.000 C
ATOM      5  C5  A00 X   1      51.458  45.203  38.4390  0.00  0.00     0.000 C
ATOM      6  O5  A00 X   1      52.129  44.775  39.6460  0.00  0.00     0.000 O
ATOM      7   O  A00 X   1      52.038  42.943  36.1130  0.00  0.00     0.000 O
ATOM      9  HD  A00 X   1      51.993  43.807  36.0760  0.00  0.00     0.000 HD
ATOM      9   O  A00 X   1      53.635  45.751  37.5400  0.00  0.00     0.000 O
ATOM     11  HD  A00 X   1      53.590  46.615  37.5030  0.00  0.00     0.000 HD
ENDROOT
BRANCH 2 11
ATOM     11   O  A00 X   1      53.699  41.691  38.6450  0.00  0.00     0.000 O
ATOM     12   O  A00 X   1      54.634  40.420  36.8340  0.00  0.00     0.000 OA
ATOM     13   O  A00 X   1      52.348  39.982  37.5400  0.00  0.00     0.000 OA
ATOM     14   O  A00 X   1      54.175  39.426  38.9580  0.00  0.00     0.000 OA
ATOM     15   S  A00 X   1      53.696  40.300  37.9210  0.00  0.00     0.000 S
ENDBRANCH 2 11
BRANCH 5 16
ATOM     16   C  A00 X   1      50.090  44.545  38.2320  0.00  0.00     0.000 C
ATOM     17   O  A00 X   1      49.301  44.542  39.1540  0.00  0.00     0.000 OA
ATOM     18   O  A00 X   1      49.766  44.034  37.1780  0.00  0.00     0.000 OA
ENDBRANCH 5 16
BRANCH 1 19
ATOM     19  O4  A00 X   2      51.364  42.734  40.6340  0.00  0.00     0.000 O
BRANCH 19 23
ATOM     20  C1  A00 X   2      53.525  43.517  44.2510  0.00  0.00     0.000 C
ATOM     21  C2  A00 X   2      53.670  42.110  43.6220  0.00  0.00     0.000 C
ATOM     22  C3  A00 X   2      53.210  42.116  42.1500  0.00  0.00     0.000 C
ATOM     23  C4  A00 X   2      51.777  42.682  42.0300  0.00  0.00     0.000 C
ATOM     24  C5  A00 X   2      51.759  44.078  42.7100  0.00  0.00     0.000 C
ATOM     25  O5  A00 X   2      52.138  43.924  44.1030  0.00  0.00     0.000 O
ATOM     26   O  A00 X   2      53.429  40.809  41.5920  0.00  0.00     0.000 O
ATOM     28  HD  A00 X   2      53.029  40.408  42.2470  0.00  0.00     0.000 HD
BRANCH 21 30
ATOM     28   N  A00 X   2      53.764  41.555  44.9760  0.00  0.00     0.000 N
ATOM     30  HD  A00 X   2      54.047  40.942  44.4340  0.00  0.00     0.000 HD
ATOM     30   O  A00 X   2      55.150  39.676  44.8980  0.00  0.00     0.000 OA
ATOM     31   S  A00 X   2      53.788  39.984  45.1520  0.00  0.00     0.000 S
ATOM     32   O  A00 X   2      53.366  39.789  46.5050  0.00  0.00     0.000 OA
ATOM     33   O  A00 X   2      52.819  39.442  44.2460  0.00  0.00     0.000 OA
ENDBRANCH 21 30
BRANCH 24 34
ATOM     34   C  A00 X   2      50.500  44.958  42.5280  0.00  0.00     0.000 C
ATOM     35   O  A00 X   2      47.122  43.882  43.3560  0.00  0.00     0.000 OA
ATOM     36   O  A00 X   2      49.296  44.168  42.5960  0.00  0.00     0.000 O
ATOM     37   O  A00 X   2      48.925  43.870  44.8860  0.00  0.00     0.000 OA
ATOM     38   S  A00 X   2      48.319  44.534  43.7720  0.00  0.00     0.000 S
ATOM     39   O  A00 X   2      48.250  45.964  43.8110  0.00  0.00     0.000 OA
ENDBRANCH 24 34
BRANCH 20 40
ATOM     40  O4  A00 X   3      54.365  44.380  43.4710  0.00  0.00     0.000 O
BRANCH 40 44
ATOM     41  C1  A00 X   3      54.747  47.559  41.7770  0.00  0.00     0.000 C
ATOM     42  C2  A00 X   3      55.810  46.439  41.7980  0.00  0.00     0.000 C
ATOM     43  C3  A00 X   3      56.086  45.962  43.2470  0.00  0.00     0.000 C
ATOM     44  C4  A00 X   3      54.838  45.615  44.0480  0.00  0.00     0.000 C
ATOM     45  C5  A00 X   3      53.821  46.790  43.9840  0.00  0.00     0.000 C
ATOM     46  O5  A00 X   3      53.599  47.214  42.6000  0.00  0.00     0.000 O
ATOM     47   O  A00 X   3      57.116  44.987  43.3960  0.00  0.00     0.000 O
ATOM     49  HD  A00 X   3      56.569  44.663  43.9840  0.00  0.00     0.000 HD
BRANCH 42 49
ATOM     49   O  A00 X   3      55.307  45.364  40.9750  0.00  0.00     0.000 O
ATOM     50   O  A00 X   3      56.031  43.164  40.3660  0.00  0.00     0.000 OA
ATOM     51   O  A00 X   3      57.623  44.910  40.4380  0.00  0.00     0.000 OA
ATOM     52   O  A00 X   3      55.965  44.966  38.7550  0.00  0.00     0.000 OA
ATOM     53   S  A00 X   3      56.277  44.542  40.0760  0.00  0.00     0.000 S
ENDBRANCH 42 49
BRANCH 45 54
ATOM     54   C  A00 X   3      54.226  47.943  44.9100  0.00  0.00     0.000 C
ATOM     55   O  A00 X   3      53.475  48.878  45.0990  0.00  0.00     0.000 OA
ATOM     56   O  A00 X   3      55.310  47.942  45.4720  0.00  0.00     0.000 OA
ENDBRANCH 45 54
BRANCH 41 57
ATOM     57  O4  A00 X   4      55.324  48.848  42.0850  0.00  0.00     0.000 O
BRANCH 57 61
ATOM     58  C1  A00 X   4      54.428  52.859  40.7640  0.00  0.00     0.000 C
ATOM     59  C2  A00 X   4      53.338  52.071  41.5310  0.00  0.00     0.000 C
ATOM     60  C3  A00 X   4      53.878  50.821  42.2550  0.00  0.00     0.000 C
ATOM     61  C4  A00 X   4      54.774  49.967  41.3320  0.00  0.00     0.000 C
ATOM     62  C5  A00 X   4      55.913  50.898  40.8470  0.00  0.00     0.000 C
ATOM     63  O5  A00 X   4      55.344  51.982  40.0690  0.00  0.00     0.000 O
BRANCH 59 66
ATOM     64   N  A00 X   4      52.317  51.572  40.5920  0.00  0.00     0.000 N
ATOM     66  HD  A00 X   4      52.565  51.418  39.7770  0.00  0.00     0.000 HD
ATOM     66   O  A00 X   4      51.305  53.755  40.6900  0.00  0.00     0.000 OA
ATOM     67   S  A00 X   4      50.949  52.390  40.4560  0.00  0.00     0.000 S
ATOM     68   O  A00 X   4      50.590  52.069  39.1050  0.00  0.00     0.000 OA
ATOM     69   O  A00 X   4      50.156  51.725  41.4500  0.00  0.00     0.000 OA
ENDBRANCH 59 66
BRANCH 62 70
ATOM     70   C  A00 X   4      56.987  50.188  39.9890  0.00  0.00     0.000 C
ATOM     71   O  A00 X   4      56.684  48.848  36.6390  0.00  0.00     0.000 OA
ATOM     72   O  A00 X   4      57.554  47.885  38.6040  0.00  0.00     0.000 OA
ATOM     73   O  A00 X   4      56.504  50.049  38.6430  0.00  0.00     0.000 O
ATOM     74   O  A00 X   4      55.141  48.086  38.3290  0.00  0.00     0.000 OA
ATOM     75   S  A00 X   4      56.438  48.605  38.0330  0.00  0.00     0.000 S
ENDBRANCH 62 70
ENDBRANCH 57 61
ENDBRANCH 41 57
ENDBRANCH 40 44
ENDBRANCH 20 40
ENDBRANCH 19 23
ENDBRANCH 1 19
TORSDOF 14
ENDMDL
MODEL 37
REMARK VINA RESULT:      -0.2     51.505     56.917
ROOT
ATOM      1  C1  A00 X   1      38.683  11.753  57.9420  0.00  0.00     0.000 C
ATOM      2  C2  A00 X   1      40.091  11.175  57.6400  0.00  0.00     0.000 C
ATOM      3  C3  A00 X   1      40.500  11.111  56.1320  0.00  0.00     0.000 C
ATOM      4  C4  A00 X   1      39.339  11.280  55.1170  0.00  0.00     0.000 C
ATOM      5  C5  A00 X   1      37.982  10.937  55.7310  0.00  0.00     0.000 C
ATOM      6  O5  A00 X   1      37.807  11.897  56.7970  0.00  0.00     0.000 O
ATOM      7   O  A00 X   1      41.085   9.838  55.8690  0.00  0.00     0.000 O
ATOM      9  HD  A00 X   1      40.572  10.027  55.1970  0.00  0.00     0.000 HD
ATOM      9   O  A00 X   1      39.305  12.602  54.5790  0.00  0.00     0.000 O
ATOM     11  HD  A00 X   1      38.792  12.791  53.9080  0.00  0.00     0.000 HD
ENDROOT
BRANCH 2 11
ATOM     11   O  A00 X   1      41.055  11.973  58.3540  0.00  0.00     0.000 O
ATOM     12   O  A00 X   1      43.419  11.688  58.0440  0.00  0.00     0.000 OA
ATOM     13   O  A00 X   1      42.115   9.865  58.9890  0.00  0.00     0.000 OA
ATOM     14   O  A00 X   1      42.452  11.871  60.2220  0.00  0.00     0.000 OA
ATOM     15   S  A00 X   1      42.346  11.282  58.9150  0.00  0.00     0.000 S
ENDBRANCH 2 11
BRANCH 5 16
ATOM     16   C  A00 X   1      37.826   9.482  56.1850  0.00  0.00     0.000 C
ATOM     17   O  A00 X   1      36.869   9.187  56.8710  0.00  0.00     0.000 OA
ATOM     18   O  A00 X   1      38.619   8.614  55.8770  0.00  0.00     0.000 OA
ENDBRANCH 5 16
BRANCH 1 19
ATOM     19  O4  A00 X   2      38.018  11.071  59.0330  0.00  0.00     0.000 O
BRANCH 19 23
ATOM     20  C1  A00 X   2      36.346  14.662  60.6680  0.00  0.00     0.000 C
ATOM     21  C2  A00 X   2      37.651  14.127  61.3050  0.00  0.00     0.000 C
ATOM     22  C3  A00 X   2      38.348  13.120  60.3660  0.00  0.00     0.000 C
ATOM     23  C4  A00 X   2      37.374  11.992  59.9590  0.00  0.00     0.000 C
ATOM     24  C5  A00 X   2      36.106  12.656  59.3540  0.00  0.00     0.000 C
ATOM     25  O5  A00 X   2      35.507  13.518  60.3570  0.00  0.00     0.000 O
ATOM     26   O  A00 X   2      39.586  12.706  60.9710  0.00  0.00     0.000 O
ATOM     28  HD  A00 X   2      39.211  12.518  61.7280  0.00  0.00     0.000 HD
BRANCH 21 30
ATOM     28   N  A00 X   2      37.173  14.611  62.6030  0.00  0.00     0.000 N
ATOM     30  HD  A00 X   2      38.021  14.458  62.6900  0.00  0.00     0.000 HD
ATOM     30   O  A00 X   2      39.029  15.244  63.8730  0.00  0.00     0.000 OA
ATOM     31   S  A00 X   2      38.007  14.259  63.8990  0.00  0.00     0.000 S
ATOM     32   O  A00 X   2      37.060  14.399  64.9610  0.00  0.00     0.000 OA
ATOM     33   O  A00 X   2      38.420  12.892  63.7780  0.00  0.00     0.000 OA
ENDBRANCH 21 30
BRANCH 24 34
ATOM     34   C  A00 X   2      35.071  11.742  58.6570  0.00  0.00     0.000 C
ATOM     35   O  A00 X   2      33.395   8.947  60.2810  0.00  0.00     0.000 OA
ATOM     36   O  A00 X   2      34.849  10.533  59.4110  0.00  0.00     0.000 O
ATOM     37   O  A00 X   2      33.359  11.166  61.0990  0.00  0.00     0.000 OA
ATOM     38   S  A00 X   2      33.381  10.331  59.9370  0.00  0.00     0.000 S
ATOM     39   O  A00 X   2      32.511  10.678  58.8540  0.00  0.00     0.000 OA
ENDBRANCH 24 34
BRANCH 20 40
ATOM     40  O4  A00 X   3      36.745  15.309  59.4510  0.00  0.00     0.000 O
BRANCH 40 44
ATOM     41  C1  A00 X   3      36.110  15.798  55.9180  0.00  0.00     0.000 C
ATOM     42  C2  A00 X   3      37.288  16.424  56.6950  0.00  0.00     0.000 C
ATOM     43  C3  A00 X   3      36.790  17.139  57.9780  0.00  0.00     0.000 C
ATOM     44  C4  A00 X   3      35.875  16.296  58.8570  0.00  0.00     0.000 C
ATOM     45  C5  A00 X   3      34.714  15.707  58.0070  0.00  0.00     0.000 C
ATOM     46  O5  A00 X   3      35.229  15.052  56.8030  0.00  0.00     0.000 O
ATOM     47   O  A00 X   3      37.784  17.829  58.7320  0.00  0.00     0.000 O
ATOM     49  HD  A00 X   3      37.336  17.512  59.4010  0.00  0.00     0.000 HD
BRANCH 42 49
ATOM     49   O  A00 X   3      38.204  15.353  57.0100  0.00  0.00     0.000 O
ATOM     50   O  A00 X   3      40.263  15.130  58.2100  0.00  0.00     0.000 OA
ATOM     51   O  A00 X   3      39.956  17.011  56.8110  0.00  0.00     0.000 OA
ATOM     52   O  A00 X   3      40.165  14.881  55.8070  0.00  0.00     0.000 OA
ATOM     53   S  A00 X   3      39.741  15.593  56.9630  0.00  0.00     0.000 S
ENDBRANCH 42 49
BRANCH 45 54
ATOM     54   C  A00 X   3      33.638  16.758  57.7090  0.00  0.00     0.000 C
ATOM     55   O  A00 X   3      33.853  17.936  57.9070  0.00  0.00     0.000 OA
ATOM     56   O  A00 X   3      32.548  16.429  57.2690  0.00  0.00     0.000 OA
ENDBRANCH 45 54
BRANCH 41 57
ATOM     57  O4  A00 X   4      35.429  16.777  55.1010  0.00  0.00     0.000 O
BRANCH 57 61
ATOM     58  C1  A00 X   4      33.401  16.530  51.2970  0.00  0.00     0.000 C
ATOM     59  C2  A00 X   4      32.860  15.692  52.4820  0.00  0.00     0.000 C
ATOM     60  C3  A00 X   4      33.423  16.125  53.8510  0.00  0.00     0.000 C
ATOM     61  C4  A00 X   4      34.958  16.288  53.8130  0.00  0.00     0.000 C
ATOM     62  C5  A00 X   4      35.260  17.325  52.7030  0.00  0.00     0.000 C
ATOM     63  O5  A00 X   4      34.816  16.799  51.4260  0.00  0.00     0.000 O
BRANCH 59 66
ATOM     64   N  A00 X   4      33.242  14.275  52.3370  0.00  0.00     0.000 N
ATOM     66  HD  A00 X   4      33.971  14.100  51.9040  0.00  0.00     0.000 HD
ATOM     66   O  A00 X   4      31.377  14.030  50.8330  0.00  0.00     0.000 OA
ATOM     67   S  A00 X   4      32.161  13.256  51.7440  0.00  0.00     0.000 S
ATOM     68   O  A00 X   4      33.026  12.284  51.1420  0.00  0.00     0.000 OA
ATOM     69   O  A00 X   4      31.536  12.816  52.9590  0.00  0.00     0.000 OA
ENDBRANCH 59 66
BRANCH 62 70
ATOM     70   C  A00 X   4      36.754  17.707  52.5850  0.00  0.00     0.000 C
ATOM     71   O  A00 X   4      39.524  15.680  51.4320  0.00  0.00     0.000 OA
ATOM     72   O  A00 X   4      39.292  17.005  53.3650  0.00  0.00     0.000 OA
ATOM     73   O  A00 X   4      37.450  16.686  51.8520  0.00  0.00     0.000 O
ATOM     74   O  A00 X   4      38.162  14.850  53.2400  0.00  0.00     0.000 OA
ATOM     75   S  A00 X   4      38.671  15.988  52.5460  0.00  0.00     0.000 S
ENDBRANCH 62 70
ENDBRANCH 57 61
ENDBRANCH 41 57
ENDBRANCH 40 44
ENDBRANCH 20 40
ENDBRANCH 19 23
ENDBRANCH 1 19
TORSDOF 14
ENDMDL
MODEL 38
REMARK VINA RESULT:      -0.2     57.032     61.950
ROOT
ATOM      1  C1  A00 X   1      39.040  29.641  57.2800  0.00  0.00     0.000 C
ATOM      2  C2  A00 X   1      37.783  30.544  57.3950  0.00  0.00     0.000 C
ATOM      3  C3  A00 X   1      36.402  29.814  57.3130  0.00  0.00     0.000 C
ATOM      4  C4  A00 X   1      36.444  28.363  56.7680  0.00  0.00     0.000 C
ATOM      5  C5  A00 X   1      37.688  28.101  55.9190  0.00  0.00     0.000 C
ATOM      6  O5  A00 X   1      38.798  28.285  56.8270  0.00  0.00     0.000 O
ATOM      7   O  A00 X   1      35.547  30.549  56.4420  0.00  0.00     0.000 O
ATOM      9  HD  A00 X   1      35.427  29.709  56.2680  0.00  0.00     0.000 HD
ATOM      9   O  A00 X   1      36.371  27.406  57.8240  0.00  0.00     0.000 O
ATOM     11  HD  A00 X   1      36.252  26.566  57.6500  0.00  0.00     0.000 HD
ENDROOT
BRANCH 2 11
ATOM     11   O  A00 X   1      37.866  31.253  58.6470  0.00  0.00     0.000 O
ATOM     12   O  A00 X   1      36.036  32.560  59.4890  0.00  0.00     0.000 OA
ATOM     13   O  A00 X   1      37.117  33.224  57.4140  0.00  0.00     0.000 OA
ATOM     14   O  A00 X   1      38.276  33.393  59.4840  0.00  0.00     0.000 OA
ATOM     15   S  A00 X   1      37.261  32.696  58.7420  0.00  0.00     0.000 S
ENDBRANCH 2 11
BRANCH 5 16
ATOM     16   C  A00 X   1      37.793  28.946  54.6450  0.00  0.00     0.000 C
ATOM     17   O  A00 X   1      38.841  28.947  54.0330  0.00  0.00     0.000 OA
ATOM     18   O  A00 X   1      36.864  29.606  54.2230  0.00  0.00     0.000 OA
ENDBRANCH 5 16
BRANCH 1 19
ATOM     19  O4  A00 X   2      40.112  30.264  56.5310  0.00  0.00     0.000 O
BRANCH 19 23
ATOM     20  C1  A00 X   2      43.188  28.797  59.1300  0.00  0.00     0.000 C
ATOM     21  C2  A00 X   2      42.699  30.249  59.3500  0.00  0.00     0.000 C
ATOM     22  C3  A00 X   2      41.338  30.481  58.6610  0.00  0.00     0.000 C
ATOM     23  C4  A00 X   2      41.411  30.092  57.1670  0.00  0.00     0.000 C
ATOM     24  C5  A00 X   2      41.929  28.630  57.0820  0.00  0.00     0.000 C
ATOM     25  O5  A00 X   2      43.241  28.562  57.6970  0.00  0.00     0.000 O
ATOM     26   O  A00 X   2      40.896  31.818  58.9510  0.00  0.00     0.000 O
ATOM     28  HD  A00 X   2      41.651  32.172  58.7160  0.00  0.00     0.000 HD
BRANCH 21 30
ATOM     28   N  A00 X   2      44.068  30.604  59.7390  0.00  0.00     0.000 N
ATOM     30  HD  A00 X   2      43.556  31.253  60.0000  0.00  0.00     0.000 HD
ATOM     30   O  A00 X   2      43.952  32.327  61.3130  0.00  0.00     0.000 OA
ATOM     31   S  A00 X   2      44.415  32.126  59.9860  0.00  0.00     0.000 S
ATOM     32   O  A00 X   2      45.836  32.179  59.8270  0.00  0.00     0.000 OA
ATOM     33   O  A00 X   2      43.771  32.881  58.9520  0.00  0.00     0.000 OA
ENDBRANCH 21 30
BRANCH 24 34
ATOM     34   C  A00 X   2      41.876  27.920  55.7090  0.00  0.00     0.000 C
ATOM     35   O  A00 X   2      43.772  28.983  52.7880  0.00  0.00     0.000 OA
ATOM     36   O  A00 X   2      42.434  28.749  54.6700  0.00  0.00     0.000 O
ATOM     37   O  A00 X   2      44.746  28.468  54.8810  0.00  0.00     0.000 OA
ATOM     38   S  A00 X   2      43.703  28.161  53.9510  0.00  0.00     0.000 S
ATOM     39   O  A00 X   2      43.422  26.779  53.7020  0.00  0.00     0.000 OA
ENDBRANCH 24 34
BRANCH 20 40
ATOM     40  O4  A00 X   3      42.184  27.956  59.7160  0.00  0.00     0.000 O
BRANCH 40 44
ATOM     41  C1  A00 X   3      40.112  25.009  59.3340  0.00  0.00     0.000 C
ATOM     42  C2  A00 X   3      40.057  25.973  60.5390  0.00  0.00     0.000 C
ATOM     43  C3  A00 X   3      41.473  26.214  61.1230  0.00  0.00     0.000 C
ATOM     44  C4  A00 X   3      42.525  26.605  60.0920  0.00  0.00     0.000 C
ATOM     45  C5  A00 X   3      42.523  25.587  58.9170  0.00  0.00     0.000 C
ATOM     46  O5  A00 X   3      41.166  25.383  58.4050  0.00  0.00     0.000 O
ATOM     47   O  A00 X   3      41.534  27.023  62.2960  0.00  0.00     0.000 O
ATOM     49  HD  A00 X   3      42.245  27.332  61.9100  0.00  0.00     0.000 HD
BRANCH 42 49
ATOM     49   O  A00 X   3      39.464  27.204  60.0690  0.00  0.00     0.000 O
ATOM     50   O  A00 X   3      38.962  29.352  61.0000  0.00  0.00     0.000 OA
ATOM     51   O  A00 X   3      38.543  27.420  62.2970  0.00  0.00     0.000 OA
ATOM     52   O  A00 X   3      37.214  27.801  60.3800  0.00  0.00     0.000 OA
ATOM     53   S  A00 X   3      38.487  28.004  60.9800  0.00  0.00     0.000 S
ENDBRANCH 42 49
BRANCH 45 54
ATOM     54   C  A00 X   3      43.227  24.279  59.2980  0.00  0.00     0.000 C
ATOM     55   O  A00 X   3      43.577  24.076  60.4430  0.00  0.00     0.000 OA
ATOM     56   O  A00 X   3      43.448  23.421  58.4580  0.00  0.00     0.000 OA
ENDBRANCH 45 54
BRANCH 41 57
ATOM     57  O4  A00 X   4      40.166  23.628  59.7580  0.00  0.00     0.000 O
BRANCH 57 61
ATOM     58  C1  A00 X   4      38.584  19.977  58.0820  0.00  0.00     0.000 C
ATOM     59  C2  A00 X   4      39.615  20.786  57.2560  0.00  0.00     0.000 C
ATOM     60  C3  A00 X   4      40.367  21.849  58.0830  0.00  0.00     0.000 C
ATOM     61  C4  A00 X   4      39.402  22.700  58.9370  0.00  0.00     0.000 C
ATOM     62  C5  A00 X   4      38.623  21.706  59.8340  0.00  0.00     0.000 C
ATOM     63  O5  A00 X   4      37.842  20.817  58.9950  0.00  0.00     0.000 O
BRANCH 59 66
ATOM     64   N  A00 X   4      38.861  21.509  56.2160  0.00  0.00     0.000 N
ATOM     66  HD  A00 X   4      38.030  21.692  56.3780  0.00  0.00     0.000 HD
ATOM     66   O  A00 X   4      38.962  19.502  54.8890  0.00  0.00     0.000 OA
ATOM     67   S  A00 X   4      38.866  20.919  54.7290  0.00  0.00     0.000 S
ATOM     68   O  A00 X   4      37.602  21.403  54.2550  0.00  0.00     0.000 OA
ATOM     69   O  A00 X   4      40.001  21.611  54.1870  0.00  0.00     0.000 OA
ENDBRANCH 59 66
BRANCH 62 70
ATOM     70   C  A00 X   4      37.673  22.384  60.8510  0.00  0.00     0.000 C
ATOM     71   O  A00 X   4      34.592  24.177  60.2200  0.00  0.00     0.000 OA
ATOM     72   O  A00 X   4      36.468  24.760  61.5190  0.00  0.00     0.000 OA
ATOM     73   O  A00 X   4      36.455  22.757  60.1870  0.00  0.00     0.000 O
ATOM     74   O  A00 X   4      36.597  24.896  59.0890  0.00  0.00     0.000 OA
ATOM     75   S  A00 X   4      36.026  24.264  60.2340  0.00  0.00     0.000 S
ENDBRANCH 62 70
ENDBRANCH 57 61
ENDBRANCH 41 57
ENDBRANCH 40 44
ENDBRANCH 20 40
ENDBRANCH 19 23
ENDBRANCH 1 19
TORSDOF 14
ENDMDL
MODEL 39
REMARK VINA RESULT:      -0.2     81.367     85.640
ROOT
ATOM      1  C1  A00 X   1      64.913  48.761  59.3380  0.00  0.00     0.000 C
ATOM      2  C2  A00 X   1      65.305  47.461  58.5870  0.00  0.00     0.000 C
ATOM      3  C3  A00 X   1      64.475  47.131  57.3030  0.00  0.00     0.000 C
ATOM      4  C4  A00 X   1      63.149  47.919  57.1440  0.00  0.00     0.000 C
ATOM      5  C5  A00 X   1      62.629  48.450  58.4800  0.00  0.00     0.000 C
ATOM      6  O5  A00 X   1      63.655  49.359  58.9380  0.00  0.00     0.000 O
ATOM      7   O  A00 X   1      64.124  45.749  57.3280  0.00  0.00     0.000 O
ATOM      9  HD  A00 X   1      63.429  46.185  57.0490  0.00  0.00     0.000 HD
ATOM      9   O  A00 X   1      63.291  48.997  56.2190  0.00  0.00     0.000 O
ATOM     11  HD  A00 X   1      62.596  49.433  55.9400  0.00  0.00     0.000 HD
ENDROOT
BRANCH 2 11
ATOM     11   O  A00 X   1      66.698  47.564  58.2310  0.00  0.00     0.000 O
ATOM     12   O  A00 X   1      67.772  45.943  56.8220  0.00  0.00     0.000 OA
ATOM     13   O  A00 X   1      66.914  45.252  58.9910  0.00  0.00     0.000 OA
ATOM     14   O  A00 X   1      68.784  46.714  58.8450  0.00  0.00     0.000 OA
ATOM     15   S  A00 X   1      67.574  46.264  58.2130  0.00  0.00     0.000 S
ENDBRANCH 2 11
BRANCH 5 16
ATOM     16   C  A00 X   1      62.262  47.373  59.5060  0.00  0.00     0.000 C
ATOM     17   O  A00 X   1      62.048  47.711  60.6520  0.00  0.00     0.000 OA
ATOM     18   O  A00 X   1      62.170  46.198  59.2120  0.00  0.00     0.000 OA
ENDBRANCH 5 16
BRANCH 1 19
ATOM     19  O4  A00 X   2      64.998  48.624  60.7780  0.00  0.00     0.000 O
BRANCH 19 23
ATOM     20  C1  A00 X   2      66.593  52.558  61.3660  0.00  0.00     0.000 C
ATOM     21  C2  A00 X   2      67.596  51.380  61.3200  0.00  0.00     0.000 C
ATOM     22  C3  A00 X   2      66.949  50.132  60.6850  0.00  0.00     0.000 C
ATOM     23  C4  A00 X   2      65.633  49.772  61.4110  0.00  0.00     0.000 C
ATOM     24  C5  A00 X   2      64.727  51.034  61.4050  0.00  0.00     0.000 C
ATOM     25  O5  A00 X   2      65.419  52.109  62.0930  0.00  0.00     0.000 O
ATOM     26   O  A00 X   2      67.937  49.091  60.6020  0.00  0.00     0.000 O
ATOM     28  HD  A00 X   2      68.168  49.176  61.4330  0.00  0.00     0.000 HD
BRANCH 21 30
ATOM     28   N  A00 X   2      68.413  52.086  62.3120  0.00  0.00     0.000 N
ATOM     30  HD  A00 X   2      68.915  51.470  61.9660  0.00  0.00     0.000 HD
ATOM     30   O  A00 X   2      70.654  51.553  61.9200  0.00  0.00     0.000 OA
ATOM     31   S  A00 X   2      69.670  51.348  62.9230  0.00  0.00     0.000 S
ATOM     32   O  A00 X   2      69.906  52.041  64.1510  0.00  0.00     0.000 OA
ATOM     33   O  A00 X   2      69.280  49.994  63.1830  0.00  0.00     0.000 OA
ENDBRANCH 21 30
BRANCH 24 34
ATOM     34   C  A00 X   2      63.260  50.876  61.8680  0.00  0.00     0.000 C
ATOM     35   O  A00 X   2      62.276  49.629  65.1440  0.00  0.00     0.000 OA
ATOM     36   O  A00 X   2      63.169  50.045  63.0420  0.00  0.00     0.000 O
ATOM     37   O  A00 X   2      63.717  51.475  64.8100  0.00  0.00     0.000 OA
ATOM     38   S  A00 X   2      62.584  50.751  64.3200  0.00  0.00     0.000 S
ATOM     39   O  A00 X   2      61.451  51.510  63.8800  0.00  0.00     0.000 OA
ENDBRANCH 24 34
BRANCH 20 40
ATOM     40  O4  A00 X   3      66.240  52.821  60.0000  0.00  0.00     0.000 O
BRANCH 40 44
ATOM     41  C1  A00 X   3      63.595  53.502  57.6200  0.00  0.00     0.000 C
ATOM     42  C2  A00 X   3      65.087  53.342  57.2560  0.00  0.00     0.000 C
ATOM     43  C3  A00 X   3      65.976  54.244  58.1490  0.00  0.00     0.000 C
ATOM     44  C4  A00 X   3      65.710  54.116  59.6440  0.00  0.00     0.000 C
ATOM     45  C5  A00 X   3      64.192  54.293  59.9310  0.00  0.00     0.000 C
ATOM     46  O5  A00 X   3      63.391  53.431  59.0590  0.00  0.00     0.000 O
ATOM     47   O  A00 X   3      67.369  54.243  57.8440  0.00  0.00     0.000 O
ATOM     49  HD  A00 X   3      67.444  54.264  58.7060  0.00  0.00     0.000 HD
BRANCH 42 49
ATOM     49   O  A00 X   3      65.415  51.945  57.4230  0.00  0.00     0.000 O
ATOM     50   O  A00 X   3      67.382  50.593  57.2320  0.00  0.00     0.000 OA
ATOM     51   O  A00 X   3      66.985  52.266  55.6080  0.00  0.00     0.000 OA
ATOM     52   O  A00 X   3      65.548  50.390  55.6680  0.00  0.00     0.000 OA
ATOM     53   S  A00 X   3      66.390  51.243  56.4330  0.00  0.00     0.000 S
ENDBRANCH 42 49
BRANCH 45 54
ATOM     54   C  A00 X   3      63.772  55.767  59.8730  0.00  0.00     0.000 C
ATOM     55   O  A00 X   3      64.528  56.609  59.4340  0.00  0.00     0.000 OA
ATOM     56   O  A00 X   3      62.672  56.119  60.2680  0.00  0.00     0.000 OA
ENDBRANCH 45 54
BRANCH 41 57
ATOM     57  O4  A00 X   4      63.017  54.674  57.0020  0.00  0.00     0.000 O
BRANCH 57 61
ATOM     58  C1  A00 X   4      59.077  55.547  55.4690  0.00  0.00     0.000 C
ATOM     59  C2  A00 X   4      59.229  55.213  56.9740  0.00  0.00     0.000 C
ATOM     60  C3  A00 X   4      60.687  55.276  57.4730  0.00  0.00     0.000 C
ATOM     61  C4  A00 X   4      61.648  54.514  56.5340  0.00  0.00     0.000 C
ATOM     62  C5  A00 X   4      61.483  55.151  55.1320  0.00  0.00     0.000 C
ATOM     63  O5  A00 X   4      60.123  54.946  54.6710  0.00  0.00     0.000 O
BRANCH 59 66
ATOM     64   N  A00 X   4      58.783  53.831  57.2270  0.00  0.00     0.000 N
ATOM     66  HD  A00 X   4      58.846  53.264  56.5760  0.00  0.00     0.000 HD
ATOM     66   O  A00 X   4      56.529  54.678  57.2910  0.00  0.00     0.000 OA
ATOM     67   S  A00 X   4      57.314  53.607  57.8200  0.00  0.00     0.000 S
ATOM     68   O  A00 X   4      57.018  52.307  57.2930  0.00  0.00     0.000 OA
ATOM     69   O  A00 X   4      57.604  53.620  59.2260  0.00  0.00     0.000 OA
ENDBRANCH 59 66
BRANCH 62 70
ATOM     70   C  A00 X   4      62.453  54.589  54.0650  0.00  0.00     0.000 C
ATOM     71   O  A00 X   4      62.485  51.305  52.5430  0.00  0.00     0.000 OA
ATOM     72   O  A00 X   4      64.221  52.558  53.5230  0.00  0.00     0.000 OA
ATOM     73   O  A00 X   4      61.946  53.338  53.5740  0.00  0.00     0.000 O
ATOM     74   O  A00 X   4      62.576  51.461  54.9470  0.00  0.00     0.000 OA
ATOM     75   S  A00 X   4      62.868  52.075  53.6920  0.00  0.00     0.000 S
ENDBRANCH 62 70
ENDBRANCH 57 61
ENDBRANCH 41 57
ENDBRANCH 40 44
ENDBRANCH 20 40
ENDBRANCH 19 23
ENDBRANCH 1 19
TORSDOF 14
ENDMDL
MODEL 40
REMARK VINA RESULT:      -0.2     32.957     37.258
ROOT
ATOM      1  C1  A00 X   1      26.462  40.707  18.6320  0.00  0.00     0.000 C
ATOM      2  C2  A00 X   1      27.431  41.757  19.2400  0.00  0.00     0.000 C
ATOM      3  C3  A00 X   1      26.799  43.135  19.6220  0.00  0.00     0.000 C
ATOM      4  C4  A00 X   1      25.397  43.418  19.0220  0.00  0.00     0.000 C
ATOM      5  C5  A00 X   1      25.127  42.584  17.7690  0.00  0.00     0.000 C
ATOM      6  O5  A00 X   1      25.167  41.213  18.2250  0.00  0.00     0.000 O
ATOM      7   O  A00 X   1      27.655  44.176  19.1580  0.00  0.00     0.000 O
ATOM      9  HD  A00 X   1      26.841  44.423  18.9940  0.00  0.00     0.000 HD
ATOM      9   O  A00 X   1      24.364  43.195  19.9810  0.00  0.00     0.000 O
ATOM     11  HD  A00 X   1      23.550  43.442  19.8170  0.00  0.00     0.000 HD
ENDROOT
BRANCH 2 11
ATOM     11   O  A00 X   1      28.029  41.173  20.4130  0.00  0.00     0.000 O
ATOM     12   O  A00 X   1      29.663  42.347  21.7240  0.00  0.00     0.000 OA
ATOM     13   O  A00 X   1      30.186  41.751  19.4250  0.00  0.00     0.000 OA
ATOM     14   O  A00 X   1      29.970  40.064  21.0870  0.00  0.00     0.000 OA
ATOM     15   S  A00 X   1      29.563  41.377  20.6640  0.00  0.00     0.000 S
ENDBRANCH 2 11
BRANCH 5 16
ATOM     16   C  A00 X   1      26.064  42.865  16.5900  0.00  0.00     0.000 C
ATOM     17   O  A00 X   1      26.047  42.108  15.6410  0.00  0.00     0.000 OA
ATOM     18   O  A00 X   1      26.817  43.818  16.5680  0.00  0.00     0.000 OA
ENDBRANCH 5 16
BRANCH 1 19
ATOM     19  O4  A00 X   2      27.075  39.920  17.5810  0.00  0.00     0.000 O
BRANCH 19 23
ATOM     20  C1  A00 X   2      25.076  36.300  18.7070  0.00  0.00     0.000 C
ATOM     21  C2  A00 X   2      26.526  36.502  19.2100  0.00  0.00     0.000 C
ATOM     22  C3  A00 X   2      26.943  37.984  19.1040  0.00  0.00     0.000 C
ATOM     23  C4  A00 X   2      26.729  38.508  17.6670  0.00  0.00     0.000 C
ATOM     24  C5  A00 X   2      25.251  38.232  17.2760  0.00  0.00     0.000 C
ATOM     25  O5  A00 X   2      25.009  36.803  17.3450  0.00  0.00     0.000 O
ATOM     26   O  A00 X   2      28.267  38.130  19.6460  0.00  0.00     0.000 O
ATOM     28  HD  A00 X   2      28.587  37.478  19.1730  0.00  0.00     0.000 HD
BRANCH 21 30
ATOM     28   N  A00 X   2      26.733  35.057  19.0760  0.00  0.00     0.000 N
ATOM     30  HD  A00 X   2      27.379  35.358  19.5680  0.00  0.00     0.000 HD
ATOM     30   O  A00 X   2      28.254  34.385  20.7180  0.00  0.00     0.000 OA
ATOM     31   S  A00 X   2      28.185  34.474  19.3030  0.00  0.00     0.000 S
ATOM     32   O  A00 X   2      28.156  33.218  18.6190  0.00  0.00     0.000 OA
ATOM     33   O  A00 X   2      29.104  35.368  18.6630  0.00  0.00     0.000 OA
ENDBRANCH 21 30
BRANCH 24 34
ATOM     34   C  A00 X   2      24.714  38.866  15.9710  0.00  0.00     0.000 C
ATOM     35   O  A00 X   2      23.559  36.952  13.0970  0.00  0.00     0.000 OA
ATOM     36   O  A00 X   2      24.669  37.901  14.9010  0.00  0.00     0.000 O
ATOM     37   O  A00 X   2      22.703  36.695  15.2870  0.00  0.00     0.000 OA
ATOM     38   S  A00 X   2      23.237  37.607  14.3220  0.00  0.00     0.000 S
ATOM     39   O  A00 X   2      22.590  38.877  14.1800  0.00  0.00     0.000 OA
ENDBRANCH 24 34
BRANCH 20 40
ATOM     40  O4  A00 X   3      24.254  37.111  19.5580  0.00  0.00     0.000 O
BRANCH 40 44
ATOM     41  C1  A00 X   3      21.503  39.450  19.8560  0.00  0.00     0.000 C
ATOM     42  C2  A00 X   3      22.365  38.951  21.0350  0.00  0.00     0.000 C
ATOM     43  C3  A00 X   3      22.455  37.403  21.0420  0.00  0.00     0.000 C
ATOM     44  C4  A00 X   3      22.855  36.787  19.7070  0.00  0.00     0.000 C
ATOM     45  C5  A00 X   3      21.941  37.332  18.5740  0.00  0.00     0.000 C
ATOM     46  O5  A00 X   3      21.877  38.795  18.6120  0.00  0.00     0.000 O
ATOM     47   O  A00 X   3      23.158  36.824  22.1400  0.00  0.00     0.000 O
ATOM     49  HD  A00 X   3      23.446  36.286  21.5260  0.00  0.00     0.000 HD
BRANCH 42 49
ATOM     49   O  A00 X   3      23.669  39.555  20.8910  0.00  0.00     0.000 O
ATOM     50   O  A00 X   3      25.763  39.455  22.0490  0.00  0.00     0.000 OA
ATOM     51   O  A00 X   3      23.764  39.538  23.3100  0.00  0.00     0.000 OA
ATOM     52   O  A00 X   3      24.396  41.450  22.0720  0.00  0.00     0.000 OA
ATOM     53   S  A00 X   3      24.458  40.031  22.1460  0.00  0.00     0.000 S
ENDBRANCH 42 49
BRANCH 45 54
ATOM     54   C  A00 X   3      20.559  36.667  18.5900  0.00  0.00     0.000 C
ATOM     55   O  A00 X   3      19.777  36.845  17.6780  0.00  0.00     0.000 OA
ATOM     56   O  A00 X   3      20.221  35.950  19.5180  0.00  0.00     0.000 OA
ENDBRANCH 45 54
BRANCH 41 57
ATOM     57  O4  A00 X   4      20.091  39.375  20.1570  0.00  0.00     0.000 O
BRANCH 57 61
ATOM     58  C1  A00 X   4      16.713  41.818  19.0380  0.00  0.00     0.000 C
ATOM     59  C2  A00 X   4      17.509  41.098  17.9220  0.00  0.00     0.000 C
ATOM     60  C3  A00 X   4      18.444  39.991  18.4500  0.00  0.00     0.000 C
ATOM     61  C4  A00 X   4      19.291  40.477  19.6450  0.00  0.00     0.000 C
ATOM     62  C5  A00 X   4      18.287  40.957  20.7230  0.00  0.00     0.000 C
ATOM     63  O5  A00 X   4      17.529  42.079  20.2040  0.00  0.00     0.000 O
BRANCH 59 66
ATOM     64   N  A00 X   4      18.390  42.047  17.2170  0.00  0.00     0.000 N
ATOM     66  HD  A00 X   4      18.675  42.733  17.6610  0.00  0.00     0.000 HD
ATOM     66   O  A00 X   4      16.471  42.712  15.9230  0.00  0.00     0.000 OA
ATOM     67   S  A00 X   4      17.895  42.643  15.8180  0.00  0.00     0.000 S
ATOM     68   O  A00 X   4      18.575  43.905  15.8200  0.00  0.00     0.000 OA
ATOM     69   O  A00 X   4      18.454  41.675  14.9180  0.00  0.00     0.000 OA
ENDBRANCH 59 66
BRANCH 62 70
ATOM     70   C  A00 X   4      18.948  41.386  22.0550  0.00  0.00     0.000 C
ATOM     71   O  A00 X   4      21.010  44.285  22.7270  0.00  0.00     0.000 OA
ATOM     72   O  A00 X   4      21.344  42.011  23.2430  0.00  0.00     0.000 OA
ATOM     73   O  A00 X   4      19.463  42.720  21.9220  0.00  0.00     0.000 O
ATOM     74   O  A00 X   4      21.669  42.787  20.9560  0.00  0.00     0.000 OA
ATOM     75   S  A00 X   4      20.989  42.949  22.2010  0.00  0.00     0.000 S
ENDBRANCH 62 70
ENDBRANCH 57 61
ENDBRANCH 41 57
ENDBRANCH 40 44
ENDBRANCH 20 40
ENDBRANCH 19 23
ENDBRANCH 1 19
TORSDOF 14
ENDMDL
MODEL 41
REMARK VINA RESULT:      -0.2     18.220     23.606
ROOT
ATOM      1  C1  A00 X   1      28.778  18.080  14.4200  0.00  0.00     0.000 C
ATOM      2  C2  A00 X   1      27.636  18.375  13.4120  0.00  0.00     0.000 C
ATOM      3  C3  A00 X   1      28.076  18.915  12.0110  0.00  0.00     0.000 C
ATOM      4  C4  A00 X   1      29.535  19.434  11.9240  0.00  0.00     0.000 C
ATOM      5  C5  A00 X   1      30.090  19.828  13.2920  0.00  0.00     0.000 C
ATOM      6  O5  A00 X   1      30.081  18.604  14.0590  0.00  0.00     0.000 O
ATOM      7   O  A00 X   1      27.235  20.011  11.6590  0.00  0.00     0.000 O
ATOM      9  HD  A00 X   1      28.043  20.225  11.4300  0.00  0.00     0.000 HD
ATOM      9   O  A00 X   1      30.395  18.472  11.3130  0.00  0.00     0.000 O
ATOM     11  HD  A00 X   1      31.202  18.686  11.0840  0.00  0.00     0.000 HD
ENDROOT
BRANCH 2 11
ATOM     11   O  A00 X   1      26.887  17.157  13.2300  0.00  0.00     0.000 O
ATOM     12   O  A00 X   1      25.156  16.965  11.5760  0.00  0.00     0.000 OA
ATOM     13   O  A00 X   1      24.879  18.536  13.4120  0.00  0.00     0.000 OA
ATOM     14   O  A00 X   1      24.843  16.193  13.8160  0.00  0.00     0.000 OA
ATOM     15   S  A00 X   1      25.342  17.248  12.9770  0.00  0.00     0.000 S
ENDBRANCH 2 11
BRANCH 5 16
ATOM     16   C  A00 X   1      29.359  20.987  13.9780  0.00  0.00     0.000 C
ATOM     17   O  A00 X   1      29.604  21.219  15.1440  0.00  0.00     0.000 OA
ATOM     18   O  A00 X   1      28.552  21.684  13.3970  0.00  0.00     0.000 OA
ENDBRANCH 5 16
BRANCH 1 19
ATOM     19  O4  A00 X   2      28.428  18.427  15.7820  0.00  0.00     0.000 O
BRANCH 19 23
ATOM     20  C1  A00 X   2      30.358  14.995  17.4750  0.00  0.00     0.000 C
ATOM     21  C2  A00 X   2      28.828  14.916  17.2490  0.00  0.00     0.000 C
ATOM     22  C3  A00 X   2      28.361  16.008  16.2640  0.00  0.00     0.000 C
ATOM     23  C4  A00 X   2      28.827  17.403  16.7390  0.00  0.00     0.000 C
ATOM     24  C5  A00 X   2      30.365  17.346  16.9450  0.00  0.00     0.000 C
ATOM     25  O5  A00 X   2      30.665  16.336  17.9430  0.00  0.00     0.000 O
ATOM     26   O  A00 X   2      26.951  15.850  16.0350  0.00  0.00     0.000 O
ATOM     28  HD  A00 X   2      26.766  15.817  16.8810  0.00  0.00     0.000 HD
BRANCH 21 30
ATOM     28   N  A00 X   2      28.730  14.099  18.4620  0.00  0.00     0.000 N
ATOM     30  HD  A00 X   2      27.984  14.001  18.0330  0.00  0.00     0.000 HD
ATOM     30   O  A00 X   2      26.953  12.606  18.1910  0.00  0.00     0.000 OA
ATOM     31   S  A00 X   2      27.295  13.717  19.0060  0.00  0.00     0.000 S
ATOM     32   O  A00 X   2      27.526  13.409  20.3830  0.00  0.00     0.000 OA
ATOM     33   O  A00 X   2      26.474  14.885  18.8880  0.00  0.00     0.000 OA
ENDBRANCH 21 30
BRANCH 24 34
ATOM     34   C  A00 X   2      31.114  18.676  17.1980  0.00  0.00     0.000 C
ATOM     35   O  A00 X   2      32.908  19.455  20.2690  0.00  0.00     0.000 OA
ATOM     36   O  A00 X   2      31.417  18.846  18.5970  0.00  0.00     0.000 O
ATOM     37   O  A00 X   2      33.330  17.545  18.9400  0.00  0.00     0.000 OA
ATOM     38   S  A00 X   2      32.949  18.924  18.9460  0.00  0.00     0.000 S
ATOM     39   O  A00 X   2      33.544  19.782  17.9660  0.00  0.00     0.000 OA
ENDBRANCH 24 34
BRANCH 20 40
ATOM     40  O4  A00 X   3      30.951  14.789  16.1850  0.00  0.00     0.000 O
BRANCH 40 44
ATOM     41  C1  A00 X   3      33.452  15.796  13.7650  0.00  0.00     0.000 C
ATOM     42  C2  A00 X   3      32.412  14.677  13.5420  0.00  0.00     0.000 C
ATOM     43  C3  A00 X   3      32.415  13.674  14.7250  0.00  0.00     0.000 C
ATOM     44  C4  A00 X   3      32.313  14.318  16.1020  0.00  0.00     0.000 C
ATOM     45  C5  A00 X   3      33.392  15.427  16.2510  0.00  0.00     0.000 C
ATOM     46  O5  A00 X   3      33.360  16.344  15.1090  0.00  0.00     0.000 O
ATOM     47   O  A00 X   3      31.552  12.546  14.5870  0.00  0.00     0.000 O
ATOM     49  HD  A00 X   3      31.418  12.688  15.4300  0.00  0.00     0.000 HD
BRANCH 42 49
ATOM     49   O  A00 X   3      31.126  15.317  13.3960  0.00  0.00     0.000 O
ATOM     50   O  A00 X   3      28.862  14.605  13.0850  0.00  0.00     0.000 OA
ATOM     51   O  A00 X   3      30.578  13.505  11.8880  0.00  0.00     0.000 OA
ATOM     52   O  A00 X   3      30.081  15.749  11.3380  0.00  0.00     0.000 OA
ATOM     53   S  A00 X   3      30.089  14.772  12.3710  0.00  0.00     0.000 S
ENDBRANCH 42 49
BRANCH 45 54
ATOM     54   C  A00 X   3      34.782  14.836  16.5110  0.00  0.00     0.000 C
ATOM     55   O  A00 X   3      35.719  15.556  16.7930  0.00  0.00     0.000 OA
ATOM     56   O  A00 X   3      34.973  13.632  16.4390  0.00  0.00     0.000 OA
ENDBRANCH 45 54
BRANCH 41 57
ATOM     57  O4  A00 X   4      34.782  15.371  13.3940  0.00  0.00     0.000 O
BRANCH 57 61
ATOM     58  C1  A00 X   4      38.158  17.443  11.6760  0.00  0.00     0.000 C
ATOM     59  C2  A00 X   4      37.633  17.901  13.0590  0.00  0.00     0.000 C
ATOM     60  C3  A00 X   4      36.683  16.884  13.7240  0.00  0.00     0.000 C
ATOM     61  C4  A00 X   4      35.598  16.388  12.7450  0.00  0.00     0.000 C
ATOM     62  C5  A00 X   4      36.348  15.781  11.5340  0.00  0.00     0.000 C
ATOM     63  O5  A00 X   4      37.123  16.820  10.8820  0.00  0.00     0.000 O
BRANCH 59 66
ATOM     64   N  A00 X   4      36.845  19.145  13.0000  0.00  0.00     0.000 N
ATOM     66  HD  A00 X   4      36.405  19.306  12.2710  0.00  0.00     0.000 HD
ATOM     66   O  A00 X   4      38.931  20.345  12.9190  0.00  0.00     0.000 OA
ATOM     67   S  A00 X   4      37.578  20.524  13.3450  0.00  0.00     0.000 S
ATOM     68   O  A00 X   4      36.799  21.435  12.5590  0.00  0.00     0.000 OA
ATOM     69   O  A00 X   4      37.325  20.599  14.7560  0.00  0.00     0.000 OA
ENDBRANCH 59 66
BRANCH 62 70
ATOM     70   C  A00 X   4      35.423  15.124  10.4810  0.00  0.00     0.000 C
ATOM     71   O  A00 X   4      33.100  16.716   8.2060  0.00  0.00     0.000 OA
ATOM     72   O  A00 X   4      32.812  14.888   9.6620  0.00  0.00     0.000 OA
ATOM     73   O  A00 X   4      34.863  16.145   9.6390  0.00  0.00     0.000 O
ATOM     74   O  A00 X   4      32.880  17.149  10.5680  0.00  0.00     0.000 OA
ATOM     75   S  A00 X   4      33.301  16.244   9.5470  0.00  0.00     0.000 S
ENDBRANCH 62 70
ENDBRANCH 57 61
ENDBRANCH 41 57
ENDBRANCH 40 44
ENDBRANCH 20 40
ENDBRANCH 19 23
ENDBRANCH 1 19
TORSDOF 14
ENDMDL
MODEL 42
REMARK VINA RESULT:      -0.2     59.796     63.871
ROOT
ATOM      1  C1  A00 X   1      12.269  60.743  34.6980  0.00  0.00     0.000 C
ATOM      2  C2  A00 X   1      13.721  60.849  34.1600  0.00  0.00     0.000 C
ATOM      3  C3  A00 X   1      14.036  62.098  33.2720  0.00  0.00     0.000 C
ATOM      4  C4  A00 X   1      12.801  62.868  32.7400  0.00  0.00     0.000 C
ATOM      5  C5  A00 X   1      11.546  61.996  32.7090  0.00  0.00     0.000 C
ATOM      6  O5  A00 X   1      11.310  61.644  34.0910  0.00  0.00     0.000 O
ATOM      7   O  A00 X   1      14.772  61.672  32.1280  0.00  0.00     0.000 O
ATOM      9  HD  A00 X   1      14.196  62.259  31.8570  0.00  0.00     0.000 HD
ATOM      9   O  A00 X   1      12.550  64.046  33.5050  0.00  0.00     0.000 O
ATOM     11  HD  A00 X   1      11.974  64.633  33.2340  0.00  0.00     0.000 HD
ENDROOT
BRANCH 2 11
ATOM     11   O  A00 X   1      14.611  60.842  35.2930  0.00  0.00     0.000 O
ATOM     12   O  A00 X   1      16.967  61.241  35.0610  0.00  0.00     0.000 OA
ATOM     13   O  A00 X   1      15.985  59.273  34.0220  0.00  0.00     0.000 OA
ATOM     14   O  A00 X   1      16.124  59.443  36.3910  0.00  0.00     0.000 OA
ATOM     15   S  A00 X   1      16.016  60.162  35.1500  0.00  0.00     0.000 S
ENDBRANCH 2 11
BRANCH 5 16
ATOM     16   C  A00 X   1      11.620  60.786  31.7720  0.00  0.00     0.000 C
ATOM     17   O  A00 X   1      10.759  59.934  31.8540  0.00  0.00     0.000 OA
ATOM     18   O  A00 X   1      12.504  60.652  30.9490  0.00  0.00     0.000 OA
ENDBRANCH 5 16
BRANCH 1 19
ATOM     19  O4  A00 X   2      11.776  59.381  34.7180  0.00  0.00     0.000 O
BRANCH 19 23
ATOM     20  C1  A00 X   2       9.731  59.854  38.4550  0.00  0.00     0.000 C
ATOM     21  C2  A00 X   2      11.132  59.196  38.4850  0.00  0.00     0.000 C
ATOM     22  C3  A00 X   2      11.903  59.485  37.1800  0.00  0.00     0.000 C
ATOM     23  C4  A00 X   2      11.068  59.062  35.9500  0.00  0.00     0.000 C
ATOM     24  C5  A00 X   2       9.689  59.770  36.0470  0.00  0.00     0.000 C
ATOM     25  O5  A00 X   2       9.038  59.360  37.2780  0.00  0.00     0.000 O
ATOM     26   O  A00 X   2      13.218  58.914  37.2850  0.00  0.00     0.000 O
ATOM     28  HD  A00 X   2      12.917  58.142  37.5370  0.00  0.00     0.000 HD
BRANCH 21 30
ATOM     28   N  A00 X   2      10.665  58.363  39.5970  0.00  0.00     0.000 N
ATOM     30  HD  A00 X   2      11.529  58.299  39.5810  0.00  0.00     0.000 HD
ATOM     30   O  A00 X   2      12.493  57.898  40.9750  0.00  0.00     0.000 OA
ATOM     31   S  A00 X   2      11.601  57.201  40.1190  0.00  0.00     0.000 S
ATOM     32   O  A00 X   2      10.699  56.311  40.7820  0.00  0.00     0.000 OA
ATOM     33   O  A00 X   2      12.169  56.565  38.9670  0.00  0.00     0.000 OA
ENDBRANCH 21 30
BRANCH 24 34
ATOM     34   C  A00 X   2       8.748  59.696  34.8210  0.00  0.00     0.000 C
ATOM     35   O  A00 X   2       5.467  58.117  34.8580  0.00  0.00     0.000 OA
ATOM     36   O  A00 X   2       7.701  58.726  35.0230  0.00  0.00     0.000 O
ATOM     37   O  A00 X   2       6.122  59.839  36.3410  0.00  0.00     0.000 OA
ATOM     38   S  A00 X   2       6.239  59.305  35.0190  0.00  0.00     0.000 S
ATOM     39   O  A00 X   2       6.172  60.225  33.9240  0.00  0.00     0.000 OA
ENDBRANCH 24 34
BRANCH 20 40
ATOM     40  O4  A00 X   3       9.967  61.263  38.3160  0.00  0.00     0.000 O
BRANCH 40 44
ATOM     41  C1  A00 X   3       9.066  64.390  36.7250  0.00  0.00     0.000 C
ATOM     42  C2  A00 X   3      10.209  64.221  37.7490  0.00  0.00     0.000 C
ATOM     43  C3  A00 X   3       9.710  63.489  39.0220  0.00  0.00     0.000 C
ATOM     44  C4  A00 X   3       8.954  62.194  38.7520  0.00  0.00     0.000 C
ATOM     45  C5  A00 X   3       7.820  62.446  37.7190  0.00  0.00     0.000 C
ATOM     46  O5  A00 X   3       8.333  63.148  36.5400  0.00  0.00     0.000 O
ATOM     47   O  A00 X   3      10.662  63.353  40.0760  0.00  0.00     0.000 O
ATOM     49  HD  A00 X   3      10.295  62.573  40.1550  0.00  0.00     0.000 HD
BRANCH 42 49
ATOM     49   O  A00 X   3      11.260  63.480  37.0920  0.00  0.00     0.000 O
ATOM     50   O  A00 X   3      13.410  62.617  37.6950  0.00  0.00     0.000 OA
ATOM     51   O  A00 X   3      12.795  64.774  38.4440  0.00  0.00     0.000 OA
ATOM     52   O  A00 X   3      13.173  64.449  36.1340  0.00  0.00     0.000 OA
ATOM     53   S  A00 X   3      12.753  63.838  37.3480  0.00  0.00     0.000 S
ENDBRANCH 42 49
BRANCH 45 54
ATOM     54   C  A00 X   3       6.614  63.144  38.3590  0.00  0.00     0.000 C
ATOM     55   O  A00 X   3       6.662  63.533  39.5080  0.00  0.00     0.000 OA
ATOM     56   O  A00 X   3       5.584  63.320  37.7250  0.00  0.00     0.000 OA
ENDBRANCH 45 54
BRANCH 41 57
ATOM     57  O4  A00 X   4       8.229  65.525  37.0430  0.00  0.00     0.000 O
BRANCH 57 61
ATOM     58  C1  A00 X   4       6.072  68.361  34.6040  0.00  0.00     0.000 C
ATOM     59  C2  A00 X   4       5.685  66.863  34.5180  0.00  0.00     0.000 C
ATOM     60  C3  A00 X   4       6.256  66.013  35.6700  0.00  0.00     0.000 C
ATOM     61  C4  A00 X   4       7.759  66.287  35.8940  0.00  0.00     0.000 C
ATOM     62  C5  A00 X   4       7.889  67.806  36.1690  0.00  0.00     0.000 C
ATOM     63  O5  A00 X   4       7.452  68.542  34.9990  0.00  0.00     0.000 O
BRANCH 59 66
ATOM     64   N  A00 X   4       6.215  66.247  33.2880  0.00  0.00     0.000 N
ATOM     66  HD  A00 X   4       6.941  66.581  32.9540  0.00  0.00     0.000 HD
ATOM     66   O  A00 X   4       4.330  67.189  32.1230  0.00  0.00     0.000 OA
ATOM     67   S  A00 X   4       5.230  66.083  32.0380  0.00  0.00     0.000 S
ATOM     68   O  A00 X   4       6.172  66.135  30.9580  0.00  0.00     0.000 OA
ATOM     69   O  A00 X   4       4.707  64.772  32.3000  0.00  0.00     0.000 OA
ENDBRANCH 59 66
BRANCH 62 70
ATOM     70   C  A00 X   4       9.323  68.262  36.5300  0.00  0.00     0.000 C
ATOM     71   O  A00 X   4      12.241  68.449  34.3940  0.00  0.00     0.000 OA
ATOM     72   O  A00 X   4      11.961  67.497  36.5290  0.00  0.00     0.000 OA
ATOM     73   O  A00 X   4      10.091  68.411  35.3240  0.00  0.00     0.000 O
ATOM     74   O  A00 X   4      11.076  66.345  34.5720  0.00  0.00     0.000 OA
ATOM     75   S  A00 X   4      11.417  67.585  35.1920  0.00  0.00     0.000 S
ENDBRANCH 62 70
ENDBRANCH 57 61
ENDBRANCH 41 57
ENDBRANCH 40 44
ENDBRANCH 20 40
ENDBRANCH 19 23
ENDBRANCH 1 19
TORSDOF 14
ENDMDL
MODEL 43
REMARK VINA RESULT:      -0.2     60.767     64.066
ROOT
ATOM      1  C1  A00 X   1       7.465  67.556  23.8070  0.00  0.00     0.000 C
ATOM      2  C2  A00 X   1       7.270  66.569  24.9890  0.00  0.00     0.000 C
ATOM      3  C3  A00 X   1       5.794  66.338  25.4540  0.00  0.00     0.000 C
ATOM      4  C4  A00 X   1       4.762  67.375  24.9430  0.00  0.00     0.000 C
ATOM      5  C5  A00 X   1       5.419  68.699  24.5510  0.00  0.00     0.000 C
ATOM      6  O5  A00 X   1       6.308  68.359  23.4640  0.00  0.00     0.000 O
ATOM      7   O  A00 X   1       5.750  66.391  26.8780  0.00  0.00     0.000 O
ATOM      9  HD  A00 X   1       5.054  66.815  26.5850  0.00  0.00     0.000 HD
ATOM      9   O  A00 X   1       4.010  66.865  23.8420  0.00  0.00     0.000 O
ATOM     11  HD  A00 X   1       3.315  67.290  23.5490  0.00  0.00     0.000 HD
ENDROOT
BRANCH 2 11
ATOM     11   O  A00 X   1       7.844  65.305  24.6040  0.00  0.00     0.000 O
ATOM     12   O  A00 X   1       7.595  63.334  25.9530  0.00  0.00     0.000 OA
ATOM     13   O  A00 X   1       8.826  65.235  26.8390  0.00  0.00     0.000 OA
ATOM     14   O  A00 X   1       9.708  63.965  25.0310  0.00  0.00     0.000 OA
ATOM     15   S  A00 X   1       8.517  64.412  25.7020  0.00  0.00     0.000 S
ENDBRANCH 2 11
BRANCH 5 16
ATOM     16   C  A00 X   1       6.109  69.444  25.6980  0.00  0.00     0.000 C
ATOM     17   O  A00 X   1       6.803  70.404  25.4330  0.00  0.00     0.000 OA
ATOM     18   O  A00 X   1       5.981  69.114  26.8600  0.00  0.00     0.000 OA
ENDBRANCH 5 16
BRANCH 1 19
ATOM     19  O4  A00 X   2       8.652  68.373  23.9490  0.00  0.00     0.000 O
BRANCH 19 23
ATOM     20  C1  A00 X   2       9.656  68.182  19.7870  0.00  0.00     0.000 C
ATOM     21  C2  A00 X   2      10.381  67.203  20.7430  0.00  0.00     0.000 C
ATOM     22  C3  A00 X   2       9.627  67.086  22.0840  0.00  0.00     0.000 C
ATOM     23  C4  A00 X   2       9.408  68.482  22.7080  0.00  0.00     0.000 C
ATOM     24  C5  A00 X   2       8.694  69.368  21.6510  0.00  0.00     0.000 C
ATOM     25  O5  A00 X   2       9.535  69.457  20.4720  0.00  0.00     0.000 O
ATOM     26   O  A00 X   2      10.299  66.117  22.9070  0.00  0.00     0.000 O
ATOM     28  HD  A00 X   2      11.076  66.483  22.7920  0.00  0.00     0.000 HD
BRANCH 21 30
ATOM     28   N  A00 X   2      11.581  67.332  19.9100  0.00  0.00     0.000 N
ATOM     30  HD  A00 X   2      11.694  66.631  20.4070  0.00  0.00     0.000 HD
ATOM     30   O  A00 X   2      12.735  65.301  19.9790  0.00  0.00     0.000 OA
ATOM     31   S  A00 X   2      12.919  66.646  20.3980  0.00  0.00     0.000 S
ATOM     32   O  A00 X   2      13.941  67.361  19.6980  0.00  0.00     0.000 OA
ATOM     33   O  A00 X   2      13.025  66.878  21.8070  0.00  0.00     0.000 OA
ENDBRANCH 21 30
BRANCH 24 34
ATOM     34   C  A00 X   2       8.153  70.745  22.1040  0.00  0.00     0.000 C
ATOM     35   O  A00 X   2      10.213  73.368  23.5630  0.00  0.00     0.000 OA
ATOM     36   O  A00 X   2       9.100  71.426  22.9510  0.00  0.00     0.000 O
ATOM     37   O  A00 X   2      10.641  72.366  21.4630  0.00  0.00     0.000 OA
ATOM     38   S  A00 X   2       9.638  72.793  22.3910  0.00  0.00     0.000 S
ATOM     39   O  A00 X   2       8.503  73.491  21.8670  0.00  0.00     0.000 OA
ENDBRANCH 24 34
BRANCH 20 40
ATOM     40  O4  A00 X   3       8.351  67.624  19.5780  0.00  0.00     0.000 O
BRANCH 40 44
ATOM     41  C1  A00 X   3       4.781  68.208  19.3760  0.00  0.00     0.000 C
ATOM     42  C2  A00 X   3       5.456  66.826  19.2410  0.00  0.00     0.000 C
ATOM     43  C3  A00 X   3       6.604  66.868  18.2010  0.00  0.00     0.000 C
ATOM     44  C4  A00 X   3       7.601  68.002  18.4030  0.00  0.00     0.000 C
ATOM     45  C5  A00 X   3       6.848  69.357  18.5250  0.00  0.00     0.000 C
ATOM     46  O5  A00 X   3       5.768  69.268  19.5090  0.00  0.00     0.000 O
ATOM     47   O  A00 X   3       7.244  65.623  17.9290  0.00  0.00     0.000 O
ATOM     49  HD  A00 X   3       7.953  66.120  17.9090  0.00  0.00     0.000 HD
BRANCH 42 49
ATOM     49   O  A00 X   3       5.944  66.463  20.5520  0.00  0.00     0.000 O
ATOM     50   O  A00 X   3       7.180  64.645  21.4980  0.00  0.00     0.000 OA
ATOM     51   O  A00 X   3       5.497  64.174  19.9050  0.00  0.00     0.000 OA
ATOM     52   O  A00 X   3       4.846  64.998  22.0230  0.00  0.00     0.000 OA
ATOM     53   S  A00 X   3       5.871  64.986  21.0370  0.00  0.00     0.000 S
ENDBRANCH 42 49
BRANCH 45 54
ATOM     54   C  A00 X   3       6.379  69.870  17.1580  0.00  0.00     0.000 C
ATOM     55   O  A00 X   3       5.928  70.991  17.0400  0.00  0.00     0.000 OA
ATOM     56   O  A00 X   3       6.448  69.160  16.1660  0.00  0.00     0.000 OA
ENDBRANCH 45 54
BRANCH 41 57
ATOM     57  O4  A00 X   4       3.814  68.434  18.3270  0.00  0.00     0.000 O
BRANCH 57 61
ATOM     58  C1  A00 X   4       0.055  70.555  18.2020  0.00  0.00     0.000 C
ATOM     59  C2  A00 X   4       1.344  71.350  18.5260  0.00  0.00     0.000 C
ATOM     60  C3  A00 X   4       2.640  70.583  18.1930  0.00  0.00     0.000 C
ATOM     61  C4  A00 X   4       2.608  69.139  18.7390  0.00  0.00     0.000 C
ATOM     62  C5  A00 X   4       1.357  68.467  18.1220  0.00  0.00     0.000 C
ATOM     63  O5  A00 X   4       0.168  69.163  18.5770  0.00  0.00     0.000 O
BRANCH 59 66
ATOM     64   N  A00 X   4       1.419  71.636  19.9700  0.00  0.00     0.000 N
ATOM     66  HD  A00 X   4       1.027  71.083  20.5090  0.00  0.00     0.000 HD
ATOM     66   O  A00 X   4      -0.056  73.498  19.5760  0.00  0.00     0.000 OA
ATOM     67   S  A00 X   4       0.972  73.085  20.4790  0.00  0.00     0.000 S
ATOM     68   O  A00 X   4       0.535  72.769  21.8080  0.00  0.00     0.000 OA
ATOM     69   O  A00 X   4       2.230  73.773  20.4210  0.00  0.00     0.000 OA
ENDBRANCH 59 66
BRANCH 62 70
ATOM     70   C  A00 X   4       1.210  66.966  18.4680  0.00  0.00     0.000 C
ATOM     71   O  A00 X   4       0.419  65.446  21.6570  0.00  0.00     0.000 OA
ATOM     72   O  A00 X   4       2.131  64.968  20.1120  0.00  0.00     0.000 OA
ATOM     73   O  A00 X   4       0.649  66.834  19.7840  0.00  0.00     0.000 O
ATOM     74   O  A00 X   4       2.306  66.943  21.5300  0.00  0.00     0.000 OA
ATOM     75   S  A00 X   4       1.460  66.017  20.8480  0.00  0.00     0.000 S
ENDBRANCH 62 70
ENDBRANCH 57 61
ENDBRANCH 41 57
ENDBRANCH 40 44
ENDBRANCH 20 40
ENDBRANCH 19 23
ENDBRANCH 1 19
TORSDOF 14
ENDMDL
MODEL 44
REMARK VINA RESULT:      -0.2     41.071     45.813
ROOT
ATOM      1  C1  A00 X   1       7.496  47.637  20.4400  0.00  0.00     0.000 C
ATOM      2  C2  A00 X   1       7.832  46.122  20.4300  0.00  0.00     0.000 C
ATOM      3  C3  A00 X   1       7.062  45.254  19.3810  0.00  0.00     0.000 C
ATOM      4  C4  A00 X   1       5.816  45.923  18.7460  0.00  0.00     0.000 C
ATOM      5  C5  A00 X   1       5.255  47.045  19.6190  0.00  0.00     0.000 C
ATOM      6  O5  A00 X   1       6.318  48.022  19.6890  0.00  0.00     0.000 O
ATOM      7   O  A00 X   1       6.602  44.066  20.0210  0.00  0.00     0.000 O
ATOM      9  HD  A00 X   1       5.963  44.342  19.5060  0.00  0.00     0.000 HD
ATOM      9   O  A00 X   1       6.102  46.424  17.4400  0.00  0.00     0.000 O
ATOM     11  HD  A00 X   1       5.463  46.701  16.9250  0.00  0.00     0.000 HD
ENDROOT
BRANCH 2 11
ATOM     11   O  A00 X   1       9.249  45.989  20.2000  0.00  0.00     0.000 O
ATOM     12   O  A00 X   1      10.277  43.854  19.8130  0.00  0.00     0.000 OA
ATOM     13   O  A00 X   1       9.228  44.298  21.9630  0.00  0.00     0.000 OA
ATOM     14   O  A00 X   1      11.216  45.442  21.3320  0.00  0.00     0.000 OA
ATOM     15   S  A00 X   1      10.017  44.798  20.8700  0.00  0.00     0.000 S
ENDBRANCH 2 11
BRANCH 5 16
ATOM     16   C  A00 X   1       4.739  46.602  20.9910  0.00  0.00     0.000 C
ATOM     17   O  A00 X   1       4.475  47.453  21.8160  0.00  0.00     0.000 OA
ATOM     18   O  A00 X   1       4.577  45.433  21.2800  0.00  0.00     0.000 OA
ENDBRANCH 5 16
BRANCH 1 19
ATOM     19  O4  A00 X   2       7.478  48.200  21.7750  0.00  0.00     0.000 O
BRANCH 19 23
ATOM     20  C1  A00 X   2       9.366  51.860  20.5890  0.00  0.00     0.000 C
ATOM     21  C2  A00 X   2      10.263  50.763  21.2130  0.00  0.00     0.000 C
ATOM     22  C3  A00 X   2       9.555  49.392  21.1820  0.00  0.00     0.000 C
ATOM     23  C4  A00 X   2       8.165  49.482  21.8500  0.00  0.00     0.000 C
ATOM     24  C5  A00 X   2       7.376  50.623  21.1510  0.00  0.00     0.000 C
ATOM     25  O5  A00 X   2       8.108  51.866  21.3150  0.00  0.00     0.000 O
ATOM     26   O  A00 X   2      10.452  48.398  21.7070  0.00  0.00     0.000 O
ATOM     28  HD  A00 X   2      10.630  48.861  22.4170  0.00  0.00     0.000 HD
BRANCH 21 30
ATOM     28   N  A00 X   2      11.067  51.823  21.8290  0.00  0.00     0.000 N
ATOM     30  HD  A00 X   2      11.535  51.096  21.8730  0.00  0.00     0.000 HD
ATOM     30   O  A00 X   2      13.273  51.071  21.9760  0.00  0.00     0.000 OA
ATOM     31   S  A00 X   2      12.206  51.418  22.8460  0.00  0.00     0.000 S
ATOM     32   O  A00 X   2      12.415  52.607  23.6130  0.00  0.00     0.000 OA
ATOM     33   O  A00 X   2      11.681  50.375  23.6770  0.00  0.00     0.000 OA
ENDBRANCH 21 30
BRANCH 24 34
ATOM     34   C  A00 X   2       5.871  50.770  21.4770  0.00  0.00     0.000 C
ATOM     35   O  A00 X   2       4.421  53.648  23.1720  0.00  0.00     0.000 OA
ATOM     36   O  A00 X   2       5.645  51.815  22.4440  0.00  0.00     0.000 O
ATOM     37   O  A00 X   2       5.707  53.790  21.1920  0.00  0.00     0.000 OA
ATOM     38   S  A00 X   2       4.764  53.016  21.9400  0.00  0.00     0.000 S
ATOM     39   O  A00 X   2       3.664  52.440  21.2270  0.00  0.00     0.000 OA
ENDBRANCH 24 34
BRANCH 20 40
ATOM     40  O4  A00 X   3       9.136  51.448  19.2340  0.00  0.00     0.000 O
BRANCH 40 44
ATOM     41  C1  A00 X   3       6.762  51.026  16.5300  0.00  0.00     0.000 C
ATOM     42  C2  A00 X   3       8.256  50.641  16.4580  0.00  0.00     0.000 C
ATOM     43  C3  A00 X   3       9.155  51.819  16.9140  0.00  0.00     0.000 C
ATOM     44  C4  A00 X   3       8.762  52.436  18.2500  0.00  0.00     0.000 C
ATOM     45  C5  A00 X   3       7.250  52.800  18.2430  0.00  0.00     0.000 C
ATOM     46  O5  A00 X   3       6.441  51.664  17.7970  0.00  0.00     0.000 O
ATOM     47   O  A00 X   3      10.562  51.607  16.8070  0.00  0.00     0.000 O
ATOM     49  HD  A00 X   3      10.570  52.035  17.5590  0.00  0.00     0.000 HD
BRANCH 42 49
ATOM     49   O  A00 X   3       8.436  49.483  17.3020  0.00  0.00     0.000 O
ATOM     50   O  A00 X   3      10.272  48.112  17.9950  0.00  0.00     0.000 OA
ATOM     51   O  A00 X   3      10.160  48.816  15.7400  0.00  0.00     0.000 OA
ATOM     52   O  A00 X   3       8.550  47.271  16.5200  0.00  0.00     0.000 OA
ATOM     53   S  A00 X   3       9.410  48.345  16.8780  0.00  0.00     0.000 S
ENDBRANCH 42 49
BRANCH 45 54
ATOM     54   C  A00 X   3       6.979  54.083  17.4480  0.00  0.00     0.000 C
ATOM     55   O  A00 X   3       5.880  54.599  17.4610  0.00  0.00     0.000 OA
ATOM     56   O  A00 X   3       7.862  54.608  16.7880  0.00  0.00     0.000 OA
ENDBRANCH 45 54
BRANCH 41 57
ATOM     57  O4  A00 X   4       6.350  51.783  15.3700  0.00  0.00     0.000 O
BRANCH 57 61
ATOM     58  C1  A00 X   4       2.643  51.992  13.1670  0.00  0.00     0.000 C
ATOM     59  C2  A00 X   4       2.641  52.402  14.6610  0.00  0.00     0.000 C
ATOM     60  C3  A00 X   4       4.053  52.632  15.2370  0.00  0.00     0.000 C
ATOM     61  C4  A00 X   4       5.014  51.478  14.8770  0.00  0.00     0.000 C
ATOM     62  C5  A00 X   4       5.022  51.385  13.3310  0.00  0.00     0.000 C
ATOM     63  O5  A00 X   4       3.691  51.043  12.8660  0.00  0.00     0.000 O
BRANCH 59 66
ATOM     64   N  A00 X   4       2.052  51.326  15.4780  0.00  0.00     0.000 N
ATOM     66  HD  A00 X   4       2.118  50.515  15.1800  0.00  0.00     0.000 HD
ATOM     66   O  A00 X   4      -0.113  52.192  14.8790  0.00  0.00     0.000 OA
ATOM     67   S  A00 X   4       0.526  51.470  15.9340  0.00  0.00     0.000 S
ATOM     68   O  A00 X   4       0.158  50.089  16.0470  0.00  0.00     0.000 OA
ATOM     69   O  A00 X   4       0.699  52.137  17.1930  0.00  0.00     0.000 OA
ENDBRANCH 59 66
BRANCH 62 70
ATOM     70   C  A00 X   4       6.021  50.347  12.7660  0.00  0.00     0.000 C
ATOM     71   O  A00 X   4       5.886  46.734  12.9690  0.00  0.00     0.000 OA
ATOM     72   O  A00 X   4       7.641  48.233  13.4370  0.00  0.00     0.000 OA
ATOM     73   O  A00 X   4       5.447  49.033  12.8620  0.00  0.00     0.000 O
ATOM     74   O  A00 X   4       5.797  48.008  15.0140  0.00  0.00     0.000 OA
ATOM     75   S  A00 X   4       6.242  47.942  13.6600  0.00  0.00     0.000 S
ENDBRANCH 62 70
ENDBRANCH 57 61
ENDBRANCH 41 57
ENDBRANCH 40 44
ENDBRANCH 20 40
ENDBRANCH 19 23
ENDBRANCH 1 19
TORSDOF 14
ENDMDL
MODEL 45
REMARK VINA RESULT:      -0.2     61.178     66.550
ROOT
ATOM      1  C1  A00 X   1      27.413  40.827  60.9720  0.00  0.00     0.000 C
ATOM      2  C2  A00 X   1      26.016  40.389  60.4550  0.00  0.00     0.000 C
ATOM      3  C3  A00 X   1      25.930  40.019  58.9380  0.00  0.00     0.000 C
ATOM      4  C4  A00 X   1      27.129  40.478  58.0680  0.00  0.00     0.000 C
ATOM      5  C5  A00 X   1      27.888  41.644  58.7010  0.00  0.00     0.000 C
ATOM      6  O5  A00 X   1      28.396  41.118  59.9480  0.00  0.00     0.000 O
ATOM      7   O  A00 X   1      24.769  40.633  58.3830  0.00  0.00     0.000 O
ATOM      9  HD  A00 X   1      25.406  40.721  57.8030  0.00  0.00     0.000 HD
ATOM      9   O  A00 X   1      28.028  39.400  57.8100  0.00  0.00     0.000 O
ATOM     11  HD  A00 X   1      28.666  39.488  57.2300  0.00  0.00     0.000 HD
ENDROOT
BRANCH 2 11
ATOM     11   O  A00 X   1      25.594  39.257  61.2390  0.00  0.00     0.000 O
ATOM     12   O  A00 X   1      23.616  38.005  60.7010  0.00  0.00     0.000 OA
ATOM     13   O  A00 X   1      23.406  40.338  61.3580  0.00  0.00     0.000 OA
ATOM     14   O  A00 X   1      24.092  38.698  62.9380  0.00  0.00     0.000 OA
ATOM     15   S  A00 X   1      24.068  39.077  61.5510  0.00  0.00     0.000 S
ENDBRANCH 2 11
BRANCH 5 16
ATOM     16   C  A00 X   1      27.076  42.933  58.8660  0.00  0.00     0.000 C
ATOM     17   O  A00 X   1      27.534  43.825  59.5490  0.00  0.00     0.000 OA
ATOM     18   O  A00 X   1      25.996  43.095  58.3330  0.00  0.00     0.000 OA
ENDBRANCH 5 16
BRANCH 1 19
ATOM     19  O4  A00 X   2      27.340  41.892  61.9520  0.00  0.00     0.000 O
BRANCH 19 23
ATOM     20  C1  A00 X   2      30.474  40.280  64.3910  0.00  0.00     0.000 C
ATOM     21  C2  A00 X   2      29.015  39.971  64.8050  0.00  0.00     0.000 C
ATOM     22  C3  A00 X   2      28.044  40.231  63.6350  0.00  0.00     0.000 C
ATOM     23  C4  A00 X   2      28.222  41.665  63.0890  0.00  0.00     0.000 C
ATOM     24  C5  A00 X   2      29.721  41.854  62.7290  0.00  0.00     0.000 C
ATOM     25  O5  A00 X   2      30.517  41.655  63.9260  0.00  0.00     0.000 O
ATOM     26   O  A00 X   2      26.716  39.865  64.0470  0.00  0.00     0.000 O
ATOM     28  HD  A00 X   2      26.762  40.325  64.7790  0.00  0.00     0.000 HD
BRANCH 21 30
ATOM     28   N  A00 X   2      29.440  40.028  66.2070  0.00  0.00     0.000 N
ATOM     30  HD  A00 X   2      28.666  39.639  66.1960  0.00  0.00     0.000 HD
ATOM     30   O  A00 X   2      28.120  38.536  67.4290  0.00  0.00     0.000 OA
ATOM     31   S  A00 X   2      28.339  39.936  67.3380  0.00  0.00     0.000 S
ATOM     32   O  A00 X   2      28.974  40.523  68.4780  0.00  0.00     0.000 OA
ATOM     33   O  A00 X   2      27.231  40.741  66.9170  0.00  0.00     0.000 OA
ENDBRANCH 21 30
BRANCH 24 34
ATOM     34   C  A00 X   2      30.125  43.126  61.9470  0.00  0.00     0.000 C
ATOM     35   O  A00 X   2      29.513  46.520  63.1160  0.00  0.00     0.000 OA
ATOM     36   O  A00 X   2      29.454  44.293  62.4650  0.00  0.00     0.000 O
ATOM     37   O  A00 X   2      30.700  44.890  64.3520  0.00  0.00     0.000 OA
ATOM     38   S  A00 X   2      30.399  45.404  63.0510  0.00  0.00     0.000 S
ATOM     39   O  A00 X   2      31.484  45.543  62.1260  0.00  0.00     0.000 OA
ENDBRANCH 24 34
BRANCH 20 40
ATOM     40  O4  A00 X   3      30.762  39.395  63.2990  0.00  0.00     0.000 O
BRANCH 40 44
ATOM     41  C1  A00 X   3      32.209  38.982  60.0030  0.00  0.00     0.000 C
ATOM     42  C2  A00 X   3      31.496  37.866  60.7980  0.00  0.00     0.000 C
ATOM     43  C3  A00 X   3      32.067  37.756  62.2350  0.00  0.00     0.000 C
ATOM     44  C4  A00 X   3      32.136  39.077  62.9910  0.00  0.00     0.000 C
ATOM     45  C5  A00 X   3      32.870  40.144  62.1320  0.00  0.00     0.000 C
ATOM     46  O5  A00 X   3      32.306  40.207  60.7820  0.00  0.00     0.000 O
ATOM     47   O  A00 X   3      31.542  36.698  63.0340  0.00  0.00     0.000 O
ATOM     49  HD  A00 X   3      31.587  37.298  63.6570  0.00  0.00     0.000 HD
BRANCH 42 49
ATOM     49   O  A00 X   3      30.088  38.190  60.8120  0.00  0.00     0.000 O
ATOM     50   O  A00 X   3      28.108  37.268  61.7910  0.00  0.00     0.000 OA
ATOM     51   O  A00 X   3      29.705  35.801  60.8500  0.00  0.00     0.000 OA
ATOM     52   O  A00 X   3      28.483  37.214  59.4030  0.00  0.00     0.000 OA
ATOM     53   S  A00 X   3      29.021  37.062  60.7110  0.00  0.00     0.000 S
ENDBRANCH 42 49
BRANCH 45 54
ATOM     54   C  A00 X   3      34.389  39.935  62.1420  0.00  0.00     0.000 C
ATOM     55   O  A00 X   3      35.132  40.772  61.6720  0.00  0.00     0.000 OA
ATOM     56   O  A00 X   3      34.878  38.924  62.6210  0.00  0.00     0.000 OA
ENDBRANCH 45 54
BRANCH 41 57
ATOM     57  O4  A00 X   4      33.470  38.529  59.4610  0.00  0.00     0.000 O
BRANCH 57 61
ATOM     58  C1  A00 X   4      35.610  39.456  55.8280  0.00  0.00     0.000 C
ATOM     59  C2  A00 X   4      35.341  40.597  56.8410  0.00  0.00     0.000 C
ATOM     60  C3  A00 X   4      34.903  40.093  58.2320  0.00  0.00     0.000 C
ATOM     61  C4  A00 X   4      33.787  39.031  58.1320  0.00  0.00     0.000 C
ATOM     62  C5  A00 X   4      34.349  37.890  57.2480  0.00  0.00     0.000 C
ATOM     63  O5  A00 X   4      34.621  38.405  55.9200  0.00  0.00     0.000 O
BRANCH 59 66
ATOM     64   N  A00 X   4      34.258  41.515  56.4430  0.00  0.00     0.000 N
ATOM     66  HD  A00 X   4      33.614  41.190  55.9640  0.00  0.00     0.000 HD
ATOM     66   O  A00 X   4      35.841  42.584  54.9770  0.00  0.00     0.000 OA
ATOM     67   S  A00 X   4      34.655  42.883  55.7170  0.00  0.00     0.000 S
ATOM     68   O  A00 X   4      33.478  43.110  54.9300  0.00  0.00     0.000 OA
ATOM     69   O  A00 X   4      34.777  43.748  56.8560  0.00  0.00     0.000 OA
ENDBRANCH 59 66
BRANCH 62 70
ATOM     70   C  A00 X   4      33.408  36.669  57.1190  0.00  0.00     0.000 C
ATOM     71   O  A00 X   4      30.237  36.431  55.3880  0.00  0.00     0.000 OA
ATOM     72   O  A00 X   4      30.847  35.784  57.5680  0.00  0.00     0.000 OA
ATOM     73   O  A00 X   4      32.392  36.954  56.1430  0.00  0.00     0.000 O
ATOM     74   O  A00 X   4      30.510  38.144  57.0630  0.00  0.00     0.000 OA
ATOM     75   S  A00 X   4      30.893  36.852  56.5940  0.00  0.00     0.000 S
ENDBRANCH 62 70
ENDBRANCH 57 61
ENDBRANCH 41 57
ENDBRANCH 40 44
ENDBRANCH 20 40
ENDBRANCH 19 23
ENDBRANCH 1 19
TORSDOF 14
ENDMDL
MODEL 46
REMARK VINA RESULT:      -0.2     57.802     61.817
ROOT
ATOM      1  C1  A00 X   1      44.870  21.360  58.9840  0.00  0.00     0.000 C
ATOM      2  C2  A00 X   1      43.837  21.450  60.1390  0.00  0.00     0.000 C
ATOM      3  C3  A00 X   1      43.171  22.848  60.3570  0.00  0.00     0.000 C
ATOM      4  C4  A00 X   1      43.874  24.040  59.6590  0.00  0.00     0.000 C
ATOM      5  C5  A00 X   1      45.343  23.745  59.3520  0.00  0.00     0.000 C
ATOM      6  O5  A00 X   1      45.309  22.627  58.4360  0.00  0.00     0.000 O
ATOM      7   O  A00 X   1      43.168  23.141  61.7520  0.00  0.00     0.000 O
ATOM      9  HD  A00 X   1      43.379  23.872  61.3390  0.00  0.00     0.000 HD
ATOM      9   O  A00 X   1      43.198  24.416  58.4590  0.00  0.00     0.000 O
ATOM     11  HD  A00 X   1      43.408  25.147  58.0460  0.00  0.00     0.000 HD
ENDROOT
BRANCH 2 11
ATOM     11   O  A00 X   1      42.807  20.475  59.8820  0.00  0.00     0.000 O
ATOM     12   O  A00 X   1      40.811  20.356  61.2120  0.00  0.00     0.000 OA
ATOM     13   O  A00 X   1      42.963  19.901  62.2520  0.00  0.00     0.000 OA
ATOM     14   O  A00 X   1      42.060  18.398  60.6450  0.00  0.00     0.000 OA
ATOM     15   S  A00 X   1      42.119  19.762  61.0970  0.00  0.00     0.000 S
ENDBRANCH 2 11
BRANCH 5 16
ATOM     16   C  A00 X   1      46.225  23.503  60.5820  0.00  0.00     0.000 C
ATOM     17   O  A00 X   1      47.341  23.055  60.4170  0.00  0.00     0.000 OA
ATOM     18   O  A00 X   1      45.851  23.751  61.7110  0.00  0.00     0.000 OA
ENDBRANCH 5 16
BRANCH 1 19
ATOM     19  O4  A00 X   2      45.995  20.505  59.3040  0.00  0.00     0.000 O
BRANCH 19 23
ATOM     20  C1  A00 X   2      46.226  18.818  55.3720  0.00  0.00     0.000 C
ATOM     21  C2  A00 X   2      45.475  18.006  56.4540  0.00  0.00     0.000 C
ATOM     22  C3  A00 X   2      45.103  18.903  57.6540  0.00  0.00     0.000 C
ATOM     23  C4  A00 X   2      46.356  19.621  58.2040  0.00  0.00     0.000 C
ATOM     24  C5  A00 X   2      47.025  20.378  57.0250  0.00  0.00     0.000 C
ATOM     25  O5  A00 X   2      47.390  19.418  56.0000  0.00  0.00     0.000 O
ATOM     26   O  A00 X   2      44.350  18.122  58.5970  0.00  0.00     0.000 O
ATOM     28  HD  A00 X   2      44.930  17.479  58.6050  0.00  0.00     0.000 HD
BRANCH 21 30
ATOM     28   N  A00 X   2      45.969  16.778  55.8240  0.00  0.00     0.000 N
ATOM     30  HD  A00 X   2      45.322  16.547  56.3500  0.00  0.00     0.000 HD
ATOM     30   O  A00 X   2      44.366  15.106  56.1310  0.00  0.00     0.000 OA
ATOM     31   S  A00 X   2      45.695  15.395  56.5390  0.00  0.00     0.000 S
ATOM     32   O  A00 X   2      46.695  14.529  55.9950  0.00  0.00     0.000 OA
ATOM     33   O  A00 X   2      45.917  15.592  57.9400  0.00  0.00     0.000 OA
ENDBRANCH 21 30
BRANCH 24 34
ATOM     34   C  A00 X   2      48.170  21.366  57.3520  0.00  0.00     0.000 C
ATOM     35   O  A00 X   2      51.232  20.436  59.0890  0.00  0.00     0.000 OA
ATOM     36   O  A00 X   2      49.070  20.815  58.3350  0.00  0.00     0.000 O
ATOM     37   O  A00 X   2      50.464  19.389  57.1120  0.00  0.00     0.000 OA
ATOM     38   S  A00 X   2      50.552  20.613  57.8480  0.00  0.00     0.000 S
ATOM     39   O  A00 X   2      50.906  21.798  57.1260  0.00  0.00     0.000 OA
ENDBRANCH 24 34
BRANCH 20 40
ATOM     40  O4  A00 X   3      45.318  19.850  54.9600  0.00  0.00     0.000 O
BRANCH 40 44
ATOM     41  C1  A00 X   3      44.829  23.345  54.1440  0.00  0.00     0.000 C
ATOM     42  C2  A00 X   3      43.711  22.280  54.1580  0.00  0.00     0.000 C
ATOM     43  C3  A00 X   3      44.119  21.037  53.3260  0.00  0.00     0.000 C
ATOM     44  C4  A00 X   3      45.490  20.468  53.6670  0.00  0.00     0.000 C
ATOM     45  C5  A00 X   3      46.559  21.596  53.6280  0.00  0.00     0.000 C
ATOM     46  O5  A00 X   3      46.129  22.752  54.4170  0.00  0.00     0.000 O
ATOM     47   O  A00 X   3      43.126  20.022  53.1960  0.00  0.00     0.000 O
ATOM     49  HD  A00 X   3      43.810  19.499  53.2840  0.00  0.00     0.000 HD
BRANCH 42 49
ATOM     49   O  A00 X   3      43.473  21.935  55.5400  0.00  0.00     0.000 O
ATOM     50   O  A00 X   3      42.065  20.404  56.7250  0.00  0.00     0.000 OA
ATOM     51   O  A00 X   3      41.169  21.588  54.8860  0.00  0.00     0.000 OA
ATOM     52   O  A00 X   3      41.718  22.794  56.8430  0.00  0.00     0.000 OA
ATOM     53   S  A00 X   3      42.026  21.659  56.0430  0.00  0.00     0.000 S
ENDBRANCH 42 49
BRANCH 45 54
ATOM     54   C  A00 X   3      46.949  21.959  52.1900  0.00  0.00     0.000 C
ATOM     55   O  A00 X   3      47.874  22.714  51.9710  0.00  0.00     0.000 OA
ATOM     56   O  A00 X   3      46.335  21.497  51.2400  0.00  0.00     0.000 OA
ENDBRANCH 45 54
BRANCH 41 57
ATOM     57  O4  A00 X   4      44.790  24.145  52.9420  0.00  0.00     0.000 O
BRANCH 57 61
ATOM     58  C1  A00 X   4      45.728  28.281  52.1300  0.00  0.00     0.000 C
ATOM     59  C2  A00 X   4      46.855  27.353  52.6490  0.00  0.00     0.000 C
ATOM     60  C3  A00 X   4      46.507  25.853  52.5580  0.00  0.00     0.000 C
ATOM     61  C4  A00 X   4      45.102  25.555  53.1260  0.00  0.00     0.000 C
ATOM     62  C5  A00 X   4      44.112  26.434  52.3220  0.00  0.00     0.000 C
ATOM     63  O5  A00 X   4      44.420  27.833  52.5520  0.00  0.00     0.000 O
BRANCH 59 66
ATOM     64   N  A00 X   4      47.100  27.619  54.0780  0.00  0.00     0.000 N
ATOM     66  HD  A00 X   4      46.439  27.923  54.5470  0.00  0.00     0.000 HD
ATOM     66   O  A00 X   4      48.475  29.474  53.3940  0.00  0.00     0.000 OA
ATOM     67   S  A00 X   4      48.342  28.546  54.4730  0.00  0.00     0.000 S
ATOM     68   O  A00 X   4      47.868  29.100  55.7080  0.00  0.00     0.000 OA
ATOM     69   O  A00 X   4      49.363  27.549  54.6300  0.00  0.00     0.000 OA
ENDBRANCH 59 66
BRANCH 62 70
ATOM     70   C  A00 X   4      42.625  26.194  52.6740  0.00  0.00     0.000 C
ATOM     71   O  A00 X   4      40.860  27.024  55.7250  0.00  0.00     0.000 OA
ATOM     72   O  A00 X   4      40.938  25.017  54.4950  0.00  0.00     0.000 OA
ATOM     73   O  A00 X   4      42.302  26.901  53.8830  0.00  0.00     0.000 O
ATOM     74   O  A00 X   4      42.841  25.658  55.8750  0.00  0.00     0.000 OA
ATOM     75   S  A00 X   4      41.728  26.075  55.0850  0.00  0.00     0.000 S
ENDBRANCH 62 70
ENDBRANCH 57 61
ENDBRANCH 41 57
ENDBRANCH 40 44
ENDBRANCH 20 40
ENDBRANCH 19 23
ENDBRANCH 1 19
TORSDOF 14
ENDMDL
MODEL 47
REMARK VINA RESULT:      -0.2     28.395     34.456
ROOT
ATOM      1  C1  A00 X   1      41.231  22.312  16.2640  0.00  0.00     0.000 C
ATOM      2  C2  A00 X   1      42.569  21.584  16.5620  0.00  0.00     0.000 C
ATOM      3  C3  A00 X   1      43.838  22.492  16.6610  0.00  0.00     0.000 C
ATOM      4  C4  A00 X   1      43.679  23.928  16.0970  0.00  0.00     0.000 C
ATOM      5  C5  A00 X   1      42.539  24.026  15.0830  0.00  0.00     0.000 C
ATOM      6  O5  A00 X   1      41.351  23.690  15.8330  0.00  0.00     0.000 O
ATOM      7   O  A00 X   1      44.896  21.883  15.9240  0.00  0.00     0.000 O
ATOM      9  HD  A00 X   1      44.925  22.732  15.7570  0.00  0.00     0.000 HD
ATOM      9   O  A00 X   1      43.478  24.879  17.1410  0.00  0.00     0.000 O
ATOM     11  HD  A00 X   1      43.507  25.729  16.9750  0.00  0.00     0.000 HD
ENDROOT
BRANCH 2 11
ATOM     11   O  A00 X   1      42.410  20.862  17.7990  0.00  0.00     0.000 O
ATOM     12   O  A00 X   1      44.106  19.379  18.6310  0.00  0.00     0.000 OA
ATOM     13   O  A00 X   1      42.990  18.854  16.5340  0.00  0.00     0.000 OA
ATOM     14   O  A00 X   1      41.800  18.752  18.5910  0.00  0.00     0.000 OA
ATOM     15   S  A00 X   1      42.881  19.369  17.8710  0.00  0.00     0.000 S
ENDBRANCH 2 11
BRANCH 5 16
ATOM     16   C  A00 X   1      42.724  23.183  13.8170  0.00  0.00     0.000 C
ATOM     17   O  A00 X   1      41.787  23.066  13.0540  0.00  0.00     0.000 OA
ATOM     18   O  A00 X   1      43.774  22.635  13.5460  0.00  0.00     0.000 OA
ENDBRANCH 5 16
BRANCH 1 19
ATOM     19  O4  A00 X   2      40.364  21.555  15.3840  0.00  0.00     0.000 O
BRANCH 19 23
ATOM     20  C1  A00 X   2      36.772  22.782  17.3730  0.00  0.00     0.000 C
ATOM     21  C2  A00 X   2      37.349  21.392  17.7330  0.00  0.00     0.000 C
ATOM     22  C3  A00 X   2      38.822  21.277  17.2890  0.00  0.00     0.000 C
ATOM     23  C4  A00 X   2      38.966  21.616  15.7880  0.00  0.00     0.000 C
ATOM     24  C5  A00 X   2      38.338  23.017  15.5560  0.00  0.00     0.000 C
ATOM     25  O5  A00 X   2      36.939  22.971  15.9420  0.00  0.00     0.000 O
ATOM     26   O  A00 X   2      39.331  19.998  17.7060  0.00  0.00     0.000 O
ATOM     28  HD  A00 X   2      38.663  19.565  17.3650  0.00  0.00     0.000 HD
BRANCH 21 30
ATOM     28   N  A00 X   2      35.975  20.908  17.8990  0.00  0.00     0.000 N
ATOM     30  HD  A00 X   2      36.493  20.324  18.2740  0.00  0.00     0.000 HD
ATOM     30   O  A00 X   2      35.981  19.255  19.5500  0.00  0.00     0.000 OA
ATOM     31   S  A00 X   2      35.739  19.366  18.1550  0.00  0.00     0.000 S
ATOM     32   O  A00 X   2      34.380  19.161  17.7590  0.00  0.00     0.000 OA
ATOM     33   O  A00 X   2      36.625  18.652  17.2840  0.00  0.00     0.000 OA
ENDBRANCH 21 30
BRANCH 24 34
ATOM     34   C  A00 X   2      38.555  23.691  14.1810  0.00  0.00     0.000 C
ATOM     35   O  A00 X   2      35.866  24.567  11.8890  0.00  0.00     0.000 OA
ATOM     36   O  A00 X   2      37.376  23.593  13.3580  0.00  0.00     0.000 O
ATOM     37   O  A00 X   2      35.984  25.307  14.1320  0.00  0.00     0.000 OA
ATOM     38   S  A00 X   2      36.724  24.967  12.9550  0.00  0.00     0.000 S
ATOM     39   O  A00 X   2      37.801  25.830  12.5760  0.00  0.00     0.000 OA
ENDBRANCH 24 34
BRANCH 20 40
ATOM     40  O4  A00 X   3      37.581  23.733  18.0800  0.00  0.00     0.000 O
BRANCH 40 44
ATOM     41  C1  A00 X   3      39.357  26.890  18.0530  0.00  0.00     0.000 C
ATOM     42  C2  A00 X   3      39.307  25.919  19.2520  0.00  0.00     0.000 C
ATOM     43  C3  A00 X   3      37.846  25.519  19.5830  0.00  0.00     0.000 C
ATOM     44  C4  A00 X   3      37.036  25.034  18.3870  0.00  0.00     0.000 C
ATOM     45  C5  A00 X   3      37.132  26.065  17.2260  0.00  0.00     0.000 C
ATOM     46  O5  A00 X   3      38.526  26.420  16.9560  0.00  0.00     0.000 O
ATOM     47   O  A00 X   3      37.671  24.691  20.7300  0.00  0.00     0.000 O
ATOM     49  HD  A00 X   3      37.075  24.314  20.2280  0.00  0.00     0.000 HD
BRANCH 42 49
ATOM     49   O  A00 X   3      40.102  24.766  18.8970  0.00  0.00     0.000 O
ATOM     50   O  A00 X   3      40.676  22.677  19.9150  0.00  0.00     0.000 OA
ATOM     51   O  A00 X   3      40.660  24.630  21.2480  0.00  0.00     0.000 OA
ATOM     52   O  A00 X   3      42.321  24.417  19.5800  0.00  0.00     0.000 OA
ATOM     53   S  A00 X   3      40.997  24.069  19.9630  0.00  0.00     0.000 S
ENDBRANCH 42 49
BRANCH 45 54
ATOM     54   C  A00 X   3      36.236  27.284  17.4750  0.00  0.00     0.000 C
ATOM     55   O  A00 X   3      36.052  28.106  16.6000  0.00  0.00     0.000 OA
ATOM     56   O  A00 X   3      35.692  27.451  18.5560  0.00  0.00     0.000 OA
ENDBRANCH 45 54
BRANCH 41 57
ATOM     57  O4  A00 X   4      39.083  28.251  18.4560  0.00  0.00     0.000 O
BRANCH 57 61
ATOM     58  C1  A00 X   4      40.519  32.075  17.0600  0.00  0.00     0.000 C
ATOM     59  C2  A00 X   4      39.742  31.169  16.0720  0.00  0.00     0.000 C
ATOM     60  C3  A00 X   4      38.980  30.020  16.7620  0.00  0.00     0.000 C
ATOM     61  C4  A00 X   4      39.870  29.268  17.7750  0.00  0.00     0.000 C
ATOM     62  C5  A00 X   4      40.369  30.329  18.7880  0.00  0.00     0.000 C
ATOM     63  O5  A00 X   4      41.180  31.309  18.0920  0.00  0.00     0.000 O
BRANCH 59 66
ATOM     64   N  A00 X   4      40.669  30.513  15.1330  0.00  0.00     0.000 N
ATOM     66  HD  A00 X   4      41.478  30.367  15.4060  0.00  0.00     0.000 HD
ATOM     66   O  A00 X   4      40.648  32.549  13.8470  0.00  0.00     0.000 OA
ATOM     67   S  A00 X   4      40.839  31.143  13.6720  0.00  0.00     0.000 S
ATOM     68   O  A00 X   4      42.180  30.736  13.3700  0.00  0.00     0.000 OA
ATOM     69   O  A00 X   4      39.828  30.413  12.9620  0.00  0.00     0.000 OA
ENDBRANCH 59 66
BRANCH 62 70
ATOM     70   C  A00 X   4      41.197  29.745  19.9570  0.00  0.00     0.000 C
ATOM     71   O  A00 X   4      44.513  28.295  19.8780  0.00  0.00     0.000 OA
ATOM     72   O  A00 X   4      42.515  27.504  20.8410  0.00  0.00     0.000 OA
ATOM     73   O  A00 X   4      42.543  29.510  19.5150  0.00  0.00     0.000 O
ATOM     74   O  A00 X   4      42.819  27.379  18.4260  0.00  0.00     0.000 OA
ATOM     75   S  A00 X   4      43.116  28.056  19.6470  0.00  0.00     0.000 S
ENDBRANCH 62 70
ENDBRANCH 57 61
ENDBRANCH 41 57
ENDBRANCH 40 44
ENDBRANCH 20 40
ENDBRANCH 19 23
ENDBRANCH 1 19
TORSDOF 14
ENDMDL
MODEL 48
REMARK VINA RESULT:      -0.2     40.414     45.287
ROOT
ATOM      1  C1  A00 X   1       4.348  43.133  29.4750  0.00  0.00     0.000 C
ATOM      2  C2  A00 X   1       2.905  43.565  29.8500  0.00  0.00     0.000 C
ATOM      3  C3  A00 X   1       2.567  43.581  31.3770  0.00  0.00     0.000 C
ATOM      4  C4  A00 X   1       3.566  42.825  32.2910  0.00  0.00     0.000 C
ATOM      5  C5  A00 X   1       4.367  41.773  31.5240  0.00  0.00     0.000 C
ATOM      6  O5  A00 X   1       5.116  42.525  30.5430  0.00  0.00     0.000 O
ATOM      7   O  A00 X   1       1.296  42.964  31.5700  0.00  0.00     0.000 O
ATOM      9  HD  A00 X   1       1.814  42.686  32.2060  0.00  0.00     0.000 HD
ATOM      9   O  A00 X   1       4.457  43.727  32.9470  0.00  0.00     0.000 O
ATOM     11  HD  A00 X   1       4.975  43.449  33.5830  0.00  0.00     0.000 HD
ENDROOT
BRANCH 2 11
ATOM     11   O  A00 X   1       2.687  44.882  29.3080  0.00  0.00     0.000 O
ATOM     12   O  A00 X   1       0.721  46.160  29.8270  0.00  0.00     0.000 OA
ATOM     13   O  A00 X   1       0.494  44.071  28.6020  0.00  0.00     0.000 OA
ATOM     14   O  A00 X   1       1.530  45.956  27.5870  0.00  0.00     0.000 OA
ATOM     15   S  A00 X   1       1.249  45.274  28.8210  0.00  0.00     0.000 S
ENDBRANCH 2 11
BRANCH 5 16
ATOM     16   C  A00 X   1       3.535  40.637  30.9210  0.00  0.00     0.000 C
ATOM     17   O  A00 X   1       4.064  39.888  30.1260  0.00  0.00     0.000 OA
ATOM     18   O  A00 X   1       2.370  40.456  31.2150  0.00  0.00     0.000 OA
ENDBRANCH 5 16
BRANCH 1 19
ATOM     19  O4  A00 X   2       4.399  42.336  28.2670  0.00  0.00     0.000 O
BRANCH 19 23
ATOM     20  C1  A00 X   2       7.987  44.187  26.8290  0.00  0.00     0.000 C
ATOM     21  C2  A00 X   2       6.640  44.708  26.2700  0.00  0.00     0.000 C
ATOM     22  C3  A00 X   2       5.466  44.272  27.1710  0.00  0.00     0.000 C
ATOM     23  C4  A00 X   2       5.478  42.740  27.3760  0.00  0.00     0.000 C
ATOM     24  C5  A00 X   2       6.879  42.345  27.9180  0.00  0.00     0.000 C
ATOM     25  O5  A00 X   2       7.884  42.744  26.9500  0.00  0.00     0.000 O
ATOM     26   O  A00 X   2       4.250  44.836  26.6490  0.00  0.00     0.000 O
ATOM     28  HD  A00 X   2       4.405  44.554  25.8450  0.00  0.00     0.000 HD
BRANCH 21 30
ATOM     28   N  A00 X   2       7.306  44.939  24.9840  0.00  0.00     0.000 N
ATOM     30  HD  A00 X   2       6.561  45.379  24.9630  0.00  0.00     0.000 HD
ATOM     30   O  A00 X   2       6.292  46.778  23.9610  0.00  0.00     0.000 OA
ATOM     31   S  A00 X   2       6.430  45.382  23.7450  0.00  0.00     0.000 S
ATOM     32   O  A00 X   2       7.231  45.020  22.6170  0.00  0.00     0.000 OA
ATOM     33   O  A00 X   2       5.230  44.599  23.7740  0.00  0.00     0.000 OA
ENDBRANCH 21 30
BRANCH 24 34
ATOM     34   C  A00 X   2       7.080  40.897  28.4250  0.00  0.00     0.000 C
ATOM     35   O  A00 X   2       6.532  37.928  26.3900  0.00  0.00     0.000 OA
ATOM     36   O  A00 X   2       6.459  39.943  27.5400  0.00  0.00     0.000 O
ATOM     37   O  A00 X   2       7.992  39.690  25.7910  0.00  0.00     0.000 OA
ATOM     38   S  A00 X   2       7.442  38.918  26.8640  0.00  0.00     0.000 S
ATOM     39   O  A00 X   2       8.337  38.478  27.8910  0.00  0.00     0.000 OA
ENDBRANCH 24 34
BRANCH 20 40
ATOM     40  O4  A00 X   3       8.116  44.770  28.1340  0.00  0.00     0.000 O
BRANCH 40 44
ATOM     41  C1  A00 X   3       8.978  44.312  31.6230  0.00  0.00     0.000 C
ATOM     42  C2  A00 X   3       8.466  45.633  31.0090  0.00  0.00     0.000 C
ATOM     43  C3  A00 X   3       9.285  46.014  29.7480  0.00  0.00     0.000 C
ATOM     44  C4  A00 X   3       9.428  44.895  28.7240  0.00  0.00     0.000 C
ATOM     45  C5  A00 X   3       9.952  43.605  29.4150  0.00  0.00     0.000 C
ATOM     46  O5  A00 X   3       9.157  43.289  30.6040  0.00  0.00     0.000 O
ATOM     47   O  A00 X   3       8.955  47.264  29.1460  0.00  0.00     0.000 O
ATOM     49  HD  A00 X   3       9.083  46.817  28.4150  0.00  0.00     0.000 HD
BRANCH 42 49
ATOM     49   O  A00 X   3       7.070  45.439  30.6930  0.00  0.00     0.000 O
ATOM     50   O  A00 X   3       5.327  46.729  29.6780  0.00  0.00     0.000 OA
ATOM     51   O  A00 X   3       6.797  47.790  31.1960  0.00  0.00     0.000 OA
ATOM     52   O  A00 X   3       5.287  46.175  32.0310  0.00  0.00     0.000 OA
ATOM     53   S  A00 X   3       6.048  46.593  30.9050  0.00  0.00     0.000 S
ENDBRANCH 42 49
BRANCH 45 54
ATOM     54   C  A00 X   3      11.456  43.684  29.6990  0.00  0.00     0.000 C
ATOM     55   O  A00 X   3      12.065  44.720  29.5250  0.00  0.00     0.000 OA
ATOM     56   O  A00 X   3      12.069  42.707  30.1030  0.00  0.00     0.000 OA
ENDBRANCH 45 54
BRANCH 41 57
ATOM     57  O4  A00 X   4      10.143  44.525  32.4510  0.00  0.00     0.000 O
BRANCH 57 61
ATOM     58  C1  A00 X   4      11.591  42.604  36.0360  0.00  0.00     0.000 C
ATOM     59  C2  A00 X   4      11.450  41.757  34.7470  0.00  0.00     0.000 C
ATOM     60  C3  A00 X   4      11.278  42.606  33.4700  0.00  0.00     0.000 C
ATOM     61  C4  A00 X   4      10.207  43.703  33.6510  0.00  0.00     0.000 C
ATOM     62  C5  A00 X   4      10.658  44.556  34.8620  0.00  0.00     0.000 C
ATOM     63  O5  A00 X   4      10.677  43.725  36.0510  0.00  0.00     0.000 O
BRANCH 59 66
ATOM     64   N  A00 X   4      10.243  40.915  34.8270  0.00  0.00     0.000 N
ATOM     66  HD  A00 X   4       9.587  41.201  35.3140  0.00  0.00     0.000 HD
ATOM     66   O  A00 X   4      11.540  39.355  36.1250  0.00  0.00     0.000 OA
ATOM     67   S  A00 X   4      10.418  39.379  35.2400  0.00  0.00     0.000 S
ATOM     68   O  A00 X   4       9.145  39.130  35.8520  0.00  0.00     0.000 OA
ATOM     69   O  A00 X   4      10.574  38.784  33.9430  0.00  0.00     0.000 OA
ENDBRANCH 59 66
BRANCH 62 70
ATOM     70   C  A00 X   4       9.761  45.787  35.1370  0.00  0.00     0.000 C
ATOM     71   O  A00 X   4       6.354  45.873  36.3610  0.00  0.00     0.000 OA
ATOM     72   O  A00 X   4       7.353  46.958  34.5250  0.00  0.00     0.000 OA
ATOM     73   O  A00 X   4       8.583  45.367  35.8450  0.00  0.00     0.000 O
ATOM     74   O  A00 X   4       6.836  44.581  34.3830  0.00  0.00     0.000 OA
ATOM     75   S  A00 X   4       7.188  45.693  35.2060  0.00  0.00     0.000 S
ENDBRANCH 62 70
ENDBRANCH 57 61
ENDBRANCH 41 57
ENDBRANCH 40 44
ENDBRANCH 20 40
ENDBRANCH 19 23
ENDBRANCH 1 19
TORSDOF 14
ENDMDL
MODEL 49
REMARK VINA RESULT:      -0.2     60.262     64.906
ROOT
ATOM      1  C1  A00 X   1      14.104  69.473  29.9490  0.00  0.00     0.000 C
ATOM      2  C2  A00 X   1      13.002  70.565  29.9100  0.00  0.00     0.000 C
ATOM      3  C3  A00 X   1      12.593  71.077  28.4890  0.00  0.00     0.000 C
ATOM      4  C4  A00 X   1      13.570  70.716  27.3410  0.00  0.00     0.000 C
ATOM      5  C5  A00 X   1      14.979  70.419  27.8550  0.00  0.00     0.000 C
ATOM      6  O5  A00 X   1      14.822  69.263  28.7080  0.00  0.00     0.000 O
ATOM      7   O  A00 X   1      12.514  72.500  28.5220  0.00  0.00     0.000 O
ATOM      9  HD  A00 X   1      12.896  72.283  27.7750  0.00  0.00     0.000 HD
ATOM      9   O  A00 X   1      13.091  69.609  26.5770  0.00  0.00     0.000 O
ATOM     11  HD  A00 X   1      13.473  69.392  25.8310  0.00  0.00     0.000 HD
ENDROOT
BRANCH 2 11
ATOM     11   O  A00 X   1      11.836  70.036  30.5720  0.00  0.00     0.000 O
ATOM     12   O  A00 X   1       9.738  71.203  30.5740  0.00  0.00     0.000 OA
ATOM     13   O  A00 X   1      11.659  72.206  31.6790  0.00  0.00     0.000 OA
ATOM     14   O  A00 X   1      10.644  70.246  32.5680  0.00  0.00     0.000 OA
ATOM     15   S  A00 X   1      10.916  71.012  31.3820  0.00  0.00     0.000 S
ENDBRANCH 2 11
BRANCH 5 16
ATOM     16   C  A00 X   1      15.681  71.596  28.5400  0.00  0.00     0.000 C
ATOM     17   O  A00 X   1      16.703  71.383  29.1580  0.00  0.00     0.000 OA
ATOM     18   O  A00 X   1      15.255  72.732  28.4800  0.00  0.00     0.000 OA
ENDBRANCH 5 16
BRANCH 1 19
ATOM     19  O4  A00 X   2      15.013  69.634  31.0650  0.00  0.00     0.000 O
BRANCH 19 23
ATOM     20  C1  A00 X   2      15.278  65.429  31.8520  0.00  0.00     0.000 C
ATOM     21  C2  A00 X   2      14.295  66.257  32.7150  0.00  0.00     0.000 C
ATOM     22  C3  A00 X   2      13.991  67.616  32.0510  0.00  0.00     0.000 C
ATOM     23  C4  A00 X   2      15.301  68.374  31.7380  0.00  0.00     0.000 C
ATOM     24  C5  A00 X   2      16.201  67.436  30.8890  0.00  0.00     0.000 C
ATOM     25  O5  A00 X   2      16.472  66.231  31.6520  0.00  0.00     0.000 O
ATOM     26   O  A00 X   2      13.025  68.316  32.8530  0.00  0.00     0.000 O
ATOM     28  HD  A00 X   2      13.473  68.198  33.5850  0.00  0.00     0.000 HD
BRANCH 21 30
ATOM     28   N  A00 X   2      14.608  65.379  33.8470  0.00  0.00     0.000 N
ATOM     30  HD  A00 X   2      13.885  65.808  34.0550  0.00  0.00     0.000 HD
ATOM     30   O  A00 X   2      12.703  65.215  35.1890  0.00  0.00     0.000 OA
ATOM     31   S  A00 X   2      14.021  65.737  35.2700  0.00  0.00     0.000 S
ATOM     32   O  A00 X   2      14.888  65.051  36.1770  0.00  0.00     0.000 OA
ATOM     33   O  A00 X   2      14.149  67.155  35.4360  0.00  0.00     0.000 OA
ENDBRANCH 21 30
BRANCH 24 34
ATOM     34   C  A00 X   2      17.475  68.036  30.2490  0.00  0.00     0.000 C
ATOM     35   O  A00 X   2      20.145  69.639  32.1350  0.00  0.00     0.000 OA
ATOM     36   O  A00 X   2      18.166  68.900  31.1720  0.00  0.00     0.000 O
ATOM     37   O  A00 X   2      19.376  67.440  32.5410  0.00  0.00     0.000 OA
ATOM     38   S  A00 X   2      19.623  68.446  31.5540  0.00  0.00     0.000 S
ATOM     39   O  A00 X   2      20.252  68.038  30.3340  0.00  0.00     0.000 OA
ENDBRANCH 24 34
BRANCH 20 40
ATOM     40  O4  A00 X   3      14.616  65.232  30.5940  0.00  0.00     0.000 O
BRANCH 40 44
ATOM     41  C1  A00 X   3      14.859  65.237  26.9790  0.00  0.00     0.000 C
ATOM     42  C2  A00 X   3      13.566  64.952  27.7740  0.00  0.00     0.000 C
ATOM     43  C3  A00 X   3      13.809  63.870  28.8580  0.00  0.00     0.000 C
ATOM     44  C4  A00 X   3      15.015  64.128  29.7520  0.00  0.00     0.000 C
ATOM     45  C5  A00 X   3      16.274  64.401  28.8820  0.00  0.00     0.000 C
ATOM     46  O5  A00 X   3      15.997  65.420  27.8670  0.00  0.00     0.000 O
ATOM     47   O  A00 X   3      12.660  63.462  29.5990  0.00  0.00     0.000 O
ATOM     49  HD  A00 X   3      13.225  63.455  30.2550  0.00  0.00     0.000 HD
BRANCH 42 49
ATOM     49   O  A00 X   3      13.146  66.203  28.3610  0.00  0.00     0.000 O
ATOM     50   O  A00 X   3      11.382  66.932  29.8060  0.00  0.00     0.000 OA
ATOM     51   O  A00 X   3      10.885  65.382  28.0910  0.00  0.00     0.000 OA
ATOM     52   O  A00 X   3      11.468  67.589  27.4800  0.00  0.00     0.000 OA
ATOM     53   S  A00 X   3      11.633  66.561  28.4490  0.00  0.00     0.000 S
ENDBRANCH 42 49
BRANCH 45 54
ATOM     54   C  A00 X   3      16.850  63.107  28.2960  0.00  0.00     0.000 C
ATOM     55   O  A00 X   3      16.239  62.061  28.3850  0.00  0.00     0.000 OA
ATOM     56   O  A00 X   3      17.933  63.104  27.7310  0.00  0.00     0.000 OA
ENDBRANCH 45 54
BRANCH 41 57
ATOM     57  O4  A00 X   4      15.076  64.255  25.9420  0.00  0.00     0.000 O
BRANCH 57 61
ATOM     58  C1  A00 X   4      16.834  64.476  22.0050  0.00  0.00     0.000 C
ATOM     59  C2  A00 X   4      17.719  64.810  23.2320  0.00  0.00     0.000 C
ATOM     60  C3  A00 X   4      17.107  64.355  24.5730  0.00  0.00     0.000 C
ATOM     61  C4  A00 X   4      15.628  64.778  24.7000  0.00  0.00     0.000 C
ATOM     62  C5  A00 X   4      14.892  64.161  23.4850  0.00  0.00     0.000 C
ATOM     63  O5  A00 X   4      15.434  64.726  22.2630  0.00  0.00     0.000 O
BRANCH 59 66
ATOM     64   N  A00 X   4      17.883  66.270  23.3440  0.00  0.00     0.000 N
ATOM     66  HD  A00 X   4      17.251  66.769  23.0240  0.00  0.00     0.000 HD
ATOM     66   O  A00 X   4      19.634  66.099  21.7000  0.00  0.00     0.000 OA
ATOM     67   S  A00 X   4      19.236  66.925  22.7970  0.00  0.00     0.000 S
ATOM     68   O  A00 X   4      18.767  68.233  22.4460  0.00  0.00     0.000 OA
ATOM     69   O  A00 X   4      20.036  66.887  23.9880  0.00  0.00     0.000 OA
ENDBRANCH 59 66
BRANCH 62 70
ATOM     70   C  A00 X   4      13.361  64.384  23.4930  0.00  0.00     0.000 C
ATOM     71   O  A00 X   4      11.522  67.464  23.0070  0.00  0.00     0.000 OA
ATOM     72   O  A00 X   4      11.333  65.811  24.6740  0.00  0.00     0.000 OA
ATOM     73   O  A00 X   4      13.071  65.708  23.0140  0.00  0.00     0.000 O
ATOM     74   O  A00 X   4      13.195  67.383  24.7420  0.00  0.00     0.000 OA
ATOM     75   S  A00 X   4      12.251  66.663  23.9490  0.00  0.00     0.000 S
ENDBRANCH 62 70
ENDBRANCH 57 61
ENDBRANCH 41 57
ENDBRANCH 40 44
ENDBRANCH 20 40
ENDBRANCH 19 23
ENDBRANCH 1 19
TORSDOF 14
ENDMDL
MODEL 50
REMARK VINA RESULT:      -0.2     40.899     44.614
ROOT
ATOM      1  C1  A00 X   1      37.982  20.418  42.7890  0.00  0.00     0.000 C
ATOM      2  C2  A00 X   1      37.619  19.389  43.8920  0.00  0.00     0.000 C
ATOM      3  C3  A00 X   1      36.279  19.646  44.6570  0.00  0.00     0.000 C
ATOM      4  C4  A00 X   1      35.673  21.062  44.4870  0.00  0.00     0.000 C
ATOM      5  C5  A00 X   1      36.723  22.094  44.0760  0.00  0.00     0.000 C
ATOM      6  O5  A00 X   1      37.200  21.639  42.7900  0.00  0.00     0.000 O
ATOM      7   O  A00 X   1      36.508  19.468  46.0530  0.00  0.00     0.000 O
ATOM      9  HD  A00 X   1      35.999  20.163  45.9640  0.00  0.00     0.000 HD
ATOM      9   O  A00 X   1      34.601  21.062  43.5440  0.00  0.00     0.000 O
ATOM     11  HD  A00 X   1      34.093  21.757  43.4550  0.00  0.00     0.000 HD
ENDROOT
BRANCH 2 11
ATOM     11   O  A00 X   1      37.566  18.087  43.2770  0.00  0.00     0.000 O
ATOM     12   O  A00 X   1      37.163  16.094  44.5540  0.00  0.00     0.000 OA
ATOM     13   O  A00 X   1      39.184  17.383  44.9660  0.00  0.00     0.000 OA
ATOM     14   O  A00 X   1      38.902  16.206  42.9180  0.00  0.00     0.000 OA
ATOM     15   S  A00 X   1      38.242  16.876  44.0070  0.00  0.00     0.000 S
ENDBRANCH 2 11
BRANCH 5 16
ATOM     16   C  A00 X   1      37.841  22.324  45.0980  0.00  0.00     0.000 C
ATOM     17   O  A00 X   1      38.810  22.974  44.7630  0.00  0.00     0.000 OA
ATOM     18   O  A00 X   1      37.789  21.886  46.2300  0.00  0.00     0.000 OA
ENDBRANCH 5 16
BRANCH 1 19
ATOM     19  O4  A00 X   2      39.402  20.701  42.7310  0.00  0.00     0.000 O
BRANCH 19 23
ATOM     20  C1  A00 X   2      39.474  21.012  38.4570  0.00  0.00     0.000 C
ATOM     21  C2  A00 X   2      39.915  19.666  39.0830  0.00  0.00     0.000 C
ATOM     22  C3  A00 X   2      39.433  19.557  40.5450  0.00  0.00     0.000 C
ATOM     23  C4  A00 X   2      39.900  20.781  41.3640  0.00  0.00     0.000 C
ATOM     24  C5  A00 X   2      39.415  22.059  40.6260  0.00  0.00     0.000 C
ATOM     25  O5  A00 X   2      39.993  22.078  39.2960  0.00  0.00     0.000 O
ATOM     26   O  A00 X   2      39.806  18.266  41.0580  0.00  0.00     0.000 O
ATOM     28  HD  A00 X   2      40.628  18.345  40.8000  0.00  0.00     0.000 HD
BRANCH 21 30
ATOM     28   N  A00 X   2      40.890  19.523  37.9980  0.00  0.00     0.000 N
ATOM     30  HD  A00 X   2      40.810  18.744  38.3680  0.00  0.00     0.000 HD
ATOM     30   O  A00 X   2      41.145  17.245  37.5460  0.00  0.00     0.000 OA
ATOM     31   S  A00 X   2      41.917  18.323  38.0550  0.00  0.00     0.000 S
ATOM     32   O  A00 X   2      42.987  18.752  37.2080  0.00  0.00     0.000 OA
ATOM     33   O  A00 X   2      42.368  18.215  39.4100  0.00  0.00     0.000 OA
ENDBRANCH 21 30
BRANCH 24 34
ATOM     34   C  A00 X   2      39.553  23.416  41.3570  0.00  0.00     0.000 C
ATOM     35   O  A00 X   2      41.643  26.158  40.1900  0.00  0.00     0.000 OA
ATOM     36   O  A00 X   2      40.693  24.155  40.8750  0.00  0.00     0.000 O
ATOM     37   O  A00 X   2      39.948  25.143  38.8900  0.00  0.00     0.000 OA
ATOM     38   S  A00 X   2      40.360  25.537  40.2030  0.00  0.00     0.000 S
ATOM     39   O  A00 X   2      39.387  26.171  41.0410  0.00  0.00     0.000 OA
ENDBRANCH 24 34
BRANCH 20 40
ATOM     40  O4  A00 X   3      38.040  21.014  38.5110  0.00  0.00     0.000 O
BRANCH 40 44
ATOM     41  C1  A00 X   3      34.997  22.849  39.2130  0.00  0.00     0.000 C
ATOM     42  C2  A00 X   3      35.051  21.369  38.7760  0.00  0.00     0.000 C
ATOM     43  C3  A00 X   3      35.925  21.197  37.5060  0.00  0.00     0.000 C
ATOM     44  C4  A00 X   3      37.300  21.845  37.5920  0.00  0.00     0.000 C
ATOM     45  C5  A00 X   3      37.163  23.330  38.0310  0.00  0.00     0.000 C
ATOM     46  O5  A00 X   3      36.323  23.446  39.2250  0.00  0.00     0.000 O
ATOM     47   O  A00 X   3      35.977  19.880  36.9600  0.00  0.00     0.000 O
ATOM     49  HD  A00 X   3      36.807  20.089  36.8290  0.00  0.00     0.000 HD
BRANCH 42 49
ATOM     49   O  A00 X   3      35.584  20.618  39.8890  0.00  0.00     0.000 O
ATOM     50   O  A00 X   3      36.168  18.337  40.3190  0.00  0.00     0.000 OA
ATOM     51   O  A00 X   3      34.182  18.800  39.1230  0.00  0.00     0.000 OA
ATOM     52   O  A00 X   3      34.284  19.389  41.4100  0.00  0.00     0.000 OA
ATOM     53   S  A00 X   3      35.033  19.200  40.2160  0.00  0.00     0.000 S
ENDBRANCH 42 49
BRANCH 45 54
ATOM     54   C  A00 X   3      36.695  24.223  36.8750  0.00  0.00     0.000 C
ATOM     55   O  A00 X   3      36.665  25.430  36.9990  0.00  0.00     0.000 OA
ATOM     56   O  A00 X   3      36.342  23.736  35.8120  0.00  0.00     0.000 OA
ENDBRANCH 45 54
BRANCH 41 57
ATOM     57  O4  A00 X   4      34.023  23.596  38.4490  0.00  0.00     0.000 O
BRANCH 57 61
ATOM     58  C1  A00 X   4      31.419  26.895  39.4340  0.00  0.00     0.000 C
ATOM     59  C2  A00 X   4      32.951  27.106  39.5280  0.00  0.00     0.000 C
ATOM     60  C3  A00 X   4      33.768  26.006  38.8210  0.00  0.00     0.000 C
ATOM     61  C4  A00 X   4      33.278  24.593  39.2050  0.00  0.00     0.000 C
ATOM     62  C5  A00 X   4      31.776  24.535  38.8310  0.00  0.00     0.000 C
ATOM     63  O5  A00 X   4      31.050  25.510  39.6230  0.00  0.00     0.000 O
BRANCH 59 66
ATOM     64   N  A00 X   4      33.393  27.076  40.9330  0.00  0.00     0.000 N
ATOM     66  HD  A00 X   4      32.925  26.607  41.4900  0.00  0.00     0.000 HD
ATOM     66   O  A00 X   4      32.701  29.377  41.0960  0.00  0.00     0.000 OA
ATOM     67   S  A00 X   4      33.638  28.469  41.6800  0.00  0.00     0.000 S
ATOM     68   O  A00 X   4      33.364  28.088  43.0350  0.00  0.00     0.000 OA
ATOM     69   O  A00 X   4      35.030  28.668  41.3950  0.00  0.00     0.000 OA
ENDBRANCH 59 66
BRANCH 62 70
ATOM     70   C  A00 X   4      31.125  23.148  39.0420  0.00  0.00     0.000 C
ATOM     71   O  A00 X   4      30.377  21.450  42.1510  0.00  0.00     0.000 OA
ATOM     72   O  A00 X   4      31.475  20.688  40.2130  0.00  0.00     0.000 OA
ATOM     73   O  A00 X   4      30.794  22.984  40.4310  0.00  0.00     0.000 O
ATOM     74   O  A00 X   4      32.641  22.175  41.7500  0.00  0.00     0.000 OA
ATOM     75   S  A00 X   4      31.399  21.752  41.1890  0.00  0.00     0.000 S
ENDBRANCH 62 70
ENDBRANCH 57 61
ENDBRANCH 41 57
ENDBRANCH 40 44
ENDBRANCH 20 40
ENDBRANCH 19 23
ENDBRANCH 1 19
TORSDOF 14
ENDMDL
MODEL 51
REMARK VINA RESULT:      -0.2     61.771     66.386
ROOT
ATOM      1  C1  A00 X   1      16.732  43.554  64.4600  0.00  0.00     0.000 C
ATOM      2  C2  A00 X   1      16.837  43.336  65.9930  0.00  0.00     0.000 C
ATOM      3  C3  A00 X   1      15.757  42.399  66.6290  0.00  0.00     0.000 C
ATOM      4  C4  A00 X   1      14.521  42.105  65.7420  0.00  0.00     0.000 C
ATOM      5  C5  A00 X   1      14.311  43.175  64.6700  0.00  0.00     0.000 C
ATOM      6  O5  A00 X   1      15.497  43.107  63.8470  0.00  0.00     0.000 O
ATOM      7   O  A00 X   1      15.265  43.011  67.8190  0.00  0.00     0.000 O
ATOM      9  HD  A00 X   1      14.584  42.670  67.4070  0.00  0.00     0.000 HD
ATOM      9   O  A00 X   1      14.613  40.820  65.1280  0.00  0.00     0.000 O
ATOM     11  HD  A00 X   1      13.932  40.479  64.7160  0.00  0.00     0.000 HD
ENDROOT
BRANCH 2 11
ATOM     11   O  A00 X   1      18.145  42.801  66.2710  0.00  0.00     0.000 O
ATOM     12   O  A00 X   1      18.761  42.024  68.4590  0.00  0.00     0.000 OA
ATOM     13   O  A00 X   1      18.234  44.376  68.1360  0.00  0.00     0.000 OA
ATOM     14   O  A00 X   1      20.200  43.439  67.1790  0.00  0.00     0.000 OA
ATOM     15   S  A00 X   1      18.853  43.188  67.6150  0.00  0.00     0.000 S
ENDBRANCH 2 11
BRANCH 5 16
ATOM     16   C  A00 X   1      14.017  44.580  65.2060  0.00  0.00     0.000 C
ATOM     17   O  A00 X   1      14.052  45.516  64.4340  0.00  0.00     0.000 OA
ATOM     18   O  A00 X   1      13.743  44.788  66.3720  0.00  0.00     0.000 OA
ENDBRANCH 5 16
BRANCH 1 19
ATOM     19  O4  A00 X   2      17.059  44.908  64.0620  0.00  0.00     0.000 O
BRANCH 19 23
ATOM     20  C1  A00 X   2      19.172  43.687  60.5390  0.00  0.00     0.000 C
ATOM     21  C2  A00 X   2      20.011  44.006  61.8000  0.00  0.00     0.000 C
ATOM     22  C3  A00 X   2      19.125  44.001  63.0640  0.00  0.00     0.000 C
ATOM     23  C4  A00 X   2      17.921  44.952  62.8880  0.00  0.00     0.000 C
ATOM     24  C5  A00 X   2      17.178  44.542  61.5870  0.00  0.00     0.000 C
ATOM     25  O5  A00 X   2      18.095  44.659  60.4690  0.00  0.00     0.000 O
ATOM     26   O  A00 X   2      19.959  44.233  64.2120  0.00  0.00     0.000 O
ATOM     28  HD  A00 X   2      20.337  44.928  63.8600  0.00  0.00     0.000 HD
BRANCH 21 30
ATOM     28   N  A00 X   2      21.061  44.534  60.9240  0.00  0.00     0.000 N
ATOM     30  HD  A00 X   2      21.422  44.411  61.7020  0.00  0.00     0.000 HD
ATOM     30   O  A00 X   2      23.125  44.141  61.9450  0.00  0.00     0.000 OA
ATOM     31   S  A00 X   2      22.310  45.246  61.5810  0.00  0.00     0.000 S
ATOM     32   O  A00 X   2      22.830  46.059  60.5270  0.00  0.00     0.000 OA
ATOM     33   O  A00 X   2      21.817  46.068  62.6470  0.00  0.00     0.000 OA
ENDBRANCH 21 30
BRANCH 24 34
ATOM     34   C  A00 X   2      15.802  45.190  61.3020  0.00  0.00     0.000 C
ATOM     35   O  A00 X   2      15.257  48.778  61.0130  0.00  0.00     0.000 OA
ATOM     36   O  A00 X   2      15.819  46.602  61.5920  0.00  0.00     0.000 O
ATOM     37   O  A00 X   2      16.820  47.570  59.7120  0.00  0.00     0.000 OA
ATOM     38   S  A00 X   2      15.545  47.543  60.3620  0.00  0.00     0.000 S
ATOM     39   O  A00 X   2      14.448  46.964  59.6460  0.00  0.00     0.000 OA
ENDBRANCH 24 34
BRANCH 20 40
ATOM     40  O4  A00 X   3      18.624  42.379  60.7580  0.00  0.00     0.000 O
BRANCH 40 44
ATOM     41  C1  A00 X   3      15.742  40.192  60.5700  0.00  0.00     0.000 C
ATOM     42  C2  A00 X   3      17.125  39.781  61.1210  0.00  0.00     0.000 C
ATOM     43  C3  A00 X   3      18.252  40.148  60.1220  0.00  0.00     0.000 C
ATOM     44  C4  A00 X   3      18.212  41.587  59.6230  0.00  0.00     0.000 C
ATOM     45  C5  A00 X   3      16.794  41.923  59.0810  0.00  0.00     0.000 C
ATOM     46  O5  A00 X   3      15.762  41.550  60.0510  0.00  0.00     0.000 O
ATOM     47   O  A00 X   3      19.568  39.736  60.4890  0.00  0.00     0.000 O
ATOM     49  HD  A00 X   3      19.780  40.507  60.1560  0.00  0.00     0.000 HD
BRANCH 42 49
ATOM     49   O  A00 X   3      17.296  40.461  62.3840  0.00  0.00     0.000 O
ATOM     50   O  A00 X   3      19.011  40.621  64.0470  0.00  0.00     0.000 OA
ATOM     51   O  A00 X   3      18.557  38.514  63.0750  0.00  0.00     0.000 OA
ATOM     52   O  A00 X   3      16.924  39.480  64.4850  0.00  0.00     0.000 OA
ATOM     53   S  A00 X   3      17.988  39.740  63.5770  0.00  0.00     0.000 S
ENDBRANCH 42 49
BRANCH 45 54
ATOM     54   C  A00 X   3      16.561  41.320  57.6900  0.00  0.00     0.000 C
ATOM     55   O  A00 X   3      17.348  40.523  57.2210  0.00  0.00     0.000 OA
ATOM     56   O  A00 X   3      15.583  41.632  57.0300  0.00  0.00     0.000 OA
ENDBRANCH 45 54
BRANCH 41 57
ATOM     57  O4  A00 X   4      15.227  39.215  59.6380  0.00  0.00     0.000 O
BRANCH 57 61
ATOM     58  C1  A00 X   4      11.233  37.877  58.6900  0.00  0.00     0.000 C
ATOM     59  C2  A00 X   4      11.595  39.364  58.4470  0.00  0.00     0.000 C
ATOM     60  C3  A00 X   4      13.112  39.640  58.4740  0.00  0.00     0.000 C
ATOM     61  C4  A00 X   4      13.789  38.996  59.7030  0.00  0.00     0.000 C
ATOM     62  C5  A00 X   4      13.473  37.482  59.6310  0.00  0.00     0.000 C
ATOM     63  O5  A00 X   4      12.040  37.288  59.7360  0.00  0.00     0.000 O
BRANCH 59 66
ATOM     64   N  A00 X   4      11.021  40.205  59.5120  0.00  0.00     0.000 N
ATOM     66  HD  A00 X   4      10.899  39.840  60.2880  0.00  0.00     0.000 HD
ATOM     66   O  A00 X   4       8.941  40.149  58.3000  0.00  0.00     0.000 OA
ATOM     67   S  A00 X   4       9.658  40.986  59.2100  0.00  0.00     0.000 S
ATOM     68   O  A00 X   4       9.111  41.072  60.5330  0.00  0.00     0.000 OA
ATOM     69   O  A00 X   4      10.182  42.225  58.7090  0.00  0.00     0.000 OA
ENDBRANCH 59 66
BRANCH 62 70
ATOM     70   C  A00 X   4      14.165  36.639  60.7290  0.00  0.00     0.000 C
ATOM     71   O  A00 X   4      13.518  36.597  64.2910  0.00  0.00     0.000 OA
ATOM     72   O  A00 X   4      15.541  36.786  63.1020  0.00  0.00     0.000 OA
ATOM     73   O  A00 X   4      13.426  36.759  61.9560  0.00  0.00     0.000 O
ATOM     74   O  A00 X   4      14.042  38.703  63.2400  0.00  0.00     0.000 OA
ATOM     75   S  A00 X   4      14.188  37.283  63.2230  0.00  0.00     0.000 S
ENDBRANCH 62 70
ENDBRANCH 57 61
ENDBRANCH 41 57
ENDBRANCH 40 44
ENDBRANCH 20 40
ENDBRANCH 19 23
ENDBRANCH 1 19
TORSDOF 14
ENDMDL
MODEL 52
REMARK VINA RESULT:      -0.2     46.416     51.326
ROOT
ATOM      1  C1  A00 X   1      53.340  36.866  20.2350  0.00  0.00     0.000 C
ATOM      2  C2  A00 X   1      53.749  37.921  21.2970  0.00  0.00     0.000 C
ATOM      3  C3  A00 X   1      55.148  37.717  21.9660  0.00  0.00     0.000 C
ATOM      4  C4  A00 X   1      55.785  36.318  21.7690  0.00  0.00     0.000 C
ATOM      5  C5  A00 X   1      54.742  35.248  21.4460  0.00  0.00     0.000 C
ATOM      6  O5  A00 X   1      54.159  35.671  20.1930  0.00  0.00     0.000 O
ATOM      7   O  A00 X   1      55.015  37.907  23.3730  0.00  0.00     0.000 O
ATOM      9  HD  A00 X   1      55.538  37.226  23.2550  0.00  0.00     0.000 HD
ATOM      9   O  A00 X   1      56.785  36.338  20.7500  0.00  0.00     0.000 O
ATOM     11  HD  A00 X   1      57.308  35.658  20.6330  0.00  0.00     0.000 HD
ENDROOT
BRANCH 2 11
ATOM     11   O  A00 X   1      53.715  39.215  20.6640  0.00  0.00     0.000 O
ATOM     12   O  A00 X   1      54.138  41.238  21.8870  0.00  0.00     0.000 OA
ATOM     13   O  A00 X   1      52.194  39.890  22.4530  0.00  0.00     0.000 OA
ATOM     14   O  A00 X   1      52.296  41.047  20.3770  0.00  0.00     0.000 OA
ATOM     15   S  A00 X   1      53.051  40.414  21.4250  0.00  0.00     0.000 S
ENDBRANCH 2 11
BRANCH 5 16
ATOM     16   C  A00 X   1      53.708  34.998  22.5490  0.00  0.00     0.000 C
ATOM     17   O  A00 X   1      52.740  34.312  22.2940  0.00  0.00     0.000 OA
ATOM     18   O  A00 X   1      53.827  35.453  23.6690  0.00  0.00     0.000 OA
ENDBRANCH 5 16
BRANCH 1 19
ATOM     19  O4  A00 X   2      51.930  36.539  20.2830  0.00  0.00     0.000 O
BRANCH 19 23
ATOM     20  C1  A00 X   2      51.563  36.153  16.0310  0.00  0.00     0.000 C
ATOM     21  C2  A00 X   2      51.125  37.495  16.6670  0.00  0.00     0.000 C
ATOM     22  C3  A00 X   2      51.706  37.644  18.0890  0.00  0.00     0.000 C
ATOM     23  C4  A00 X   2      51.338  36.419  18.9570  0.00  0.00     0.000 C
ATOM     24  C5  A00 X   2      51.811  35.145  18.2050  0.00  0.00     0.000 C
ATOM     25  O5  A00 X   2      51.140  35.085  16.9200  0.00  0.00     0.000 O
ATOM     26   O  A00 X   2      51.329  38.930  18.6080  0.00  0.00     0.000 O
ATOM     28  HD  A00 X   2      50.493  38.821  18.4100  0.00  0.00     0.000 HD
BRANCH 21 30
ATOM     28   N  A00 X   2      50.068  37.589  15.6550  0.00  0.00     0.000 N
ATOM     30  HD  A00 X   2      50.151  38.377  16.0050  0.00  0.00     0.000 HD
ATOM     30   O  A00 X   2      49.709  39.850  15.1870  0.00  0.00     0.000 OA
ATOM     31   S  A00 X   2      49.011  38.759  15.7690  0.00  0.00     0.000 S
ATOM     32   O  A00 X   2      47.895  38.283  15.0120  0.00  0.00     0.000 OA
ATOM     33   O  A00 X   2      48.659  38.878  17.1530  0.00  0.00     0.000 OA
ENDBRANCH 21 30
BRANCH 24 34
ATOM     34   C  A00 X   2      51.770  33.798  18.9640  0.00  0.00     0.000 C
ATOM     35   O  A00 X   2      49.689  30.972  17.9920  0.00  0.00     0.000 OA
ATOM     36   O  A00 X   2      50.622  33.015  18.5770  0.00  0.00     0.000 O
ATOM     37   O  A00 X   2      51.253  32.017  16.5580  0.00  0.00     0.000 OA
ATOM     38   S  A00 X   2      50.950  31.633  17.9030  0.00  0.00     0.000 S
ATOM     39   O  A00 X   2      52.000  31.043  18.6770  0.00  0.00     0.000 OA
ENDBRANCH 24 34
BRANCH 20 40
ATOM     40  O4  A00 X   3      52.996  36.197  15.9810  0.00  0.00     0.000 O
BRANCH 40 44
ATOM     41  C1  A00 X   3      56.143  34.474  16.4830  0.00  0.00     0.000 C
ATOM     42  C2  A00 X   3      56.007  35.944  16.0320  0.00  0.00     0.000 C
ATOM     43  C3  A00 X   3      55.038  36.068  14.8270  0.00  0.00     0.000 C
ATOM     44  C4  A00 X   3      53.695  35.376  15.0210  0.00  0.00     0.000 C
ATOM     45  C5  A00 X   3      53.915  33.903  15.4680  0.00  0.00     0.000 C
ATOM     46  O5  A00 X   3      54.842  33.833  16.5990  0.00  0.00     0.000 O
ATOM     47   O  A00 X   3      54.902  37.374  14.2690  0.00  0.00     0.000 O
ATOM     49  HD  A00 X   3      54.072  37.136  14.2020  0.00  0.00     0.000 HD
BRANCH 42 49
ATOM     49   O  A00 X   3      55.531  36.694  17.1710  0.00  0.00     0.000 O
ATOM     50   O  A00 X   3      54.912  38.963  17.6150  0.00  0.00     0.000 OA
ATOM     51   O  A00 X   3      56.823  38.541  16.2890  0.00  0.00     0.000 OA
ATOM     52   O  A00 X   3      56.898  37.979  18.5830  0.00  0.00     0.000 OA
ATOM     53   S  A00 X   3      56.062  38.132  17.4430  0.00  0.00     0.000 S
ENDBRANCH 42 49
BRANCH 45 54
ATOM     54   C  A00 X   3      54.328  33.009  14.2930  0.00  0.00     0.000 C
ATOM     55   O  A00 X   3      54.619  33.494  13.2190  0.00  0.00     0.000 OA
ATOM     56   O  A00 X   3      54.369  31.795  14.4160  0.00  0.00     0.000 OA
ENDBRANCH 45 54
BRANCH 41 57
ATOM     57  O4  A00 X   4      57.083  33.748  15.6600  0.00  0.00     0.000 O
BRANCH 57 61
ATOM     58  C1  A00 X   4      59.857  30.546  16.4930  0.00  0.00     0.000 C
ATOM     59  C2  A00 X   4      58.344  30.291  16.7060  0.00  0.00     0.000 C
ATOM     60  C3  A00 X   4      57.442  31.354  16.0470  0.00  0.00     0.000 C
ATOM     61  C4  A00 X   4      57.914  32.787  16.3710  0.00  0.00     0.000 C
ATOM     62  C5  A00 X   4      59.382  32.883  15.8840  0.00  0.00     0.000 C
ATOM     63  O5  A00 X   4      60.195  31.945  16.6330  0.00  0.00     0.000 O
BRANCH 59 66
ATOM     64   N  A00 X   4      58.006  30.331  18.1400  0.00  0.00     0.000 N
ATOM     66  HD  A00 X   4      58.499  30.825  18.6540  0.00  0.00     0.000 HD
ATOM     66   O  A00 X   4      58.783  28.056  18.2850  0.00  0.00     0.000 OA
ATOM     67   S  A00 X   4      57.863  28.944  18.9240  0.00  0.00     0.000 S
ATOM     68   O  A00 X   4      58.223  29.358  20.2490  0.00  0.00     0.000 OA
ATOM     69   O  A00 X   4      56.460  28.697  18.7460  0.00  0.00     0.000 OA
ENDBRANCH 59 66
BRANCH 62 70
ATOM     70   C  A00 X   4      60.003  34.294  16.0240  0.00  0.00     0.000 C
ATOM     71   O  A00 X   4      60.913  36.075  19.0410  0.00  0.00     0.000 OA
ATOM     72   O  A00 X   4      59.660  36.765  17.1710  0.00  0.00     0.000 OA
ATOM     73   O  A00 X   4      60.424  34.494  17.3820  0.00  0.00     0.000 O
ATOM     74   O  A00 X   4      58.650  35.275  18.8140  0.00  0.00     0.000 OA
ATOM     75   S  A00 X   4      59.836  35.724  18.1590  0.00  0.00     0.000 S
ENDBRANCH 62 70
ENDBRANCH 57 61
ENDBRANCH 41 57
ENDBRANCH 40 44
ENDBRANCH 20 40
ENDBRANCH 19 23
ENDBRANCH 1 19
TORSDOF 14
ENDMDL
MODEL 53
REMARK VINA RESULT:      -0.2     47.419     52.392
ROOT
ATOM      1  C1  A00 X   1      53.866  38.741  18.3280  0.00  0.00     0.000 C
ATOM      2  C2  A00 X   1      54.275  39.797  19.3900  0.00  0.00     0.000 C
ATOM      3  C3  A00 X   1      55.674  39.592  20.0590  0.00  0.00     0.000 C
ATOM      4  C4  A00 X   1      56.311  38.193  19.8620  0.00  0.00     0.000 C
ATOM      5  C5  A00 X   1      55.268  37.124  19.5390  0.00  0.00     0.000 C
ATOM      6  O5  A00 X   1      54.685  37.546  18.2860  0.00  0.00     0.000 O
ATOM      7   O  A00 X   1      55.541  39.782  21.4660  0.00  0.00     0.000 O
ATOM      9  HD  A00 X   1      56.064  39.102  21.3480  0.00  0.00     0.000 HD
ATOM      9   O  A00 X   1      57.311  38.214  18.8430  0.00  0.00     0.000 O
ATOM     11  HD  A00 X   1      57.834  37.533  18.7260  0.00  0.00     0.000 HD
ENDROOT
BRANCH 2 11
ATOM     11   O  A00 X   1      54.241  41.091  18.7570  0.00  0.00     0.000 O
ATOM     12   O  A00 X   1      54.664  43.114  19.9800  0.00  0.00     0.000 OA
ATOM     13   O  A00 X   1      52.720  41.765  20.5460  0.00  0.00     0.000 OA
ATOM     14   O  A00 X   1      52.822  42.922  18.4700  0.00  0.00     0.000 OA
ATOM     15   S  A00 X   1      53.577  42.289  19.5180  0.00  0.00     0.000 S
ENDBRANCH 2 11
BRANCH 5 16
ATOM     16   C  A00 X   1      54.234  36.873  20.6420  0.00  0.00     0.000 C
ATOM     17   O  A00 X   1      53.266  36.188  20.3870  0.00  0.00     0.000 OA
ATOM     18   O  A00 X   1      54.353  37.329  21.7620  0.00  0.00     0.000 OA
ENDBRANCH 5 16
BRANCH 1 19
ATOM     19  O4  A00 X   2      52.456  38.414  18.3760  0.00  0.00     0.000 O
BRANCH 19 23
ATOM     20  C1  A00 X   2      52.088  38.029  14.1240  0.00  0.00     0.000 C
ATOM     21  C2  A00 X   2      51.651  39.370  14.7600  0.00  0.00     0.000 C
ATOM     22  C3  A00 X   2      52.231  39.519  16.1820  0.00  0.00     0.000 C
ATOM     23  C4  A00 X   2      51.864  38.295  17.0500  0.00  0.00     0.000 C
ATOM     24  C5  A00 X   2      52.337  37.021  16.2980  0.00  0.00     0.000 C
ATOM     25  O5  A00 X   2      51.666  36.961  15.0130  0.00  0.00     0.000 O
ATOM     26   O  A00 X   2      51.855  40.806  16.7010  0.00  0.00     0.000 O
ATOM     28  HD  A00 X   2      51.019  40.697  16.5030  0.00  0.00     0.000 HD
BRANCH 21 30
ATOM     28   N  A00 X   2      50.594  39.464  13.7480  0.00  0.00     0.000 N
ATOM     30  HD  A00 X   2      50.677  40.252  14.0980  0.00  0.00     0.000 HD
ATOM     30   O  A00 X   2      50.235  41.725  13.2800  0.00  0.00     0.000 OA
ATOM     31   S  A00 X   2      49.537  40.635  13.8620  0.00  0.00     0.000 S
ATOM     32   O  A00 X   2      48.421  40.158  13.1050  0.00  0.00     0.000 OA
ATOM     33   O  A00 X   2      49.185  40.754  15.2460  0.00  0.00     0.000 OA
ENDBRANCH 21 30
BRANCH 24 34
ATOM     34   C  A00 X   2      52.295  35.673  17.0570  0.00  0.00     0.000 C
ATOM     35   O  A00 X   2      50.215  32.847  16.0850  0.00  0.00     0.000 OA
ATOM     36   O  A00 X   2      51.148  34.891  16.6700  0.00  0.00     0.000 O
ATOM     37   O  A00 X   2      51.779  33.892  14.6510  0.00  0.00     0.000 OA
ATOM     38   S  A00 X   2      51.476  33.508  15.9950  0.00  0.00     0.000 S
ATOM     39   O  A00 X   2      52.526  32.919  16.7700  0.00  0.00     0.000 OA
ENDBRANCH 24 34
BRANCH 20 40
ATOM     40  O4  A00 X   3      53.522  38.072  14.0740  0.00  0.00     0.000 O
BRANCH 40 44
ATOM     41  C1  A00 X   3      56.669  36.349  14.5760  0.00  0.00     0.000 C
ATOM     42  C2  A00 X   3      56.533  37.820  14.1240  0.00  0.00     0.000 C
ATOM     43  C3  A00 X   3      55.564  37.943  12.9200  0.00  0.00     0.000 C
ATOM     44  C4  A00 X   3      54.221  37.251  13.1140  0.00  0.00     0.000 C
ATOM     45  C5  A00 X   3      54.441  35.779  13.5610  0.00  0.00     0.000 C
ATOM     46  O5  A00 X   3      55.368  35.709  14.6920  0.00  0.00     0.000 O
ATOM     47   O  A00 X   3      55.428  39.249  12.3620  0.00  0.00     0.000 O
ATOM     49  HD  A00 X   3      54.598  39.011  12.2950  0.00  0.00     0.000 HD
BRANCH 42 49
ATOM     49   O  A00 X   3      56.057  38.569  15.2640  0.00  0.00     0.000 O
ATOM     50   O  A00 X   3      55.438  40.839  15.7080  0.00  0.00     0.000 OA
ATOM     51   O  A00 X   3      57.349  40.416  14.3820  0.00  0.00     0.000 OA
ATOM     52   O  A00 X   3      57.423  39.855  16.6760  0.00  0.00     0.000 OA
ATOM     53   S  A00 X   3      56.588  40.007  15.5360  0.00  0.00     0.000 S
ENDBRANCH 42 49
BRANCH 45 54
ATOM     54   C  A00 X   3      54.853  34.884  12.3860  0.00  0.00     0.000 C
ATOM     55   O  A00 X   3      55.145  35.369  11.3120  0.00  0.00     0.000 OA
ATOM     56   O  A00 X   3      54.895  33.670  12.5090  0.00  0.00     0.000 OA
ENDBRANCH 45 54
BRANCH 41 57
ATOM     57  O4  A00 X   4      57.609  35.623  13.7520  0.00  0.00     0.000 O
BRANCH 57 61
ATOM     58  C1  A00 X   4      60.383  32.421  14.5860  0.00  0.00     0.000 C
ATOM     59  C2  A00 X   4      58.870  32.166  14.7990  0.00  0.00     0.000 C
ATOM     60  C3  A00 X   4      57.968  33.229  14.1400  0.00  0.00     0.000 C
ATOM     61  C4  A00 X   4      58.440  34.663  14.4640  0.00  0.00     0.000 C
ATOM     62  C5  A00 X   4      59.907  34.759  13.9770  0.00  0.00     0.000 C
ATOM     63  O5  A00 X   4      60.721  33.820  14.7260  0.00  0.00     0.000 O
BRANCH 59 66
ATOM     64   N  A00 X   4      58.532  32.206  16.2330  0.00  0.00     0.000 N
ATOM     66  HD  A00 X   4      59.025  32.700  16.7470  0.00  0.00     0.000 HD
ATOM     66   O  A00 X   4      59.309  29.932  16.3780  0.00  0.00     0.000 OA
ATOM     67   S  A00 X   4      58.389  30.820  17.0170  0.00  0.00     0.000 S
ATOM     68   O  A00 X   4      58.749  31.233  18.3420  0.00  0.00     0.000 OA
ATOM     69   O  A00 X   4      56.986  30.572  16.8390  0.00  0.00     0.000 OA
ENDBRANCH 59 66
BRANCH 62 70
ATOM     70   C  A00 X   4      60.529  36.169  14.1160  0.00  0.00     0.000 C
ATOM     71   O  A00 X   4      61.439  37.950  17.1340  0.00  0.00     0.000 OA
ATOM     72   O  A00 X   4      60.186  38.640  15.2640  0.00  0.00     0.000 OA
ATOM     73   O  A00 X   4      60.950  36.370  15.4750  0.00  0.00     0.000 O
ATOM     74   O  A00 X   4      59.176  37.150  16.9060  0.00  0.00     0.000 OA
ATOM     75   S  A00 X   4      60.362  37.599  16.2520  0.00  0.00     0.000 S
ENDBRANCH 62 70
ENDBRANCH 57 61
ENDBRANCH 41 57
ENDBRANCH 40 44
ENDBRANCH 20 40
ENDBRANCH 19 23
ENDBRANCH 1 19
TORSDOF 14
ENDMDL
MODEL 54
REMARK VINA RESULT:      -0.2     44.006     49.922
ROOT
ATOM      1  C1  A00 X   1      53.173  30.600  20.4590  0.00  0.00     0.000 C
ATOM      2  C2  A00 X   1      52.591  31.936  20.9930  0.00  0.00     0.000 C
ATOM      3  C3  A00 X   1      53.573  32.834  21.8140  0.00  0.00     0.000 C
ATOM      4  C4  A00 X   1      54.868  32.136  22.3030  0.00  0.00     0.000 C
ATOM      5  C5  A00 X   1      54.712  30.617  22.3770  0.00  0.00     0.000 C
ATOM      6  O5  A00 X   1      54.452  30.208  21.0150  0.00  0.00     0.000 O
ATOM      7   O  A00 X   1      52.900  33.301  22.9810  0.00  0.00     0.000 O
ATOM      9  HD  A00 X   1      53.704  33.085  23.2200  0.00  0.00     0.000 HD
ATOM      9   O  A00 X   1      55.984  32.466  21.4760  0.00  0.00     0.000 O
ATOM     11  HD  A00 X   1      56.788  32.250  21.7150  0.00  0.00     0.000 HD
ENDROOT
BRANCH 2 11
ATOM     11   O  A00 X   1      52.103  32.685  19.8630  0.00  0.00     0.000 O
ATOM     12   O  A00 X   1      50.947  34.774  20.1280  0.00  0.00     0.000 OA
ATOM     13   O  A00 X   1      49.949  32.740  21.0140  0.00  0.00     0.000 OA
ATOM     14   O  A00 X   1      50.135  33.066  18.6660  0.00  0.00     0.000 OA
ATOM     15   S  A00 X   1      50.694  33.365  19.9560  0.00  0.00     0.000 S
ENDBRANCH 2 11
BRANCH 5 16
ATOM     16   C  A00 X   1      53.661  30.122  23.3760  0.00  0.00     0.000 C
ATOM     17   O  A00 X   1      53.348  28.949  23.3570  0.00  0.00     0.000 OA
ATOM     18   O  A00 X   1      53.138  30.857  24.1900  0.00  0.00     0.000 OA
ENDBRANCH 5 16
BRANCH 1 19
ATOM     19  O4  A00 X   2      52.219  29.512  20.5090  0.00  0.00     0.000 O
BRANCH 19 23
ATOM     20  C1  A00 X   2      53.556  27.766  16.8310  0.00  0.00     0.000 C
ATOM     21  C2  A00 X   2      52.301  28.670  16.7780  0.00  0.00     0.000 C
ATOM     22  C3  A00 X   2      52.203  29.549  18.0420  0.00  0.00     0.000 C
ATOM     23  C4  A00 X   2      52.261  28.677  19.3160  0.00  0.00     0.000 C
ATOM     24  C5  A00 X   2      53.547  27.809  19.2400  0.00  0.00     0.000 C
ATOM     25  O5  A00 X   2      53.481  26.980  18.0500  0.00  0.00     0.000 O
ATOM     26   O  A00 X   2      51.063  30.416  17.9140  0.00  0.00     0.000 O
ATOM     28  HD  A00 X   2      50.530  29.767  17.7050  0.00  0.00     0.000 HD
BRANCH 21 30
ATOM     28   N  A00 X   2      51.764  27.800  15.7270  0.00  0.00     0.000 N
ATOM     30  HD  A00 X   2      51.299  28.530  15.7090  0.00  0.00     0.000 HD
ATOM     30   O  A00 X   2      50.459  29.106  14.2960  0.00  0.00     0.000 OA
ATOM     31   S  A00 X   2      50.286  28.043  15.2210  0.00  0.00     0.000 S
ATOM     32   O  A00 X   2      49.917  26.790  14.6390  0.00  0.00     0.000 OA
ATOM     33   O  A00 X   2      49.482  28.312  16.3760  0.00  0.00     0.000 OA
ENDBRANCH 21 30
BRANCH 24 34
ATOM     34   C  A00 X   2      53.961  27.013  20.5000  0.00  0.00     0.000 C
ATOM     35   O  A00 X   2      54.165  23.381  20.6440  0.00  0.00     0.000 OA
ATOM     36   O  A00 X   2      53.614  25.620  20.3750  0.00  0.00     0.000 O
ATOM     37   O  A00 X   2      55.326  24.708  19.0680  0.00  0.00     0.000 OA
ATOM     38   S  A00 X   2      54.829  24.621  20.4070  0.00  0.00     0.000 S
ATOM     39   O  A00 X   2      55.688  25.061  21.4640  0.00  0.00     0.000 OA
ENDBRANCH 24 34
BRANCH 20 40
ATOM     40  O4  A00 X   3      54.675  28.660  16.9030  0.00  0.00     0.000 O
BRANCH 40 44
ATOM     41  C1  A00 X   3      57.877  29.470  18.3930  0.00  0.00     0.000 C
ATOM     42  C2  A00 X   3      57.154  30.334  17.3370  0.00  0.00     0.000 C
ATOM     43  C3  A00 X   3      56.732  29.478  16.1150  0.00  0.00     0.000 C
ATOM     44  C4  A00 X   3      55.973  28.204  16.4650  0.00  0.00     0.000 C
ATOM     45  C5  A00 X   3      56.764  27.389  17.5260  0.00  0.00     0.000 C
ATOM     46  O5  A00 X   3      57.151  28.237  18.6560  0.00  0.00     0.000 O
ATOM     47   O  A00 X   3      56.130  30.190  15.0350  0.00  0.00     0.000 O
ATOM     49  HD  A00 X   3      55.625  29.487  15.0010  0.00  0.00     0.000 HD
BRANCH 42 49
ATOM     49   O  A00 X   3      56.009  30.927  17.9870  0.00  0.00     0.000 O
ATOM     50   O  A00 X   3      54.190  32.343  17.3410  0.00  0.00     0.000 OA
ATOM     51   O  A00 X   3      56.354  32.814  16.5130  0.00  0.00     0.000 OA
ATOM     52   O  A00 X   3      55.938  33.121  18.8190  0.00  0.00     0.000 OA
ATOM     53   S  A00 X   3      55.584  32.387  17.6540  0.00  0.00     0.000 S
ENDBRANCH 42 49
BRANCH 45 54
ATOM     54   C  A00 X   3      57.947  26.641  16.9010  0.00  0.00     0.000 C
ATOM     55   O  A00 X   3      58.278  26.855  15.7530  0.00  0.00     0.000 OA
ATOM     56   O  A00 X   3      58.576  25.815  17.5450  0.00  0.00     0.000 OA
ENDBRANCH 45 54
BRANCH 41 57
ATOM     57  O4  A00 X   4      59.269  29.271  18.0590  0.00  0.00     0.000 O
BRANCH 57 61
ATOM     58  C1  A00 X   4      62.836  28.857  20.4540  0.00  0.00     0.000 C
ATOM     59  C2  A00 X   4      61.710  27.806  20.6140  0.00  0.00     0.000 C
ATOM     60  C3  A00 X   4      60.668  27.843  19.4780  0.00  0.00     0.000 C
ATOM     61  C4  A00 X   4      60.184  29.281  19.1910  0.00  0.00     0.000 C
ATOM     62  C5  A00 X   4      61.449  30.107  18.8500  0.00  0.00     0.000 C
ATOM     63  O5  A00 X   4      62.327  30.133  20.0050  0.00  0.00     0.000 O
BRANCH 59 66
ATOM     64   N  A00 X   4      60.935  28.032  21.8480  0.00  0.00     0.000 N
ATOM     66  HD  A00 X   4      60.882  28.844  22.1440  0.00  0.00     0.000 HD
ATOM     66   O  A00 X   4      62.690  26.892  23.0390  0.00  0.00     0.000 OA
ATOM     67   S  A00 X   4      61.288  27.151  23.1350  0.00  0.00     0.000 S
ATOM     68   O  A00 X   4      60.896  28.052  24.1800  0.00  0.00     0.000 OA
ATOM     69   O  A00 X   4      60.389  26.049  22.9420  0.00  0.00     0.000 OA
ENDBRANCH 59 66
BRANCH 62 70
ATOM     70   C  A00 X   4      61.156  31.565  18.4220  0.00  0.00     0.000 C
ATOM     71   O  A00 X   4      59.933  34.311  20.4390  0.00  0.00     0.000 OA
ATOM     72   O  A00 X   4      59.215  33.507  18.3460  0.00  0.00     0.000 OA
ATOM     73   O  A00 X   4      60.927  32.366  19.5920  0.00  0.00     0.000 O
ATOM     74   O  A00 X   4      58.648  32.272  20.3690  0.00  0.00     0.000 OA
ATOM     75   S  A00 X   4      59.566  33.137  19.6990  0.00  0.00     0.000 S
ENDBRANCH 62 70
ENDBRANCH 57 61
ENDBRANCH 41 57
ENDBRANCH 40 44
ENDBRANCH 20 40
ENDBRANCH 19 23
ENDBRANCH 1 19
TORSDOF 14
ENDMDL
MODEL 55
REMARK VINA RESULT:      -0.2     54.485     58.218
ROOT
ATOM      1  C1  A00 X   1      44.427  50.769  29.3300  0.00  0.00     0.000 C
ATOM      2  C2  A00 X   1      44.974  49.725  30.3390  0.00  0.00     0.000 C
ATOM      3  C3  A00 X   1      44.411  49.816  31.7960  0.00  0.00     0.000 C
ATOM      4  C4  A00 X   1      43.675  51.135  32.1460  0.00  0.00     0.000 C
ATOM      5  C5  A00 X   1      44.091  52.288  31.2340  0.00  0.00     0.000 C
ATOM      6  O5  A00 X   1      43.688  51.873  29.9100  0.00  0.00     0.000 O
ATOM      7   O  A00 X   1      45.496  49.702  32.7140  0.00  0.00     0.000 O
ATOM      9  HD  A00 X   1      44.970  50.321  33.0150  0.00  0.00     0.000 HD
ATOM      9   O  A00 X   1      42.258  50.969  32.0990  0.00  0.00     0.000 O
ATOM     11  HD  A00 X   1      41.732  51.588  32.4010  0.00  0.00     0.000 HD
ENDROOT
BRANCH 2 11
ATOM     11   O  A00 X   1      44.695  48.415  29.8090  0.00  0.00     0.000 O
ATOM     12   O  A00 X   1      45.452  46.415  30.9020  0.00  0.00     0.000 OA
ATOM     13   O  A00 X   1      47.090  47.979  30.0150  0.00  0.00     0.000 OA
ATOM     14   O  A00 X   1      45.700  46.728  28.5460  0.00  0.00     0.000 OA
ATOM     15   S  A00 X   1      45.821  47.325  29.8480  0.00  0.00     0.000 S
ENDBRANCH 2 11
BRANCH 5 16
ATOM     16   C  A00 X   1      45.567  52.689  31.3290  0.00  0.00     0.000 C
ATOM     17   O  A00 X   1      46.015  53.456  30.5020  0.00  0.00     0.000 OA
ATOM     18   O  A00 X   1      46.300  52.273  32.2040  0.00  0.00     0.000 OA
ENDBRANCH 5 16
BRANCH 1 19
ATOM     19  O4  A00 X   2      45.437  51.238  28.4040  0.00  0.00     0.000 O
BRANCH 19 23
ATOM     20  C1  A00 X   2      42.728  51.479  25.0920  0.00  0.00     0.000 C
ATOM     21  C2  A00 X   2      43.617  50.216  25.1980  0.00  0.00     0.000 C
ATOM     22  C3  A00 X   2      44.196  50.070  26.6210  0.00  0.00     0.000 C
ATOM     23  C4  A00 X   2      44.935  51.360  27.0430  0.00  0.00     0.000 C
ATOM     24  C5  A00 X   2      43.948  52.548  26.8750  0.00  0.00     0.000 C
ATOM     25  O5  A00 X   2      43.537  52.620  25.4850  0.00  0.00     0.000 O
ATOM     26   O  A00 X   2      44.955  48.850  26.6870  0.00  0.00     0.000 O
ATOM     28  HD  A00 X   2      45.407  49.034  25.9710  0.00  0.00     0.000 HD
BRANCH 21 30
ATOM     28   N  A00 X   2      43.682  50.185  23.7340  0.00  0.00     0.000 N
ATOM     30  HD  A00 X   2      43.947  49.409  24.0130  0.00  0.00     0.000 HD
ATOM     30   O  A00 X   2      43.849  47.954  23.0610  0.00  0.00     0.000 OA
ATOM     31   S  A00 X   2      44.637  49.135  23.0390  0.00  0.00     0.000 S
ATOM     32   O  A00 X   2      44.861  49.688  21.7390  0.00  0.00     0.000 OA
ATOM     33   O  A00 X   2      45.859  49.114  23.7870  0.00  0.00     0.000 OA
ENDBRANCH 21 30
BRANCH 24 34
ATOM     34   C  A00 X   2      44.365  53.924  27.4460  0.00  0.00     0.000 C
ATOM     35   O  A00 X   2      47.376  55.716  26.4600  0.00  0.00     0.000 OA
ATOM     36   O  A00 X   2      45.745  54.216  27.1500  0.00  0.00     0.000 O
ATOM     37   O  A00 X   2      45.715  54.989  24.9430  0.00  0.00     0.000 OA
ATOM     38   S  A00 X   2      45.983  55.488  26.2560  0.00  0.00     0.000 S
ATOM     39   O  A00 X   2      45.120  56.510  26.7670  0.00  0.00     0.000 OA
ENDBRANCH 24 34
BRANCH 20 40
ATOM     40  O4  A00 X   3      41.671  51.290  26.0440  0.00  0.00     0.000 O
BRANCH 40 44
ATOM     41  C1  A00 X   3      39.600  52.717  28.6510  0.00  0.00     0.000 C
ATOM     42  C2  A00 X   3      39.528  51.251  28.1740  0.00  0.00     0.000 C
ATOM     43  C3  A00 X   3      39.399  51.175  26.6310  0.00  0.00     0.000 C
ATOM     44  C4  A00 X   3      40.427  52.001  25.8680  0.00  0.00     0.000 C
ATOM     45  C5  A00 X   3      40.437  53.462  26.4010  0.00  0.00     0.000 C
ATOM     46  O5  A00 X   3      40.549  53.485  27.8610  0.00  0.00     0.000 O
ATOM     47   O  A00 X   3      39.237  49.868  26.0830  0.00  0.00     0.000 O
ATOM     49  HD  A00 X   3      39.761  50.183  25.4690  0.00  0.00     0.000 HD
BRANCH 42 49
ATOM     49   O  A00 X   3      40.729  50.596  28.6360  0.00  0.00     0.000 O
ATOM     50   O  A00 X   3      41.707  48.421  28.4270  0.00  0.00     0.000 OA
ATOM     51   O  A00 X   3      39.379  48.594  28.8010  0.00  0.00     0.000 OA
ATOM     52   O  A00 X   3      40.850  49.226  30.5400  0.00  0.00     0.000 OA
ATOM     53   S  A00 X   3      40.679  49.121  29.1310  0.00  0.00     0.000 S
ENDBRANCH 42 49
BRANCH 45 54
ATOM     54   C  A00 X   3      39.241  54.266  25.8750  0.00  0.00     0.000 C
ATOM     55   O  A00 X   3      38.342  53.715  25.2740  0.00  0.00     0.000 OA
ATOM     56   O  A00 X   3      39.174  55.473  26.0490  0.00  0.00     0.000 OA
ENDBRANCH 45 54
BRANCH 41 57
ATOM     57  O4  A00 X   4      38.287  53.316  28.7370  0.00  0.00     0.000 O
BRANCH 57 61
ATOM     58  C1  A00 X   4      36.573  56.270  31.3780  0.00  0.00     0.000 C
ATOM     59  C2  A00 X   4      37.780  56.676  30.4960  0.00  0.00     0.000 C
ATOM     60  C3  A00 X   4      38.071  55.679  29.3560  0.00  0.00     0.000 C
ATOM     61  C4  A00 X   4      38.093  54.220  29.8620  0.00  0.00     0.000 C
ATOM     62  C5  A00 X   4      36.714  53.967  30.5210  0.00  0.00     0.000 C
ATOM     63  O5  A00 X   4      36.560  54.852  31.6600  0.00  0.00     0.000 O
BRANCH 59 66
ATOM     64   N  A00 X   4      39.005  56.712  31.3150  0.00  0.00     0.000 N
ATOM     66  HD  A00 X   4      39.037  56.196  32.0100  0.00  0.00     0.000 HD
ATOM     66   O  A00 X   4      38.346  58.917  32.0240  0.00  0.00     0.000 OA
ATOM     67   S  A00 X   4      39.526  58.132  31.8370  0.00  0.00     0.000 S
ATOM     68   O  A00 X   4      40.199  57.734  33.0390  0.00  0.00     0.000 OA
ATOM     69   O  A00 X   4      40.405  58.490  30.7610  0.00  0.00     0.000 OA
ENDBRANCH 59 66
BRANCH 62 70
ATOM     70   C  A00 X   4      36.499  52.511  30.9970  0.00  0.00     0.000 C
ATOM     71   O  A00 X   4      38.092  50.771  33.7430  0.00  0.00     0.000 OA
ATOM     72   O  A00 X   4      37.773  50.130  31.5000  0.00  0.00     0.000 OA
ATOM     73   O  A00 X   4      37.150  52.324  32.2640  0.00  0.00     0.000 O
ATOM     74   O  A00 X   4      39.486  51.774  32.0500  0.00  0.00     0.000 OA
ATOM     75   S  A00 X   4      38.226  51.188  32.3760  0.00  0.00     0.000 S
ENDBRANCH 62 70
ENDBRANCH 57 61
ENDBRANCH 41 57
ENDBRANCH 40 44
ENDBRANCH 20 40
ENDBRANCH 19 23
ENDBRANCH 1 19
TORSDOF 14
ENDMDL
MODEL 56
REMARK VINA RESULT:      -0.2     63.504     68.845
ROOT
ATOM      1  C1  A00 X   1      68.602  49.971  16.9720  0.00  0.00     0.000 C
ATOM      2  C2  A00 X   1      69.678  49.771  18.0720  0.00  0.00     0.000 C
ATOM      3  C3  A00 X   1      70.047  48.290  18.4110  0.00  0.00     0.000 C
ATOM      4  C4  A00 X   1      69.056  47.218  17.8900  0.00  0.00     0.000 C
ATOM      5  C5  A00 X   1      67.665  47.795  17.6310  0.00  0.00     0.000 C
ATOM      6  O5  A00 X   1      67.864  48.782  16.5940  0.00  0.00     0.000 O
ATOM      7   O  A00 X   1      70.094  48.143  19.8290  0.00  0.00     0.000 O
ATOM      9  HD  A00 X   1      69.703  47.438  19.5120  0.00  0.00     0.000 HD
ATOM      9   O  A00 X   1      69.545  46.587  16.7060  0.00  0.00     0.000 O
ATOM     11  HD  A00 X   1      69.153  45.882  16.3890  0.00  0.00     0.000 HD
ENDROOT
BRANCH 2 11
ATOM     11   O  A00 X   1      70.868  50.468  17.6530  0.00  0.00     0.000 O
ATOM     12   O  A00 X   1      72.939  50.279  18.8540  0.00  0.00     0.000 OA
ATOM     13   O  A00 X   1      71.018  51.293  19.9480  0.00  0.00     0.000 OA
ATOM     14   O  A00 X   1      72.094  52.396  18.1350  0.00  0.00     0.000 OA
ATOM     15   S  A00 X   1      71.782  51.130  18.7420  0.00  0.00     0.000 S
ENDBRANCH 2 11
BRANCH 5 16
ATOM     16   C  A00 X   1      66.950  48.344  18.8700  0.00  0.00     0.000 C
ATOM     17   O  A00 X   1      65.944  49.006  18.7150  0.00  0.00     0.000 OA
ATOM     18   O  A00 X   1      67.349  48.135  19.9980  0.00  0.00     0.000 OA
ENDBRANCH 5 16
BRANCH 1 19
ATOM     19  O4  A00 X   2      67.711  51.078  17.2520  0.00  0.00     0.000 O
BRANCH 19 23
ATOM     20  C1  A00 X   2      67.550  52.383  13.1730  0.00  0.00     0.000 C
ATOM     21  C2  A00 X   2      68.533  53.114  14.1190  0.00  0.00     0.000 C
ATOM     22  C3  A00 X   2      68.795  52.280  15.3910  0.00  0.00     0.000 C
ATOM     23  C4  A00 X   2      67.464  51.908  16.0810  0.00  0.00     0.000 C
ATOM     24  C5  A00 X   2      66.565  51.202  15.0290  0.00  0.00     0.000 C
ATOM     25  O5  A00 X   2      66.335  52.114  13.9240  0.00  0.00     0.000 O
ATOM     26   O  A00 X   2      69.764  52.968  16.2010  0.00  0.00     0.000 O
ATOM     28  HD  A00 X   2      69.334  53.719  16.1670  0.00  0.00     0.000 HD
BRANCH 21 30
ATOM     28   N  A00 X   2      68.260  54.355  13.3880  0.00  0.00     0.000 N
ATOM     30  HD  A00 X   2      68.981  54.489  13.8480  0.00  0.00     0.000 HD
ATOM     30   O  A00 X   2      70.199  55.659  13.4190  0.00  0.00     0.000 OA
ATOM     31   S  A00 X   2      68.875  55.706  13.9310  0.00  0.00     0.000 S
ATOM     32   O  A00 X   2      68.040  56.714  13.3540  0.00  0.00     0.000 OA
ATOM     33   O  A00 X   2      68.729  55.695  15.3560  0.00  0.00     0.000 OA
ENDBRANCH 21 30
BRANCH 24 34
ATOM     34   C  A00 X   2      65.266  50.523  15.5230  0.00  0.00     0.000 C
ATOM     35   O  A00 X   2      62.589  52.267  17.2690  0.00  0.00     0.000 OA
ATOM     36   O  A00 X   2      64.569  51.356  16.4710  0.00  0.00     0.000 O
ATOM     37   O  A00 X   2      63.420  52.906  15.1490  0.00  0.00     0.000 OA
ATOM     38   S  A00 X   2      63.131  51.816  16.0300  0.00  0.00     0.000 S
ATOM     39   O  A00 X   2      62.491  50.663  15.4710  0.00  0.00     0.000 OA
ENDBRANCH 24 34
BRANCH 20 40
ATOM     40  O4  A00 X   3      68.188  51.143  12.8340  0.00  0.00     0.000 O
BRANCH 40 44
ATOM     41  C1  A00 X   3      67.868  47.562  12.3900  0.00  0.00     0.000 C
ATOM     42  C2  A00 X   3      69.182  48.355  12.2270  0.00  0.00     0.000 C
ATOM     43  C3  A00 X   3      68.985  49.569  11.2830  0.00  0.00     0.000 C
ATOM     44  C4  A00 X   3      67.794  50.453  11.6280  0.00  0.00     0.000 C
ATOM     45  C5  A00 X   3      66.511  49.586  11.7700  0.00  0.00     0.000 C
ATOM     46  O5  A00 X   3      66.746  48.447  12.6610  0.00  0.00     0.000 O
ATOM     47   O  A00 X   3      70.158  50.326  10.9890  0.00  0.00     0.000 O
ATOM     49  HD  A00 X   3      69.607  50.992  11.0540  0.00  0.00     0.000 HD
BRANCH 42 49
ATOM     49   O  A00 X   3      69.590  48.774  13.5480  0.00  0.00     0.000 O
ATOM     50   O  A00 X   3      71.372  50.073  14.4800  0.00  0.00     0.000 OA
ATOM     51   O  A00 X   3      71.861  48.549  12.7400  0.00  0.00     0.000 OA
ATOM     52   O  A00 X   3      71.218  47.688  14.8460  0.00  0.00     0.000 OA
ATOM     53   S  A00 X   3      71.096  48.778  13.9410  0.00  0.00     0.000 S
ENDBRANCH 42 49
BRANCH 45 54
ATOM     54   C  A00 X   3      65.948  49.177  10.4040  0.00  0.00     0.000 C
ATOM     55   O  A00 X   3      64.861  48.645  10.3160  0.00  0.00     0.000 OA
ATOM     56   O  A00 X   3      66.584  49.377   9.3800  0.00  0.00     0.000 OA
ENDBRANCH 45 54
BRANCH 41 57
ATOM     57  O4  A00 X   4      67.648  46.659  11.2830  0.00  0.00     0.000 O
BRANCH 57 61
ATOM     58  C1  A00 X   4      65.815  42.761  10.9920  0.00  0.00     0.000 C
ATOM     59  C2  A00 X   4      64.949  43.954  11.4670  0.00  0.00     0.000 C
ATOM     60  C3  A00 X   4      65.591  45.328  11.1910  0.00  0.00     0.000 C
ATOM     61  C4  A00 X   4      67.067  45.373  11.6410  0.00  0.00     0.000 C
ATOM     62  C5  A00 X   4      67.788  44.229  10.8850  0.00  0.00     0.000 C
ATOM     63  O5  A00 X   4      67.217  42.957  11.2860  0.00  0.00     0.000 O
BRANCH 59 66
ATOM     64   N  A00 X   4      64.767  43.887  12.9280  0.00  0.00     0.000 N
ATOM     66  HD  A00 X   4      65.386  43.496  13.3910  0.00  0.00     0.000 HD
ATOM     66   O  A00 X   4      62.990  42.310  12.5340  0.00  0.00     0.000 OA
ATOM     67   S  A00 X   4      63.395  43.289  13.4940  0.00  0.00     0.000 S
ATOM     68   O  A00 X   4      63.840  42.770  14.7540  0.00  0.00     0.000 OA
ATOM     69   O  A00 X   4      62.617  44.491  13.5940  0.00  0.00     0.000 OA
ENDBRANCH 59 66
BRANCH 62 70
ATOM     70   C  A00 X   4      69.316  44.179  11.1230  0.00  0.00     0.000 C
ATOM     71   O  A00 X   4      71.107  43.265  14.1340  0.00  0.00     0.000 OA
ATOM     72   O  A00 X   4      71.346  45.127  12.7120  0.00  0.00     0.000 OA
ATOM     73   O  A00 X   4      69.580  43.528  12.3770  0.00  0.00     0.000 O
ATOM     74   O  A00 X   4      69.466  45.027  14.2590  0.00  0.00     0.000 OA
ATOM     75   S  A00 X   4      70.405  44.316  13.4530  0.00  0.00     0.000 S
ENDBRANCH 62 70
ENDBRANCH 57 61
ENDBRANCH 41 57
ENDBRANCH 40 44
ENDBRANCH 20 40
ENDBRANCH 19 23
ENDBRANCH 1 19
TORSDOF 14
ENDMDL
MODEL 57
REMARK VINA RESULT:      -0.2     69.732     75.610
ROOT
ATOM      1  C1  A00 X   1      52.185  50.854  54.7800  0.00  0.00     0.000 C
ATOM      2  C2  A00 X   1      53.618  51.168  54.2740  0.00  0.00     0.000 C
ATOM      3  C3  A00 X   1      53.721  51.771  52.8340  0.00  0.00     0.000 C
ATOM      4  C4  A00 X   1      52.447  51.639  51.9610  0.00  0.00     0.000 C
ATOM      5  C5  A00 X   1      51.538  50.505  52.4330  0.00  0.00     0.000 C
ATOM      6  O5  A00 X   1      51.144  50.882  53.7710  0.00  0.00     0.000 O
ATOM      7   O  A00 X   1      54.764  51.099  52.1310  0.00  0.00     0.000 O
ATOM      9  HD  A00 X   1      54.107  51.201  51.5760  0.00  0.00     0.000 HD
ATOM      9   O  A00 X   1      51.711  52.862  51.9240  0.00  0.00     0.000 O
ATOM     11  HD  A00 X   1      51.054  52.964  51.3690  0.00  0.00     0.000 HD
ENDROOT
BRANCH 2 11
ATOM     11   O  A00 X   1      54.223  52.082  55.2090  0.00  0.00     0.000 O
ATOM     12   O  A00 X   1      56.492  52.829  54.9670  0.00  0.00     0.000 OA
ATOM     13   O  A00 X   1      56.053  50.472  55.3750  0.00  0.00     0.000 OA
ATOM     14   O  A00 X   1      55.633  52.087  57.0700  0.00  0.00     0.000 OA
ATOM     15   S  A00 X   1      55.705  51.838  55.6560  0.00  0.00     0.000 S
ENDBRANCH 2 11
BRANCH 5 16
ATOM     16   C  A00 X   1      52.153  49.104  52.3470  0.00  0.00     0.000 C
ATOM     17   O  A00 X   1      51.574  48.181  52.8830  0.00  0.00     0.000 OA
ATOM     18   O  A00 X   1      53.193  48.884  51.7590  0.00  0.00     0.000 OA
ENDBRANCH 5 16
BRANCH 1 19
ATOM     19  O4  A00 X   2      52.122  49.641  55.5700  0.00  0.00     0.000 O
BRANCH 19 23
ATOM     20  C1  A00 X   2      49.203  51.202  58.2920  0.00  0.00     0.000 C
ATOM     21  C2  A00 X   2      50.686  51.245  58.7330  0.00  0.00     0.000 C
ATOM     22  C3  A00 X   2      51.625  51.066  57.5220  0.00  0.00     0.000 C
ATOM     23  C4  A00 X   2      51.267  49.781  56.7410  0.00  0.00     0.000 C
ATOM     24  C5  A00 X   2      49.760  49.852  56.3750  0.00  0.00     0.000 C
ATOM     25  O5  A00 X   2      48.985  49.944  57.5990  0.00  0.00     0.000 O
ATOM     26   O  A00 X   2      52.985  51.182  57.9720  0.00  0.00     0.000 O
ATOM     28  HD  A00 X   2      52.874  50.613  58.6150  0.00  0.00     0.000 HD
BRANCH 21 30
ATOM     28   N  A00 X   2      50.243  51.007  60.1100  0.00  0.00     0.000 N
ATOM     30  HD  A00 X   2      51.062  51.287  60.1550  0.00  0.00     0.000 HD
ATOM     30   O  A00 X   2      51.737  52.082  61.5500  0.00  0.00     0.000 OA
ATOM     31   S  A00 X   2      51.336  50.759  61.2260  0.00  0.00     0.000 S
ATOM     32   O  A00 X   2      50.617  50.075  62.2570  0.00  0.00     0.000 OA
ATOM     33   O  A00 X   2      52.331  49.898  60.6590  0.00  0.00     0.000 OA
ENDBRANCH 21 30
BRANCH 24 34
ATOM     34   C  A00 X   2      49.201  48.796  55.3930  0.00  0.00     0.000 C
ATOM     35   O  A00 X   2      46.612  46.382  56.2480  0.00  0.00     0.000 OA
ATOM     36   O  A00 X   2      48.465  47.771  56.0910  0.00  0.00     0.000 O
ATOM     37   O  A00 X   2      46.364  48.723  56.4780  0.00  0.00     0.000 OA
ATOM     38   S  A00 X   2      46.943  47.662  55.7120  0.00  0.00     0.000 S
ATOM     39   O  A00 X   2      46.873  47.758  54.2850  0.00  0.00     0.000 OA
ENDBRANCH 24 34
BRANCH 20 40
ATOM     40  O4  A00 X   3      49.040  52.291  57.3710  0.00  0.00     0.000 O
BRANCH 40 44
ATOM     41  C1  A00 X   3      47.661  53.510  54.2510  0.00  0.00     0.000 C
ATOM     42  C2  A00 X   3      48.532  54.346  55.2150  0.00  0.00     0.000 C
ATOM     43  C3  A00 X   3      47.987  54.268  56.6640  0.00  0.00     0.000 C
ATOM     44  C4  A00 X   3      47.727  52.854  57.1680  0.00  0.00     0.000 C
ATOM     45  C5  A00 X   3      46.842  52.081  56.1500  0.00  0.00     0.000 C
ATOM     46  O5  A00 X   3      47.388  52.189  54.7950  0.00  0.00     0.000 O
ATOM     47   O  A00 X   3      48.663  55.073  57.6280  0.00  0.00     0.000 O
ATOM     49  HD  A00 X   3      48.532  54.381  58.1320  0.00  0.00     0.000 HD
BRANCH 42 49
ATOM     49   O  A00 X   3      49.877  53.826  55.1280  0.00  0.00     0.000 O
ATOM     50   O  A00 X   3      51.979  54.275  56.1810  0.00  0.00     0.000 OA
ATOM     51   O  A00 X   3      50.606  56.094  55.5530  0.00  0.00     0.000 OA
ATOM     52   O  A00 X   3      51.596  54.788  53.8500  0.00  0.00     0.000 OA
ATOM     53   S  A00 X   3      51.097  54.790  55.1820  0.00  0.00     0.000 S
ENDBRANCH 42 49
BRANCH 45 54
ATOM     54   C  A00 X   3      45.370  52.500  56.2430  0.00  0.00     0.000 C
ATOM     55   O  A00 X   3      44.515  51.898  55.6280  0.00  0.00     0.000 OA
ATOM     56   O  A00 X   3      45.033  53.448  56.9360  0.00  0.00     0.000 OA
ENDBRANCH 45 54
BRANCH 41 57
ATOM     57  O4  A00 X   4      46.479  54.232  53.8390  0.00  0.00     0.000 O
BRANCH 57 61
ATOM     58  C1  A00 X   4      44.215  54.309  50.1630  0.00  0.00     0.000 C
ATOM     59  C2  A00 X   4      44.320  52.974  50.9420  0.00  0.00     0.000 C
ATOM     60  C3  A00 X   4      44.830  53.143  52.3870  0.00  0.00     0.000 C
ATOM     61  C4  A00 X   4      46.088  54.036  52.4500  0.00  0.00     0.000 C
ATOM     62  C5  A00 X   4      45.694  55.389  51.8080  0.00  0.00     0.000 C
ATOM     63  O5  A00 X   4      45.346  55.174  50.4170  0.00  0.00     0.000 O
BRANCH 59 66
ATOM     64   N  A00 X   4      45.286  52.070  50.2910  0.00  0.00     0.000 N
ATOM     66  HD  A00 X   4      45.931  52.432  49.8410  0.00  0.00     0.000 HD
ATOM     66   O  A00 X   4      43.531  51.458  48.7600  0.00  0.00     0.000 OA
ATOM     67   S  A00 X   4      44.721  50.917  49.3380  0.00  0.00     0.000 S
ATOM     68   O  A00 X   4      45.827  50.760  48.4390  0.00  0.00     0.000 OA
ATOM     69   O  A00 X   4      44.579  49.850  50.2880  0.00  0.00     0.000 OA
ENDBRANCH 59 66
BRANCH 62 70
ATOM     70   C  A00 X   4      46.802  56.467  51.8770  0.00  0.00     0.000 C
ATOM     71   O  A00 X   4      49.966  56.573  50.1200  0.00  0.00     0.000 OA
ATOM     72   O  A00 X   4      49.466  56.880  52.4000  0.00  0.00     0.000 OA
ATOM     73   O  A00 X   4      47.761  56.229  50.8340  0.00  0.00     0.000 O
ATOM     74   O  A00 X   4      49.455  54.633  51.4570  0.00  0.00     0.000 OA
ATOM     75   S  A00 X   4      49.261  56.032  51.2470  0.00  0.00     0.000 S
ENDBRANCH 62 70
ENDBRANCH 57 61
ENDBRANCH 41 57
ENDBRANCH 40 44
ENDBRANCH 20 40
ENDBRANCH 19 23
ENDBRANCH 1 19
TORSDOF 14
ENDMDL
MODEL 58
REMARK VINA RESULT:      -0.2     55.973     61.105
ROOT
ATOM      1  C1  A00 X   1      46.236  22.032  53.0530  0.00  0.00     0.000 C
ATOM      2  C2  A00 X   1      45.120  22.376  52.0300  0.00  0.00     0.000 C
ATOM      3  C3  A00 X   1      45.564  23.211  50.7840  0.00  0.00     0.000 C
ATOM      4  C4  A00 X   1      46.949  23.898  50.8980  0.00  0.00     0.000 C
ATOM      5  C5  A00 X   1      47.378  24.094  52.3530  0.00  0.00     0.000 C
ATOM      6  O5  A00 X   1      47.480  22.756  52.8890  0.00  0.00     0.000 O
ATOM      7   O  A00 X   1      44.613  24.251  50.5680  0.00  0.00     0.000 O
ATOM      9  HD  A00 X   1      45.398  24.593  50.4410  0.00  0.00     0.000 HD
ATOM      9   O  A00 X   1      47.953  23.168  50.1940  0.00  0.00     0.000 O
ATOM     11  HD  A00 X   1      48.739  23.510  50.0670  0.00  0.00     0.000 HD
ENDROOT
BRANCH 2 11
ATOM     11   O  A00 X   1      44.539  21.136  51.5810  0.00  0.00     0.000 O
ATOM     12   O  A00 X   1      42.665  21.082  50.0810  0.00  0.00     0.000 OA
ATOM     13   O  A00 X   1      42.390  22.053  52.2940  0.00  0.00     0.000 OA
ATOM     14   O  A00 X   1      42.745  19.715  52.0400  0.00  0.00     0.000 OA
ATOM     15   S  A00 X   1      42.979  21.021  51.4860  0.00  0.00     0.000 S
ENDBRANCH 2 11
BRANCH 5 16
ATOM     16   C  A00 X   1      46.473  25.017  53.1760  0.00  0.00     0.000 C
ATOM     17   O  A00 X   1      46.594  25.023  54.3830  0.00  0.00     0.000 OA
ATOM     18   O  A00 X   1      45.646  25.746  52.6640  0.00  0.00     0.000 OA
ENDBRANCH 5 16
BRANCH 1 19
ATOM     19  O4  A00 X   2      45.773  22.080  54.4250  0.00  0.00     0.000 O
BRANCH 19 23
ATOM     20  C1  A00 X   2      48.144  18.731  55.6610  0.00  0.00     0.000 C
ATOM     21  C2  A00 X   2      46.656  18.468  55.3250  0.00  0.00     0.000 C
ATOM     22  C3  A00 X   2      46.065  19.632  54.5020  0.00  0.00     0.000 C
ATOM     23  C4  A00 X   2      46.287  20.978  55.2260  0.00  0.00     0.000 C
ATOM     24  C5  A00 X   2      47.806  21.113  55.5220  0.00  0.00     0.000 C
ATOM     25  O5  A00 X   2      48.219  20.002  56.3600  0.00  0.00     0.000 O
ATOM     26   O  A00 X   2      44.706  19.309  54.1570  0.00  0.00     0.000 O
ATOM     28  HD  A00 X   2      44.495  19.105  54.9720  0.00  0.00     0.000 HD
BRANCH 21 30
ATOM     28   N  A00 X   2      46.638  17.450  56.3790  0.00  0.00     0.000 N
ATOM     30  HD  A00 X   2      45.934  17.318  55.8920  0.00  0.00     0.000 HD
ATOM     30   O  A00 X   2      45.128  15.781  55.7520  0.00  0.00     0.000 OA
ATOM     31   S  A00 X   2      45.259  16.775  56.7580  0.00  0.00     0.000 S
ATOM     32   O  A00 X   2      45.479  16.272  58.0790  0.00  0.00     0.000 OA
ATOM     33   O  A00 X   2      44.271  17.812  56.7790  0.00  0.00     0.000 OA
ENDBRANCH 21 30
BRANCH 24 34
ATOM     34   C  A00 X   2      48.327  22.475  56.0370  0.00  0.00     0.000 C
ATOM     35   O  A00 X   2      49.927  22.958  59.2720  0.00  0.00     0.000 OA
ATOM     36   O  A00 X   2      48.579  22.436  57.4560  0.00  0.00     0.000 O
ATOM     37   O  A00 X   2      50.671  21.407  57.6480  0.00  0.00     0.000 OA
ATOM     38   S  A00 X   2      50.072  22.687  57.8800  0.00  0.00     0.000 S
ATOM     39   O  A00 X   2      50.537  23.789  57.0920  0.00  0.00     0.000 OA
ENDBRANCH 24 34
BRANCH 20 40
ATOM     40  O4  A00 X   3      48.814  18.838  54.3970  0.00  0.00     0.000 O
BRANCH 40 44
ATOM     41  C1  A00 X   3      51.254  20.541  52.3300  0.00  0.00     0.000 C
ATOM     42  C2  A00 X   3      50.381  19.355  51.8650  0.00  0.00     0.000 C
ATOM     43  C3  A00 X   3      50.469  18.175  52.8670  0.00  0.00     0.000 C
ATOM     44  C4  A00 X   3      50.229  18.559  54.3210  0.00  0.00     0.000 C
ATOM     45  C5  A00 X   3      51.144  19.753  54.7150  0.00  0.00     0.000 C
ATOM     46  O5  A00 X   3      51.037  20.838  53.7370  0.00  0.00     0.000 O
ATOM     47   O  A00 X   3      49.770  16.989  52.4950  0.00  0.00     0.000 O
ATOM     49  HD  A00 X   3      49.584  16.968  53.3410  0.00  0.00     0.000 HD
BRANCH 42 49
ATOM     49   O  A00 X   3      49.028  19.847  51.7460  0.00  0.00     0.000 O
ATOM     50   O  A00 X   3      46.890  18.920  51.1990  0.00  0.00     0.000 OA
ATOM     51   O  A00 X   3      48.780  18.248  49.9460  0.00  0.00     0.000 OA
ATOM     52   O  A00 X   3      48.013  20.473  49.7230  0.00  0.00     0.000 OA
ATOM     53   S  A00 X   3      48.110  19.350  50.5910  0.00  0.00     0.000 S
ENDBRANCH 42 49
BRANCH 45 54
ATOM     54   C  A00 X   3      52.589  19.303  54.9610  0.00  0.00     0.000 C
ATOM     55   O  A00 X   3      52.923  18.154  54.7530  0.00  0.00     0.000 OA
ATOM     56   O  A00 X   3      53.429  20.090  55.3700  0.00  0.00     0.000 OA
ENDBRANCH 45 54
BRANCH 41 57
ATOM     57  O4  A00 X   4      52.643  20.353  51.9770  0.00  0.00     0.000 O
BRANCH 57 61
ATOM     58  C1  A00 X   4      55.781  23.085  50.8260  0.00  0.00     0.000 C
ATOM     59  C2  A00 X   4      55.152  23.230  52.2350  0.00  0.00     0.000 C
ATOM     60  C3  A00 X   4      54.319  22.005  52.6640  0.00  0.00     0.000 C
ATOM     61  C4  A00 X   4      53.342  21.558  51.5550  0.00  0.00     0.000 C
ATOM     62  C5  A00 X   4      54.208  21.265  50.3040  0.00  0.00     0.000 C
ATOM     63  O5  A00 X   4      54.864  22.488  49.8820  0.00  0.00     0.000 O
BRANCH 59 66
ATOM     64   N  A00 X   4      54.218  24.370  52.2460  0.00  0.00     0.000 N
ATOM     66  HD  A00 X   4      53.839  24.585  51.4980  0.00  0.00     0.000 HD
ATOM     66   O  A00 X   4      56.127  25.800  52.5800  0.00  0.00     0.000 OA
ATOM     67   S  A00 X   4      54.725  25.758  52.8590  0.00  0.00     0.000 S
ATOM     68   O  A00 X   4      53.919  26.680  52.1130  0.00  0.00     0.000 OA
ATOM     69   O  A00 X   4      54.320  25.595  54.2260  0.00  0.00     0.000 OA
ENDBRANCH 59 66
BRANCH 62 70
ATOM     70   C  A00 X   4      53.414  20.694  49.1060  0.00  0.00     0.000 C
ATOM     71   O  A00 X   4      50.984  22.360  47.0020  0.00  0.00     0.000 OA
ATOM     72   O  A00 X   4      50.886  20.285  48.1120  0.00  0.00     0.000 OA
ATOM     73   O  A00 X   4      52.755  21.769  48.4170  0.00  0.00     0.000 O
ATOM     74   O  A00 X   4      50.626  22.346  49.3870  0.00  0.00     0.000 OA
ATOM     75   S  A00 X   4      51.197  21.690  48.2540  0.00  0.00     0.000 S
ENDBRANCH 62 70
ENDBRANCH 57 61
ENDBRANCH 41 57
ENDBRANCH 40 44
ENDBRANCH 20 40
ENDBRANCH 19 23
ENDBRANCH 1 19
TORSDOF 14
ENDMDL
MODEL 59
REMARK VINA RESULT:      -0.2     71.493     75.885
ROOT
ATOM      1  C1  A00 X   1      23.537  51.886  64.6420  0.00  0.00     0.000 C
ATOM      2  C2  A00 X   1      22.312  51.196  65.2990  0.00  0.00     0.000 C
ATOM      3  C3  A00 X   1      22.578  49.802  65.9570  0.00  0.00     0.000 C
ATOM      4  C4  A00 X   1      23.913  49.121  65.5610  0.00  0.00     0.000 C
ATOM      5  C5  A00 X   1      24.455  49.642  64.2300  0.00  0.00     0.000 C
ATOM      6  O5  A00 X   1      24.705  51.047  64.4610  0.00  0.00     0.000 O
ATOM      7   O  A00 X   1      21.537  48.908  65.5710  0.00  0.00     0.000 O
ATOM      9  HD  A00 X   1      22.280  48.465  65.5350  0.00  0.00     0.000 HD
ATOM      9   O  A00 X   1      24.901  49.278  66.5790  0.00  0.00     0.000 O
ATOM     11  HD  A00 X   1      25.645  48.835  66.5430  0.00  0.00     0.000 HD
ENDROOT
BRANCH 2 11
ATOM     11   O  A00 X   1      21.786  52.093  66.2970  0.00  0.00     0.000 O
ATOM     12   O  A00 X   1      19.804  51.577  67.5510  0.00  0.00     0.000 OA
ATOM     13   O  A00 X   1      19.642  51.888  65.1430  0.00  0.00     0.000 OA
ATOM     14   O  A00 X   1      20.141  53.729  66.5650  0.00  0.00     0.000 OA
ATOM     15   S  A00 X   1      20.235  52.305  66.3840  0.00  0.00     0.000 S
ENDBRANCH 2 11
BRANCH 5 16
ATOM     16   C  A00 X   1      23.562  49.369  63.0150  0.00  0.00     0.000 C
ATOM     17   O  A00 X   1      23.834  49.907  61.9620  0.00  0.00     0.000 OA
ATOM     18   O  A00 X   1      22.599  48.631  63.0670  0.00  0.00     0.000 OA
ENDBRANCH 5 16
BRANCH 1 19
ATOM     19  O4  A00 X   2      23.198  52.590  63.4230  0.00  0.00     0.000 O
BRANCH 19 23
ATOM     20  C1  A00 X   2      25.926  55.811  64.1640  0.00  0.00     0.000 C
ATOM     21  C2  A00 X   2      24.440  56.034  64.5340  0.00  0.00     0.000 C
ATOM     22  C3  A00 X   2      23.688  54.690  64.6230  0.00  0.00     0.000 C
ATOM     23  C4  A00 X   2      23.866  53.880  63.3180  0.00  0.00     0.000 C
ATOM     24  C5  A00 X   2      25.390  53.743  63.0490  0.00  0.00     0.000 C
ATOM     25  O5  A00 X   2      25.962  55.070  62.9150  0.00  0.00     0.000 O
ATOM     26   O  A00 X   2      22.334  54.944  65.0350  0.00  0.00     0.000 O
ATOM     28  HD  A00 X   2      22.213  55.555  64.4340  0.00  0.00     0.000 HD
BRANCH 21 30
ATOM     28   N  A00 X   2      24.593  57.441  64.1500  0.00  0.00     0.000 N
ATOM     30  HD  A00 X   2      23.863  57.386  64.6120  0.00  0.00     0.000 HD
ATOM     30   O  A00 X   2      23.173  58.721  65.4920  0.00  0.00     0.000 OA
ATOM     31   S  A00 X   2      23.311  58.365  64.1240  0.00  0.00     0.000 S
ATOM     32   O  A00 X   2      23.684  59.438  63.2550  0.00  0.00     0.000 OA
ATOM     33   O  A00 X   2      22.249  57.599  63.5420  0.00  0.00     0.000 OA
ENDBRANCH 21 30
BRANCH 24 34
ATOM     34   C  A00 X   2      25.845  52.780  61.9270  0.00  0.00     0.000 C
ATOM     35   O  A00 X   2      24.825  53.079  58.4450  0.00  0.00     0.000 OA
ATOM     36   O  A00 X   2      25.022  52.921  60.7520  0.00  0.00     0.000 O
ATOM     37   O  A00 X   2      25.875  54.810  59.6670  0.00  0.00     0.000 OA
ATOM     38   S  A00 X   2      25.777  53.397  59.4580  0.00  0.00     0.000 S
ATOM     39   O  A00 X   2      26.996  52.649  59.4020  0.00  0.00     0.000 OA
ENDBRANCH 24 34
BRANCH 20 40
ATOM     40  O4  A00 X   3      26.471  55.004  65.2170  0.00  0.00     0.000 O
BRANCH 40 44
ATOM     41  C1  A00 X   3      28.560  52.207  66.1870  0.00  0.00     0.000 C
ATOM     42  C2  A00 X   3      27.761  53.092  67.1690  0.00  0.00     0.000 C
ATOM     43  C3  A00 X   3      28.042  54.595  66.9150  0.00  0.00     0.000 C
ATOM     44  C4  A00 X   3      27.894  55.031  65.4630  0.00  0.00     0.000 C
ATOM     45  C5  A00 X   3      28.728  54.099  64.5400  0.00  0.00     0.000 C
ATOM     46  O5  A00 X   3      28.439  52.691  64.8210  0.00  0.00     0.000 O
ATOM     47   O  A00 X   3      27.424  55.506  67.8220  0.00  0.00     0.000 O
ATOM     49  HD  A00 X   3      27.314  55.974  67.1020  0.00  0.00     0.000 HD
BRANCH 42 49
ATOM     49   O  A00 X   3      26.364  52.776  66.9820  0.00  0.00     0.000 O
ATOM     50   O  A00 X   3      24.280  53.551  67.8690  0.00  0.00     0.000 OA
ATOM     51   O  A00 X   3      26.108  53.260  69.3400  0.00  0.00     0.000 OA
ATOM     52   O  A00 X   3      25.126  51.342  68.3690  0.00  0.00     0.000 OA
ATOM     53   S  A00 X   3      25.399  52.728  68.2030  0.00  0.00     0.000 S
ENDBRANCH 42 49
BRANCH 45 54
ATOM     54   C  A00 X   3      30.223  54.431  64.6000  0.00  0.00     0.000 C
ATOM     55   O  A00 X   3      30.649  55.224  65.4140  0.00  0.00     0.000 OA
ATOM     56   O  A00 X   3      31.012  53.906  63.8290  0.00  0.00     0.000 OA
ENDBRANCH 45 54
BRANCH 41 57
ATOM     57  O4  A00 X   4      29.924  52.020  66.6250  0.00  0.00     0.000 O
BRANCH 57 61
ATOM     58  C1  A00 X   4      32.695  48.726  66.2910  0.00  0.00     0.000 C
ATOM     59  C2  A00 X   4      32.176  49.393  64.9930  0.00  0.00     0.000 C
ATOM     60  C3  A00 X   4      31.497  50.757  65.2310  0.00  0.00     0.000 C
ATOM     61  C4  A00 X   4      30.474  50.693  66.3860  0.00  0.00     0.000 C
ATOM     62  C5  A00 X   4      31.253  50.204  67.6320  0.00  0.00     0.000 C
ATOM     63  O5  A00 X   4      31.758  48.867  67.3840  0.00  0.00     0.000 O
BRANCH 59 66
ATOM     64   N  A00 X   4      31.148  48.545  64.3630  0.00  0.00     0.000 N
ATOM     66  HD  A00 X   4      30.684  48.029  64.8810  0.00  0.00     0.000 HD
ATOM     66   O  A00 X   4      32.941  47.257  63.4020  0.00  0.00     0.000 OA
ATOM     67   S  A00 X   4      31.581  47.612  63.1390  0.00  0.00     0.000 S
ATOM     68   O  A00 X   4      30.629  46.548  63.2750  0.00  0.00     0.000 OA
ATOM     69   O  A00 X   4      31.320  48.498  62.0400  0.00  0.00     0.000 OA
ENDBRANCH 59 66
BRANCH 62 70
ATOM     70   C  A00 X   4      30.415  50.179  68.9320  0.00  0.00     0.000 C
ATOM     71   O  A00 X   4      27.684  47.974  69.8210  0.00  0.00     0.000 OA
ATOM     72   O  A00 X   4      27.859  50.320  69.9270  0.00  0.00     0.000 OA
ATOM     73   O  A00 X   4      29.611  48.988  68.9570  0.00  0.00     0.000 O
ATOM     74   O  A00 X   4      27.528  49.234  67.7710  0.00  0.00     0.000 OA
ATOM     75   S  A00 X   4      28.058  49.155  69.0940  0.00  0.00     0.000 S
ENDBRANCH 62 70
ENDBRANCH 57 61
ENDBRANCH 41 57
ENDBRANCH 40 44
ENDBRANCH 20 40
ENDBRANCH 19 23
ENDBRANCH 1 19
TORSDOF 14
ENDMDL
MODEL 60
REMARK VINA RESULT:      -0.2     70.778     75.494
ROOT
ATOM      1  C1  A00 X   1      22.225  53.165  62.6530  0.00  0.00     0.000 C
ATOM      2  C2  A00 X   1      21.164  52.227  63.2890  0.00  0.00     0.000 C
ATOM      3  C3  A00 X   1      21.719  50.983  64.0570  0.00  0.00     0.000 C
ATOM      4  C4  A00 X   1      23.205  50.636  63.7830  0.00  0.00     0.000 C
ATOM      5  C5  A00 X   1      23.693  51.202  62.4500  0.00  0.00     0.000 C
ATOM      6  O5  A00 X   1      23.573  52.635  62.5940  0.00  0.00     0.000 O
ATOM      7   O  A00 X   1      20.959  49.837  63.6800  0.00  0.00     0.000 O
ATOM      9  HD  A00 X   1      21.789  49.592  63.7150  0.00  0.00     0.000 HD
ATOM      9   O  A00 X   1      24.050  51.091  64.8390  0.00  0.00     0.000 O
ATOM     11  HD  A00 X   1      24.880  50.846  64.8750  0.00  0.00     0.000 HD
ENDROOT
BRANCH 2 11
ATOM     11   O  A00 X   1      20.365  53.018  64.1910  0.00  0.00     0.000 O
ATOM     12   O  A00 X   1      18.489  52.092  65.3700  0.00  0.00     0.000 OA
ATOM     13   O  A00 X   1      18.424  52.221  62.9410  0.00  0.00     0.000 OA
ATOM     14   O  A00 X   1      18.355  54.202  64.2550  0.00  0.00     0.000 OA
ATOM     15   S  A00 X   1      18.808  52.840  64.1800  0.00  0.00     0.000 S
ENDBRANCH 2 11
BRANCH 5 16
ATOM     16   C  A00 X   1      22.982  50.649  61.2110  0.00  0.00     0.000 C
ATOM     17   O  A00 X   1      23.186  51.179  60.1390  0.00  0.00     0.000 OA
ATOM     18   O  A00 X   1      22.229  49.697  61.2630  0.00  0.00     0.000 OA
ENDBRANCH 5 16
BRANCH 1 19
ATOM     19  O4  A00 X   2      21.809  53.694  61.3700  0.00  0.00     0.000 O
BRANCH 19 23
ATOM     20  C1  A00 X   2      23.602  57.530  62.0290  0.00  0.00     0.000 C
ATOM     21  C2  A00 X   2      22.084  57.394  62.3020  0.00  0.00     0.000 C
ATOM     22  C3  A00 X   2      21.682  55.912  62.4440  0.00  0.00     0.000 C
ATOM     23  C4  A00 X   2      22.145  55.102  61.2110  0.00  0.00     0.000 C
ATOM     24  C5  A00 X   2      23.670  55.336  61.0360  0.00  0.00     0.000 C
ATOM     25  O5  A00 X   2      23.906  56.754  60.8390  0.00  0.00     0.000 O
ATOM     26   O  A00 X   2      20.282  55.842  62.7640  0.00  0.00     0.000 O
ATOM     28  HD  A00 X   2      20.056  56.369  62.1150  0.00  0.00     0.000 HD
BRANCH 21 30
ATOM     28   N  A00 X   2      21.914  58.771  61.8280  0.00  0.00     0.000 N
ATOM     30  HD  A00 X   2      21.189  58.561  62.2530  0.00  0.00     0.000 HD
ATOM     30   O  A00 X   2      20.132  59.727  62.9980  0.00  0.00     0.000 OA
ATOM     31   S  A00 X   2      20.449  59.343  61.6680  0.00  0.00     0.000 S
ATOM     32   O  A00 X   2      20.606  60.425  60.7470  0.00  0.00     0.000 OA
ATOM     33   O  A00 X   2      19.651  58.305  61.0850  0.00  0.00     0.000 OA
ENDBRANCH 21 30
BRANCH 24 34
ATOM     34   C  A00 X   2      24.425  54.457  60.0100  0.00  0.00     0.000 C
ATOM     35   O  A00 X   2      23.610  54.300  56.4650  0.00  0.00     0.000 OA
ATOM     36   O  A00 X   2      23.677  54.323  58.7860  0.00  0.00     0.000 O
ATOM     37   O  A00 X   2      24.113  56.302  57.6180  0.00  0.00     0.000 OA
ATOM     38   S  A00 X   2      24.381  54.901  57.5030  0.00  0.00     0.000 S
ATOM     39   O  A00 X   2      25.748  54.479  57.5660  0.00  0.00     0.000 OA
ENDBRANCH 24 34
BRANCH 20 40
ATOM     40  O4  A00 X   3      24.254  56.943  63.1640  0.00  0.00     0.000 O
BRANCH 40 44
ATOM     41  C1  A00 X   3      26.894  54.815  64.4410  0.00  0.00     0.000 C
ATOM     42  C2  A00 X   3      25.836  55.525  65.3130  0.00  0.00     0.000 C
ATOM     43  C3  A00 X   3      25.755  57.034  64.9700  0.00  0.00     0.000 C
ATOM     44  C4  A00 X   3      25.606  57.339  63.4850  0.00  0.00     0.000 C
ATOM     45  C5  A00 X   3      26.706  56.596  62.6760  0.00  0.00     0.000 C
ATOM     46  O5  A00 X   3      26.753  55.178  63.0390  0.00  0.00     0.000 O
ATOM     47   O  A00 X   3      24.869  57.810  65.7760  0.00  0.00     0.000 O
ATOM     49  HD  A00 X   3      24.699  58.195  65.0190  0.00  0.00     0.000 HD
BRANCH 42 49
ATOM     49   O  A00 X   3      24.575  54.860  65.0740  0.00  0.00     0.000 O
ATOM     50   O  A00 X   3      22.308  55.137  65.7900  0.00  0.00     0.000 OA
ATOM     51   O  A00 X   3      24.044  55.393  67.3740  0.00  0.00     0.000 OA
ATOM     52   O  A00 X   3      23.635  53.240  66.4890  0.00  0.00     0.000 OA
ATOM     53   S  A00 X   3      23.569  54.639  66.2410  0.00  0.00     0.000 S
ENDBRANCH 42 49
BRANCH 45 54
ATOM     54   C  A00 X   3      28.066  57.294  62.7930  0.00  0.00     0.000 C
ATOM     55   O  A00 X   3      28.225  58.212  63.5710  0.00  0.00     0.000 OA
ATOM     56   O  A00 X   3      29.011  56.942  62.1040  0.00  0.00     0.000 OA
ENDBRANCH 45 54
BRANCH 41 57
ATOM     57  O4  A00 X   4      28.228  55.000  64.9640  0.00  0.00     0.000 O
BRANCH 57 61
ATOM     58  C1  A00 X   4      31.740  52.489  65.0130  0.00  0.00     0.000 C
ATOM     59  C2  A00 X   4      31.166  52.934  63.6450  0.00  0.00     0.000 C
ATOM     60  C3  A00 X   4      30.156  54.095  63.7500  0.00  0.00     0.000 C
ATOM     61  C4  A00 X   4      29.103  53.841  64.8490  0.00  0.00     0.000 C
ATOM     62  C5  A00 X   4      29.889  53.631  66.1670  0.00  0.00     0.000 C
ATOM     63  O5  A00 X   4      30.724  52.451  66.0410  0.00  0.00     0.000 O
BRANCH 59 66
ATOM     64   N  A00 X   4      30.424  51.822  63.0220  0.00  0.00     0.000 N
ATOM     66  HD  A00 X   4      30.066  51.236  63.5490  0.00  0.00     0.000 HD
ATOM     66   O  A00 X   4      32.542  50.973  62.2520  0.00  0.00     0.000 OA
ATOM     67   S  A00 X   4      31.158  50.961  61.8920  0.00  0.00     0.000 S
ATOM     68   O  A00 X   4      30.490  49.702  62.0510  0.00  0.00     0.000 OA
ATOM     69   O  A00 X   4      30.765  51.692  60.7210  0.00  0.00     0.000 OA
ENDBRANCH 59 66
BRANCH 62 70
ATOM     70   C  A00 X   4      28.994  53.469  67.4180  0.00  0.00     0.000 C
ATOM     71   O  A00 X   4      26.835  50.704  68.3110  0.00  0.00     0.000 OA
ATOM     72   O  A00 X   4      26.419  53.021  68.2610  0.00  0.00     0.000 OA
ATOM     73   O  A00 X   4      28.508  52.118  67.4830  0.00  0.00     0.000 O
ATOM     74   O  A00 X   4      26.517  51.770  66.1720  0.00  0.00     0.000 OA
ATOM     75   S  A00 X   4      26.956  51.898  67.5240  0.00  0.00     0.000 S
ENDBRANCH 62 70
ENDBRANCH 57 61
ENDBRANCH 41 57
ENDBRANCH 40 44
ENDBRANCH 20 40
ENDBRANCH 19 23
ENDBRANCH 1 19
TORSDOF 14
ENDMDL
MODEL 61
REMARK VINA RESULT:      -0.2     64.995     70.058
ROOT
ATOM      1  C1  A00 X   1      58.947  47.427  41.0450  0.00  0.00     0.000 C
ATOM      2  C2  A00 X   1      59.554  47.124  39.6490  0.00  0.00     0.000 C
ATOM      3  C3  A00 X   1      58.546  46.657  38.5480  0.00  0.00     0.000 C
ATOM      4  C4  A00 X   1      57.156  46.204  39.0630  0.00  0.00     0.000 C
ATOM      5  C5  A00 X   1      57.194  45.781  40.5310  0.00  0.00     0.000 C
ATOM      6  O5  A00 X   1      57.586  46.974  41.2470  0.00  0.00     0.000 O
ATOM      7   O  A00 X   1      59.105  45.541  37.8590  0.00  0.00     0.000 O
ATOM      9  HD  A00 X   1      58.265  45.371  37.9810  0.00  0.00     0.000 HD
ATOM      9   O  A00 X   1      56.174  47.225  38.8810  0.00  0.00     0.000 O
ATOM     11  HD  A00 X   1      55.334  47.054  39.0030  0.00  0.00     0.000 HD
ENDROOT
BRANCH 2 11
ATOM     11   O  A00 X   1      60.227  48.315  39.1950  0.00  0.00     0.000 O
ATOM     12   O  A00 X   1      61.460  48.370  37.1350  0.00  0.00     0.000 OA
ATOM     13   O  A00 X   1      62.215  46.919  38.9360  0.00  0.00     0.000 OA
ATOM     14   O  A00 X   1      62.351  49.284  39.1570  0.00  0.00     0.000 OA
ATOM     15   S  A00 X   1      61.650  48.183  38.5520  0.00  0.00     0.000 S
ENDBRANCH 2 11
BRANCH 5 16
ATOM     16   C  A00 X   1      58.079  44.567  40.8320  0.00  0.00     0.000 C
ATOM     17   O  A00 X   1      58.318  44.295  41.9910  0.00  0.00     0.000 OA
ATOM     18   O  A00 X   1      58.543  43.865  39.9560  0.00  0.00     0.000 OA
ENDBRANCH 5 16
BRANCH 1 19
ATOM     19  O4  A00 X   2      59.809  47.014  42.1330  0.00  0.00     0.000 O
BRANCH 19 23
ATOM     20  C1  A00 X   2      58.808  50.368  44.6050  0.00  0.00     0.000 C
ATOM     21  C2  A00 X   2      60.119  50.451  43.7850  0.00  0.00     0.000 C
ATOM     22  C3  A00 X   2      60.123  49.406  42.6500  0.00  0.00     0.000 C
ATOM     23  C4  A00 X   2      59.855  47.991  43.2120  0.00  0.00     0.000 C
ATOM     24  C5  A00 X   2      58.532  48.046  44.0240  0.00  0.00     0.000 C
ATOM     25  O5  A00 X   2      58.683  49.008  45.1000  0.00  0.00     0.000 O
ATOM     26   O  A00 X   2      61.325  49.568  41.8780  0.00  0.00     0.000 O
ATOM     28  HD  A00 X   2      61.835  49.559  42.5780  0.00  0.00     0.000 HD
BRANCH 21 30
ATOM     28   N  A00 X   2      60.717  51.208  44.8890  0.00  0.00     0.000 N
ATOM     30  HD  A00 X   2      61.229  51.323  44.2000  0.00  0.00     0.000 HD
ATOM     30   O  A00 X   2      62.269  52.704  43.9880  0.00  0.00     0.000 OA
ATOM     31   S  A00 X   2      62.258  51.555  44.8230  0.00  0.00     0.000 S
ATOM     32   O  A00 X   2      62.609  51.798  46.1880  0.00  0.00     0.000 OA
ATOM     33   O  A00 X   2      62.934  50.391  44.3350  0.00  0.00     0.000 OA
ENDBRANCH 21 30
BRANCH 24 34
ATOM     34   C  A00 X   2      57.917  46.709  44.5010  0.00  0.00     0.000 C
ATOM     35   O  A00 X   2      57.483  45.795  47.9980  0.00  0.00     0.000 OA
ATOM     36   O  A00 X   2      58.194  46.475  45.8960  0.00  0.00     0.000 O
ATOM     37   O  A00 X   2      56.608  47.767  47.0300  0.00  0.00     0.000 OA
ATOM     38   S  A00 X   2      56.929  46.387  46.8250  0.00  0.00     0.000 S
ATOM     39   O  A00 X   2      55.972  45.579  46.1320  0.00  0.00     0.000 OA
ENDBRANCH 24 34
BRANCH 20 40
ATOM     40  O4  A00 X   3      57.751  50.639  43.6740  0.00  0.00     0.000 O
BRANCH 40 44
ATOM     41  C1  A00 X   3      54.454  49.792  42.4330  0.00  0.00     0.000 C
ATOM     42  C2  A00 X   3      55.354  50.905  41.8530  0.00  0.00     0.000 C
ATOM     43  C3  A00 X   3      55.862  51.849  42.9730  0.00  0.00     0.000 C
ATOM     44  C4  A00 X   3      56.487  51.136  44.1660  0.00  0.00     0.000 C
ATOM     45  C5  A00 X   3      55.523  50.038  44.6950  0.00  0.00     0.000 C
ATOM     46  O5  A00 X   3      55.060  49.178  43.6030  0.00  0.00     0.000 O
ATOM     47   O  A00 X   3      56.634  52.968  42.5430  0.00  0.00     0.000 O
ATOM     49  HD  A00 X   3      57.092  52.783  43.2540  0.00  0.00     0.000 HD
BRANCH 42 49
ATOM     49   O  A00 X   3      56.450  50.253  41.1750  0.00  0.00     0.000 O
ATOM     50   O  A00 X   3      58.422  50.943  40.0070  0.00  0.00     0.000 OA
ATOM     51   O  A00 X   3      56.409  52.130  39.6480  0.00  0.00     0.000 OA
ATOM     52   O  A00 X   3      56.565  49.909  38.8550  0.00  0.00     0.000 OA
ATOM     53   S  A00 X   3      57.007  50.832  39.8420  0.00  0.00     0.000 S
ENDBRANCH 42 49
BRANCH 45 54
ATOM     54   C  A00 X   3      54.376  50.638  45.5170  0.00  0.00     0.000 C
ATOM     55   O  A00 X   3      53.642  49.923  46.1700  0.00  0.00     0.000 OA
ATOM     56   O  A00 X   3      54.179  51.843  45.5300  0.00  0.00     0.000 OA
ENDBRANCH 45 54
BRANCH 41 57
ATOM     57  O4  A00 X   4      53.103  50.257  42.6470  0.00  0.00     0.000 O
BRANCH 57 61
ATOM     58  C1  A00 X   4      49.254  48.316  42.3910  0.00  0.00     0.000 C
ATOM     59  C2  A00 X   4      50.282  47.792  43.4260  0.00  0.00     0.000 C
ATOM     60  C3  A00 X   4      51.452  48.764  43.6770  0.00  0.00     0.000 C
ATOM     61  C4  A00 X   4      52.061  49.282  42.3560  0.00  0.00     0.000 C
ATOM     62  C5  A00 X   4      50.903  49.952  41.5750  0.00  0.00     0.000 C
ATOM     63  O5  A00 X   4      49.897  48.954  41.2640  0.00  0.00     0.000 O
BRANCH 59 66
ATOM     64   N  A00 X   4      51.036  46.528  43.3460  0.00  0.00     0.000 N
ATOM     66  HD  A00 X   4      51.337  46.291  42.5690  0.00  0.00     0.000 HD
ATOM     66   O  A00 X   4      48.960  45.379  43.7510  0.00  0.00     0.000 OA
ATOM     67   S  A00 X   4      50.365  45.206  43.9460  0.00  0.00     0.000 S
ATOM     68   O  A00 X   4      50.984  44.207  43.1240  0.00  0.00     0.000 OA
ATOM     69   O  A00 X   4      50.867  45.255  45.2900  0.00  0.00     0.000 OA
ENDBRANCH 59 66
BRANCH 62 70
ATOM     70   C  A00 X   4      51.341  50.635  40.2570  0.00  0.00     0.000 C
ATOM     71   O  A00 X   4      52.493  49.099  37.1880  0.00  0.00     0.000 OA
ATOM     72   O  A00 X   4      53.401  50.864  38.4560  0.00  0.00     0.000 OA
ATOM     73   O  A00 X   4      51.481  49.640  39.2300  0.00  0.00     0.000 O
ATOM     74   O  A00 X   4      53.639  48.569  39.2420  0.00  0.00     0.000 OA
ATOM     75   S  A00 X   4      52.868  49.520  38.5090  0.00  0.00     0.000 S
ENDBRANCH 62 70
ENDBRANCH 57 61
ENDBRANCH 41 57
ENDBRANCH 40 44
ENDBRANCH 20 40
ENDBRANCH 19 23
ENDBRANCH 1 19
TORSDOF 14
ENDMDL
MODEL 62
REMARK VINA RESULT:      -0.2     71.205     76.598
ROOT
ATOM      1  C1  A00 X   1      38.785  60.603  50.3870  0.00  0.00     0.000 C
ATOM      2  C2  A00 X   1      37.864  59.398  50.7140  0.00  0.00     0.000 C
ATOM      3  C3  A00 X   1      36.900  59.580  51.9330  0.00  0.00     0.000 C
ATOM      4  C4  A00 X   1      37.231  60.765  52.8750  0.00  0.00     0.000 C
ATOM      5  C5  A00 X   1      38.695  61.193  52.7730  0.00  0.00     0.000 C
ATOM      6  O5  A00 X   1      38.854  61.632  51.4050  0.00  0.00     0.000 O
ATOM      7   O  A00 X   1      36.948  58.401  52.7330  0.00  0.00     0.000 O
ATOM      9  HD  A00 X   1      36.938  59.076  53.2740  0.00  0.00     0.000 HD
ATOM      9   O  A00 X   1      36.383  61.885  52.6240  0.00  0.00     0.000 O
ATOM     11  HD  A00 X   1      36.373  62.561  53.1650  0.00  0.00     0.000 HD
ENDROOT
BRANCH 2 11
ATOM     11   O  A00 X   1      37.083  59.111  49.5370  0.00  0.00     0.000 O
ATOM     12   O  A00 X   1      35.578  57.242  49.4360  0.00  0.00     0.000 OA
ATOM     13   O  A00 X   1      37.964  56.837  49.6840  0.00  0.00     0.000 OA
ATOM     14   O  A00 X   1      37.097  57.728  47.6560  0.00  0.00     0.000 OA
ATOM     15   S  A00 X   1      36.922  57.620  49.0790  0.00  0.00     0.000 S
ENDBRANCH 2 11
BRANCH 5 16
ATOM     16   C  A00 X   1      39.713  60.129  53.1960  0.00  0.00     0.000 C
ATOM     17   O  A00 X   1      40.887  60.321  52.9590  0.00  0.00     0.000 OA
ATOM     18   O  A00 X   1      39.387  59.106  53.7660  0.00  0.00     0.000 OA
ENDBRANCH 5 16
BRANCH 1 19
ATOM     19  O4  A00 X   2      40.106  60.199  49.9540  0.00  0.00     0.000 O
BRANCH 19 23
ATOM     20  C1  A00 X   2      40.467  63.357  47.0800  0.00  0.00     0.000 C
ATOM     21  C2  A00 X   2      40.025  61.967  46.5620  0.00  0.00     0.000 C
ATOM     22  C3  A00 X   2      39.528  61.081  47.7230  0.00  0.00     0.000 C
ATOM     23  C4  A00 X   2      40.597  60.994  48.8370  0.00  0.00     0.000 C
ATOM     24  C5  A00 X   2      40.966  62.444  49.2540  0.00  0.00     0.000 C
ATOM     25  O5  A00 X   2      41.485  63.146  48.0940  0.00  0.00     0.000 O
ATOM     26   O  A00 X   2      39.067  59.830  47.1840  0.00  0.00     0.000 O
ATOM     28  HD  A00 X   2      39.789  59.705  46.7230  0.00  0.00     0.000 HD
BRANCH 21 30
ATOM     28   N  A00 X   2      40.764  62.235  45.3250  0.00  0.00     0.000 N
ATOM     30  HD  A00 X   2      40.237  61.568  45.1620  0.00  0.00     0.000 HD
ATOM     30   O  A00 X   2      39.661  61.156  43.5700  0.00  0.00     0.000 OA
ATOM     31   S  A00 X   2      40.901  61.078  44.2570  0.00  0.00     0.000 S
ATOM     32   O  A00 X   2      42.044  61.462  43.4870  0.00  0.00     0.000 OA
ATOM     33   O  A00 X   2      41.170  59.868  44.9760  0.00  0.00     0.000 OA
ENDBRANCH 21 30
BRANCH 24 34
ATOM     34   C  A00 X   2      41.846  62.636  50.5110  0.00  0.00     0.000 C
ATOM     35   O  A00 X   2      45.150  64.165  50.4750  0.00  0.00     0.000 OA
ATOM     36   O  A00 X   2      43.211  62.931  50.1530  0.00  0.00     0.000 O
ATOM     37   O  A00 X   2      43.200  65.213  49.6440  0.00  0.00     0.000 OA
ATOM     38   S  A00 X   2      43.743  64.331  50.6320  0.00  0.00     0.000 S
ATOM     39   O  A00 X   2      43.297  64.494  51.9830  0.00  0.00     0.000 OA
ENDBRANCH 24 34
BRANCH 20 40
ATOM     40  O4  A00 X   3      39.300  63.935  47.6840  0.00  0.00     0.000 O
BRANCH 40 44
ATOM     41  C1  A00 X   3      37.821  65.804  50.4120  0.00  0.00     0.000 C
ATOM     42  C2  A00 X   3      37.038  65.236  49.2080  0.00  0.00     0.000 C
ATOM     43  C3  A00 X   3      37.703  65.648  47.8690  0.00  0.00     0.000 C
ATOM     44  C4  A00 X   3      39.199  65.371  47.7940  0.00  0.00     0.000 C
ATOM     45  C5  A00 X   3      39.916  65.976  49.0340  0.00  0.00     0.000 C
ATOM     46  O5  A00 X   3      39.249  65.570  50.2730  0.00  0.00     0.000 O
ATOM     47   O  A00 X   3      37.016  65.250  46.6840  0.00  0.00     0.000 O
ATOM     49  HD  A00 X   3      37.821  65.106  46.4010  0.00  0.00     0.000 HD
BRANCH 42 49
ATOM     49   O  A00 X   3      37.008  63.800  49.3630  0.00  0.00     0.000 O
ATOM     50   O  A00 X   3      36.150  61.941  48.1220  0.00  0.00     0.000 OA
ATOM     51   O  A00 X   3      34.832  63.895  48.3080  0.00  0.00     0.000 OA
ATOM     52   O  A00 X   3      35.198  62.594  50.2470  0.00  0.00     0.000 OA
ATOM     53   S  A00 X   3      35.729  62.995  48.9900  0.00  0.00     0.000 S
ENDBRANCH 42 49
BRANCH 45 54
ATOM     54   C  A00 X   3      40.081  67.496  48.9080  0.00  0.00     0.000 C
ATOM     55   O  A00 X   3      40.865  68.094  49.6160  0.00  0.00     0.000 OA
ATOM     56   O  A00 X   3      39.428  68.130  48.0940  0.00  0.00     0.000 OA
ENDBRANCH 45 54
BRANCH 41 57
ATOM     57  O4  A00 X   4      37.474  67.183  50.6710  0.00  0.00     0.000 O
BRANCH 57 61
ATOM     58  C1  A00 X   4      37.317  69.547  54.2800  0.00  0.00     0.000 C
ATOM     59  C2  A00 X   4      38.679  68.953  53.8410  0.00  0.00     0.000 C
ATOM     60  C3  A00 X   4      38.688  68.448  52.3840  0.00  0.00     0.000 C
ATOM     61  C4  A00 X   4      37.461  67.564  52.0760  0.00  0.00     0.000 C
ATOM     62  C5  A00 X   4      36.213  68.428  52.3860  0.00  0.00     0.000 C
ATOM     63  O5  A00 X   4      36.203  68.762  53.7970  0.00  0.00     0.000 O
BRANCH 59 66
ATOM     64   N  A00 X   4      39.023  67.778  54.6610  0.00  0.00     0.000 N
ATOM     66  HD  A00 X   4      38.370  67.317  54.9940  0.00  0.00     0.000 HD
ATOM     66   O  A00 X   4      39.818  69.308  56.3420  0.00  0.00     0.000 OA
ATOM     67   S  A00 X   4      40.043  67.975  55.8770  0.00  0.00     0.000 S
ATOM     68   O  A00 X   4      39.602  66.933  56.7570  0.00  0.00     0.000 OA
ATOM     69   O  A00 X   4      41.285  67.699  55.2130  0.00  0.00     0.000 OA
ENDBRANCH 59 66
BRANCH 62 70
ATOM     70   C  A00 X   4      34.869  67.746  52.0320  0.00  0.00     0.000 C
ATOM     71   O  A00 X   4      33.299  64.890  53.6060  0.00  0.00     0.000 OA
ATOM     72   O  A00 X   4      33.709  65.357  51.3350  0.00  0.00     0.000 OA
ATOM     73   O  A00 X   4      34.523  66.813  53.0680  0.00  0.00     0.000 O
ATOM     74   O  A00 X   4      35.548  64.653  52.7710  0.00  0.00     0.000 OA
ATOM     75   S  A00 X   4      34.290  65.317  52.6590  0.00  0.00     0.000 S
ENDBRANCH 62 70
ENDBRANCH 57 61
ENDBRANCH 41 57
ENDBRANCH 40 44
ENDBRANCH 20 40
ENDBRANCH 19 23
ENDBRANCH 1 19
TORSDOF 14
ENDMDL
MODEL 63
REMARK VINA RESULT:      -0.2     61.161     66.570
ROOT
ATOM      1  C1  A00 X   1      35.529  35.785  60.6070  0.00  0.00     0.000 C
ATOM      2  C2  A00 X   1      37.016  35.511  60.2580  0.00  0.00     0.000 C
ATOM      3  C3  A00 X   1      38.020  35.541  61.4570  0.00  0.00     0.000 C
ATOM      4  C4  A00 X   1      37.487  36.191  62.7600  0.00  0.00     0.000 C
ATOM      5  C5  A00 X   1      36.325  37.148  62.4930  0.00  0.00     0.000 C
ATOM      6  O5  A00 X   1      35.285  36.315  61.9330  0.00  0.00     0.000 O
ATOM      7   O  A00 X   1      39.171  36.290  61.0730  0.00  0.00     0.000 O
ATOM      9  HD  A00 X   1      38.980  36.515  61.8870  0.00  0.00     0.000 HD
ATOM      9   O  A00 X   1      37.090  35.204  63.7110  0.00  0.00     0.000 O
ATOM     11  HD  A00 X   1      36.899  35.429  64.5260  0.00  0.00     0.000 HD
ENDROOT
BRANCH 2 11
ATOM     11   O  A00 X   1      37.086  34.221  59.6190  0.00  0.00     0.000 O
ATOM     12   O  A00 X   1      39.183  33.154  59.1390  0.00  0.00     0.000 OA
ATOM     13   O  A00 X   1      38.635  35.251  58.0350  0.00  0.00     0.000 OA
ATOM     14   O  A00 X   1      37.431  33.266  57.5170  0.00  0.00     0.000 OA
ATOM     15   S  A00 X   1      38.177  33.978  58.5200  0.00  0.00     0.000 S
ENDBRANCH 2 11
BRANCH 5 16
ATOM     16   C  A00 X   1      36.671  38.362  61.6260  0.00  0.00     0.000 C
ATOM     17   O  A00 X   1      35.765  39.038  61.1840  0.00  0.00     0.000 OA
ATOM     18   O  A00 X   1      37.817  38.675  61.3700  0.00  0.00     0.000 OA
ENDBRANCH 5 16
BRANCH 1 19
ATOM     19  O4  A00 X   2      34.850  36.566  59.5930  0.00  0.00     0.000 O
BRANCH 19 23
ATOM     20  C1  A00 X   2      31.210  34.322  59.8710  0.00  0.00     0.000 C
ATOM     21  C2  A00 X   2      32.186  33.960  58.7260  0.00  0.00     0.000 C
ATOM     22  C3  A00 X   2      33.595  34.525  59.0060  0.00  0.00     0.000 C
ATOM     23  C4  A00 X   2      33.527  36.044  59.2790  0.00  0.00     0.000 C
ATOM     24  C5  A00 X   2      32.507  36.275  60.4280  0.00  0.00     0.000 C
ATOM     25  O5  A00 X   2      31.212  35.767  60.0120  0.00  0.00     0.000 O
ATOM     26   O  A00 X   2      34.478  34.106  57.9510  0.00  0.00     0.000 O
ATOM     28  HD  A00 X   2      33.939  34.371  57.3270  0.00  0.00     0.000 HD
BRANCH 21 30
ATOM     28   N  A00 X   2      31.021  33.649  57.8920  0.00  0.00     0.000 N
ATOM     30  HD  A00 X   2      31.711  33.305  57.4970  0.00  0.00     0.000 HD
ATOM     30   O  A00 X   2      31.624  31.952  56.4040  0.00  0.00     0.000 OA
ATOM     31   S  A00 X   2      31.249  33.320  56.3630  0.00  0.00     0.000 S
ATOM     32   O  A00 X   2      29.974  33.579  55.7670  0.00  0.00     0.000 OA
ATOM     33   O  A00 X   2      32.225  34.247  55.8710  0.00  0.00     0.000 OA
ENDBRANCH 21 30
BRANCH 24 34
ATOM     34   C  A00 X   2      32.422  37.688  61.0510  0.00  0.00     0.000 C
ATOM     35   O  A00 X   2      31.539  40.689  59.1880  0.00  0.00     0.000 OA
ATOM     36   O  A00 X   2      32.405  38.708  60.0320  0.00  0.00     0.000 O
ATOM     37   O  A00 X   2      30.187  38.752  59.2900  0.00  0.00     0.000 OA
ATOM     38   S  A00 X   2      31.107  39.594  59.9920  0.00  0.00     0.000 S
ATOM     39   O  A00 X   2      30.799  39.924  61.3520  0.00  0.00     0.000 OA
ENDBRANCH 24 34
BRANCH 20 40
ATOM     40  O4  A00 X   3      31.761  33.723  61.0530  0.00  0.00     0.000 O
BRANCH 40 44
ATOM     41  C1  A00 X   3      32.578  34.055  64.5670  0.00  0.00     0.000 C
ATOM     42  C2  A00 X   3      32.874  32.806  63.7090  0.00  0.00     0.000 C
ATOM     43  C3  A00 X   3      31.606  32.342  62.9480  0.00  0.00     0.000 C
ATOM     44  C4  A00 X   3      30.893  33.444  62.1730  0.00  0.00     0.000 C
ATOM     45  C5  A00 X   3      30.626  34.661  63.1030  0.00  0.00     0.000 C
ATOM     46  O5  A00 X   3      31.847  35.057  63.8090  0.00  0.00     0.000 O
ATOM     47   O  A00 X   3      31.739  31.142  62.1880  0.00  0.00     0.000 O
ATOM     49  HD  A00 X   3      31.243  31.576  61.6260  0.00  0.00     0.000 HD
BRANCH 42 49
ATOM     49   O  A00 X   3      33.936  33.161  62.7970  0.00  0.00     0.000 O
ATOM     50   O  A00 X   3      35.133  32.083  61.0260  0.00  0.00     0.000 OA
ATOM     51   O  A00 X   3      34.653  30.858  62.9900  0.00  0.00     0.000 OA
ATOM     52   O  A00 X   3      36.202  32.637  63.1230  0.00  0.00     0.000 OA
ATOM     53   S  A00 X   3      35.054  32.134  62.4520  0.00  0.00     0.000 S
ENDBRANCH 42 49
BRANCH 45 54
ATOM     54   C  A00 X   3      29.442  34.407  64.0440  0.00  0.00     0.000 C
ATOM     55   O  A00 X   3      29.028  35.289  64.7680  0.00  0.00     0.000 OA
ATOM     56   O  A00 X   3      28.896  33.316  64.0810  0.00  0.00     0.000 OA
ENDBRANCH 45 54
BRANCH 41 57
ATOM     57  O4  A00 X   4      31.959  33.703  65.8250  0.00  0.00     0.000 O
BRANCH 57 61
ATOM     58  C1  A00 X   4      32.200  35.387  69.7930  0.00  0.00     0.000 C
ATOM     59  C2  A00 X   4      31.630  36.263  68.6490  0.00  0.00     0.000 C
ATOM     60  C3  A00 X   4      31.260  35.460  67.3860  0.00  0.00     0.000 C
ATOM     61  C4  A00 X   4      32.390  34.495  66.9680  0.00  0.00     0.000 C
ATOM     62  C5  A00 X   4      32.652  33.577  68.1880  0.00  0.00     0.000 C
ATOM     63  O5  A00 X   4      33.116  34.383  69.3010  0.00  0.00     0.000 O
BRANCH 59 66
ATOM     64   N  A00 X   4      32.801  37.117  68.3820  0.00  0.00     0.000 N
ATOM     66  HD  A00 X   4      33.576  36.823  68.6320  0.00  0.00     0.000 HD
ATOM     66   O  A00 X   4      31.967  38.618  70.0710  0.00  0.00     0.000 OA
ATOM     67   S  A00 X   4      32.761  38.636  68.8820  0.00  0.00     0.000 S
ATOM     68   O  A00 X   4      34.160  38.880  69.0790  0.00  0.00     0.000 OA
ATOM     69   O  A00 X   4      32.211  39.271  67.7190  0.00  0.00     0.000 OA
ENDBRANCH 59 66
BRANCH 62 70
ATOM     70   C  A00 X   4      33.689  32.458  67.9260  0.00  0.00     0.000 C
ATOM     71   O  A00 X   4      37.264  32.756  67.4380  0.00  0.00     0.000 OA
ATOM     72   O  A00 X   4      35.636  31.600  66.1890  0.00  0.00     0.000 OA
ATOM     73   O  A00 X   4      35.013  33.001  68.0430  0.00  0.00     0.000 O
ATOM     74   O  A00 X   4      35.795  34.025  66.0070  0.00  0.00     0.000 OA
ATOM     75   S  A00 X   4      35.975  32.860  66.8120  0.00  0.00     0.000 S
ENDBRANCH 62 70
ENDBRANCH 57 61
ENDBRANCH 41 57
ENDBRANCH 40 44
ENDBRANCH 20 40
ENDBRANCH 19 23
ENDBRANCH 1 19
TORSDOF 14
ENDMDL
MODEL 64
REMARK VINA RESULT:      -0.2     56.048     61.277
ROOT
ATOM      1  C1  A00 X   1      26.230  40.175  54.7070  0.00  0.00     0.000 C
ATOM      2  C2  A00 X   1      27.102  38.960  55.1230  0.00  0.00     0.000 C
ATOM      3  C3  A00 X   1      27.077  38.585  56.6420  0.00  0.00     0.000 C
ATOM      4  C4  A00 X   1      26.497  39.667  57.5890  0.00  0.00     0.000 C
ATOM      5  C5  A00 X   1      26.562  41.066  56.9750  0.00  0.00     0.000 C
ATOM      6  O5  A00 X   1      25.729  40.989  55.7970  0.00  0.00     0.000 O
ATOM      7   O  A00 X   1      28.414  38.343  57.0750  0.00  0.00     0.000 O
ATOM      9  HD  A00 X   1      28.020  38.793  57.7010  0.00  0.00     0.000 HD
ATOM      9   O  A00 X   1      25.153  39.367  57.9630  0.00  0.00     0.000 O
ATOM     11  HD  A00 X   1      24.759  39.817  58.5890  0.00  0.00     0.000 HD
ENDROOT
BRANCH 2 11
ATOM     11   O  A00 X   1      26.667  37.824  54.3520  0.00  0.00     0.000 O
ATOM     12   O  A00 X   1      27.497  35.610  54.7740  0.00  0.00     0.000 OA
ATOM     13   O  A00 X   1      29.035  37.333  54.0100  0.00  0.00     0.000 OA
ATOM     14   O  A00 X   1      27.348  36.494  52.5580  0.00  0.00     0.000 OA
ATOM     15   S  A00 X   1      27.725  36.750  53.9220  0.00  0.00     0.000 S
ENDBRANCH 2 11
BRANCH 5 16
ATOM     16   C  A00 X   1      27.976  41.585  56.6940  0.00  0.00     0.000 C
ATOM     17   O  A00 X   1      28.914  41.043  57.2410  0.00  0.00     0.000 OA
ATOM     18   O  A00 X   1      28.191  42.512  55.9390  0.00  0.00     0.000 OA
ENDBRANCH 5 16
BRANCH 1 19
ATOM     19  O4  A00 X   2      26.854  40.989  53.6840  0.00  0.00     0.000 O
BRANCH 19 23
ATOM     20  C1  A00 X   2      23.190  41.687  51.5720  0.00  0.00     0.000 C
ATOM     21  C2  A00 X   2      24.113  40.559  51.0490  0.00  0.00     0.000 C
ATOM     22  C3  A00 X   2      25.138  40.144  52.1260  0.00  0.00     0.000 C
ATOM     23  C4  A00 X   2      25.923  41.375  52.6320  0.00  0.00     0.000 C
ATOM     24  C5  A00 X   2      24.890  42.433  53.1080  0.00  0.00     0.000 C
ATOM     25  O5  A00 X   2      24.038  42.790  51.9890  0.00  0.00     0.000 O
ATOM     26   O  A00 X   2      25.922  39.051  51.6180  0.00  0.00     0.000 O
ATOM     28  HD  A00 X   2      26.103  39.460  50.8760  0.00  0.00     0.000 HD
BRANCH 21 30
ATOM     28   N  A00 X   2      23.688  40.895  49.6870  0.00  0.00     0.000 N
ATOM     30  HD  A00 X   2      24.061  40.114  49.6480  0.00  0.00     0.000 HD
ATOM     30   O  A00 X   2      23.710  38.935  48.4140  0.00  0.00     0.000 OA
ATOM     31   S  A00 X   2      24.399  40.176  48.4720  0.00  0.00     0.000 S
ATOM     32   O  A00 X   2      24.155  41.054  47.3690  0.00  0.00     0.000 OA
ATOM     33   O  A00 X   2      25.799  40.128  48.7690  0.00  0.00     0.000 OA
ENDBRANCH 21 30
BRANCH 24 34
ATOM     34   C  A00 X   2      25.419  43.669  53.8740  0.00  0.00     0.000 C
ATOM     35   O  A00 X   2      25.106  47.095  52.6840  0.00  0.00     0.000 OA
ATOM     36   O  A00 X   2      25.475  44.829  53.0200  0.00  0.00     0.000 O
ATOM     37   O  A00 X   2      23.277  45.625  52.9740  0.00  0.00     0.000 OA
ATOM     38   S  A00 X   2      24.561  46.030  53.4590  0.00  0.00     0.000 S
ATOM     39   O  A00 X   2      24.722  46.166  54.8760  0.00  0.00     0.000 OA
ENDBRANCH 24 34
BRANCH 20 40
ATOM     40  O4  A00 X   3      22.518  41.139  52.7150  0.00  0.00     0.000 O
BRANCH 40 44
ATOM     41  C1  A00 X   3      21.400  41.608  56.1290  0.00  0.00     0.000 C
ATOM     42  C2  A00 X   3      21.214  40.311  55.3120  0.00  0.00     0.000 C
ATOM     43  C3  A00 X   3      20.578  40.611  53.9310  0.00  0.00     0.000 C
ATOM     44  C4  A00 X   3      21.267  41.719  53.1440  0.00  0.00     0.000 C
ATOM     45  C5  A00 X   3      21.413  42.989  54.0290  0.00  0.00     0.000 C
ATOM     46  O5  A00 X   3      22.008  42.657  55.3260  0.00  0.00     0.000 O
ATOM     47   O  A00 X   3      20.279  39.475  53.1220  0.00  0.00     0.000 O
ATOM     49  HD  A00 X   3      20.558  39.994  52.4880  0.00  0.00     0.000 HD
BRANCH 42 49
ATOM     49   O  A00 X   3      22.519  39.707  55.1730  0.00  0.00     0.000 O
ATOM     50   O  A00 X   3      23.429  37.780  54.0830  0.00  0.00     0.000 OA
ATOM     51   O  A00 X   3      21.361  37.582  55.2120  0.00  0.00     0.000 OA
ATOM     52   O  A00 X   3      23.315  37.936  56.4930  0.00  0.00     0.000 OA
ATOM     53   S  A00 X   3      22.681  38.161  55.2400  0.00  0.00     0.000 S
ENDBRANCH 42 49
BRANCH 45 54
ATOM     54   C  A00 X   3      20.089  43.752  54.1500  0.00  0.00     0.000 C
ATOM     55   O  A00 X   3      19.061  43.281  53.7070  0.00  0.00     0.000 OA
ATOM     56   O  A00 X   3      20.044  44.845  54.6930  0.00  0.00     0.000 OA
ENDBRANCH 45 54
BRANCH 41 57
ATOM     57  O4  A00 X   4      20.176  42.005  56.7860  0.00  0.00     0.000 O
BRANCH 57 61
ATOM     58  C1  A00 X   4      19.360  43.956  60.5500  0.00  0.00     0.000 C
ATOM     59  C2  A00 X   4      20.187  44.718  59.4850  0.00  0.00     0.000 C
ATOM     60  C3  A00 X   4      20.109  44.087  58.0790  0.00  0.00     0.000 C
ATOM     61  C4  A00 X   4      20.344  42.562  58.1210  0.00  0.00     0.000 C
ATOM     62  C5  A00 X   4      19.275  41.983  59.0810  0.00  0.00     0.000 C
ATOM     63  O5  A00 X   4      19.486  42.522  60.4110  0.00  0.00     0.000 O
BRANCH 59 66
ATOM     64   N  A00 X   4      21.639  44.811  59.7220  0.00  0.00     0.000 N
ATOM     66  HD  A00 X   4      22.020  44.151  60.1340  0.00  0.00     0.000 HD
ATOM     66   O  A00 X   4      21.165  46.547  61.3220  0.00  0.00     0.000 OA
ATOM     67   S  A00 X   4      22.207  46.123  60.4390  0.00  0.00     0.000 S
ATOM     68   O  A00 X   4      23.374  45.585  61.0760  0.00  0.00     0.000 OA
ATOM     69   O  A00 X   4      22.485  46.939  59.2920  0.00  0.00     0.000 OA
ENDBRANCH 59 66
BRANCH 62 70
ATOM     70   C  A00 X   4      19.278  40.438  59.1720  0.00  0.00     0.000 C
ATOM     71   O  A00 X   4      21.758  38.264  60.6650  0.00  0.00     0.000 OA
ATOM     72   O  A00 X   4      20.717  38.182  58.5540  0.00  0.00     0.000 OA
ATOM     73   O  A00 X   4      20.325  40.016  60.0600  0.00  0.00     0.000 O
ATOM     74   O  A00 X   4      22.466  39.827  58.9710  0.00  0.00     0.000 OA
ATOM     75   S  A00 X   4      21.408  39.029  59.5010  0.00  0.00     0.000 S
ENDBRANCH 62 70
ENDBRANCH 57 61
ENDBRANCH 41 57
ENDBRANCH 40 44
ENDBRANCH 20 40
ENDBRANCH 19 23
ENDBRANCH 1 19
TORSDOF 14
ENDMDL
MODEL 65
REMARK VINA RESULT:      -0.2     28.586     33.279
ROOT
ATOM      1  C1  A00 X   1      34.043  28.012  17.2540  0.00  0.00     0.000 C
ATOM      2  C2  A00 X   1      32.604  27.453  17.0940  0.00  0.00     0.000 C
ATOM      3  C3  A00 X   1      32.286  26.752  15.7310  0.00  0.00     0.000 C
ATOM      4  C4  A00 X   1      33.300  27.021  14.5890  0.00  0.00     0.000 C
ATOM      5  C5  A00 X   1      34.094  28.308  14.8130  0.00  0.00     0.000 C
ATOM      6  O5  A00 X   1      34.827  28.079  16.0370  0.00  0.00     0.000 O
ATOM      7   O  A00 X   1      31.020  27.212  15.2650  0.00  0.00     0.000 O
ATOM      9  HD  A00 X   1      31.547  27.177  14.5790  0.00  0.00     0.000 HD
ATOM      9   O  A00 X   1      34.198  25.924  14.4200  0.00  0.00     0.000 O
ATOM     11  HD  A00 X   1      34.725  25.888  13.7340  0.00  0.00     0.000 HD
ENDROOT
BRANCH 2 11
ATOM     11   O  A00 X   1      32.375  26.518  18.1660  0.00  0.00     0.000 O
ATOM     12   O  A00 X   1      30.400  25.155  18.2630  0.00  0.00     0.000 OA
ATOM     13   O  A00 X   1      30.186  27.573  18.4240  0.00  0.00     0.000 OA
ATOM     14   O  A00 X   1      31.206  26.334  20.1790  0.00  0.00     0.000 OA
ATOM     15   S  A00 X   1      30.933  26.395  18.7690  0.00  0.00     0.000 S
ENDBRANCH 2 11
BRANCH 5 16
ATOM     16   C  A00 X   1      33.256  29.590  14.8310  0.00  0.00     0.000 C
ATOM     17   O  A00 X   1      32.136  29.560  14.3640  0.00  0.00     0.000 OA
ATOM     18   O  A00 X   1      33.670  30.632  15.3000  0.00  0.00     0.000 OA
ENDBRANCH 5 16
BRANCH 1 19
ATOM     19  O4  A00 X   2      34.080  29.267  17.9760  0.00  0.00     0.000 O
BRANCH 19 23
ATOM     20  C1  A00 X   2      37.659  28.286  20.1180  0.00  0.00     0.000 C
ATOM     21  C2  A00 X   2      36.309  28.054  20.8380  0.00  0.00     0.000 C
ATOM     22  C3  A00 X   2      35.144  28.032  19.8270  0.00  0.00     0.000 C
ATOM     23  C4  A00 X   2      35.150  29.313  18.9630  0.00  0.00     0.000 C
ATOM     24  C5  A00 X   2      36.555  29.441  18.3140  0.00  0.00     0.000 C
ATOM     25  O5  A00 X   2      37.550  29.525  19.3670  0.00  0.00     0.000 O
ATOM     26   O  A00 X   2      33.925  27.745  20.5350  0.00  0.00     0.000 O
ATOM     28  HD  A00 X   2      34.068  28.357  21.1310  0.00  0.00     0.000 HD
BRANCH 21 30
ATOM     28   N  A00 X   2      36.960  28.425  22.0990  0.00  0.00     0.000 N
ATOM     30  HD  A00 X   2      36.217  28.032  22.3070  0.00  0.00     0.000 HD
ATOM     30   O  A00 X   2      35.944  27.221  23.8240  0.00  0.00     0.000 OA
ATOM     31   S  A00 X   2      36.070  28.570  23.3980  0.00  0.00     0.000 S
ATOM     32   O  A00 X   2      36.856  29.403  24.2540  0.00  0.00     0.000 OA
ATOM     33   O  A00 X   2      34.867  29.245  23.0140  0.00  0.00     0.000 OA
ENDBRANCH 21 30
BRANCH 24 34
ATOM     34   C  A00 X   2      36.753  30.514  17.2180  0.00  0.00     0.000 C
ATOM     35   O  A00 X   2      36.157  34.072  17.7150  0.00  0.00     0.000 OA
ATOM     36   O  A00 X   2      36.115  31.755  17.5800  0.00  0.00     0.000 O
ATOM     37   O  A00 X   2      37.620  32.778  19.0490  0.00  0.00     0.000 OA
ATOM     38   S  A00 X   2      37.081  32.985  17.7400  0.00  0.00     0.000 S
ATOM     39   O  A00 X   2      37.988  32.934  16.6330  0.00  0.00     0.000 OA
ENDBRANCH 24 34
BRANCH 20 40
ATOM     40  O4  A00 X   3      37.808  27.186  19.2090  0.00  0.00     0.000 O
BRANCH 40 44
ATOM     41  C1  A00 X   3      38.682  26.102  15.8650  0.00  0.00     0.000 C
ATOM     42  C2  A00 X   3      38.189  25.169  16.9910  0.00  0.00     0.000 C
ATOM     43  C3  A00 X   3      39.007  25.387  18.2900  0.00  0.00     0.000 C
ATOM     44  C4  A00 X   3      39.125  26.841  18.7280  0.00  0.00     0.000 C
ATOM     45  C5  A00 X   3      39.630  27.714  17.5450  0.00  0.00     0.000 C
ATOM     46  O5  A00 X   3      38.837  27.469  16.3390  0.00  0.00     0.000 O
ATOM     47   O  A00 X   3      38.697  24.515  19.3760  0.00  0.00     0.000 O
ATOM     49  HD  A00 X   3      38.812  25.237  19.8410  0.00  0.00     0.000 HD
BRANCH 42 49
ATOM     49   O  A00 X   3      36.788  25.455  17.1960  0.00  0.00     0.000 O
ATOM     50   O  A00 X   3      35.068  24.716  18.6880  0.00  0.00     0.000 OA
ATOM     51   O  A00 X   3      36.565  23.120  17.7910  0.00  0.00     0.000 OA
ATOM     52   O  A00 X   3      35.026  24.165  16.3340  0.00  0.00     0.000 OA
ATOM     53   S  A00 X   3      35.791  24.307  17.5240  0.00  0.00     0.000 S
ENDBRANCH 42 49
BRANCH 45 54
ATOM     54   C  A00 X   3      41.138  27.547  17.3190  0.00  0.00     0.000 C
ATOM     55   O  A00 X   3      41.736  28.287  16.5650  0.00  0.00     0.000 OA
ATOM     56   O  A00 X   3      41.762  26.668  17.8930  0.00  0.00     0.000 OA
ENDBRANCH 45 54
BRANCH 41 57
ATOM     57  O4  A00 X   4      39.855  25.573  15.2070  0.00  0.00     0.000 O
BRANCH 57 61
ATOM     58  C1  A00 X   4      41.279  25.761  11.1360  0.00  0.00     0.000 C
ATOM     59  C2  A00 X   4      41.116  27.083  11.9260  0.00  0.00     0.000 C
ATOM     60  C3  A00 X   4      40.955  26.876  13.4460  0.00  0.00     0.000 C
ATOM     61  C4  A00 X   4      39.907  25.789  13.7680  0.00  0.00     0.000 C
ATOM     62  C5  A00 X   4      40.380  24.501  13.0500  0.00  0.00     0.000 C
ATOM     63  O5  A00 X   4      40.388  24.729  11.6170  0.00  0.00     0.000 O
BRANCH 59 66
ATOM     64   N  A00 X   4      39.893  27.782  11.4910  0.00  0.00     0.000 N
ATOM     66  HD  A00 X   4      39.245  27.298  11.1810  0.00  0.00     0.000 HD
ATOM     66   O  A00 X   4      41.165  28.643   9.6360  0.00  0.00     0.000 OA
ATOM     67   S  A00 X   4      40.039  28.985  10.4470  0.00  0.00     0.000 S
ATOM     68   O  A00 X   4      38.764  28.917   9.7950  0.00  0.00     0.000 OA
ATOM     69   O  A00 X   4      40.177  30.090  11.3530  0.00  0.00     0.000 OA
ENDBRANCH 59 66
BRANCH 62 70
ATOM     70   C  A00 X   4      39.509  23.256  13.3440  0.00  0.00     0.000 C
ATOM     71   O  A00 X   4      36.115  22.571  12.2870  0.00  0.00     0.000 OA
ATOM     72   O  A00 X   4      37.119  22.424  14.4120  0.00  0.00     0.000 OA
ATOM     73   O  A00 X   4      38.329  23.298  12.5260  0.00  0.00     0.000 O
ATOM     74   O  A00 X   4      36.556  24.610  13.4950  0.00  0.00     0.000 OA
ATOM     75   S  A00 X   4      36.936  23.257  13.2450  0.00  0.00     0.000 S
ENDBRANCH 62 70
ENDBRANCH 57 61
ENDBRANCH 41 57
ENDBRANCH 40 44
ENDBRANCH 20 40
ENDBRANCH 19 23
ENDBRANCH 1 19
TORSDOF 14
ENDMDL
MODEL 66
REMARK VINA RESULT:      -0.2     28.929     33.687
ROOT
ATOM      1  C1  A00 X   1      34.266  29.066  15.7900  0.00  0.00     0.000 C
ATOM      2  C2  A00 X   1      32.831  28.494  15.6470  0.00  0.00     0.000 C
ATOM      3  C3  A00 X   1      32.455  27.923  14.2390  0.00  0.00     0.000 C
ATOM      4  C4  A00 X   1      33.404  28.324  13.0810  0.00  0.00     0.000 C
ATOM      5  C5  A00 X   1      34.187  29.600  13.3900  0.00  0.00     0.000 C
ATOM      6  O5  A00 X   1      34.986  29.268  14.5480  0.00  0.00     0.000 O
ATOM      7   O  A00 X   1      31.159  28.399  13.8840  0.00  0.00     0.000 O
ATOM      9  HD  A00 X   1      31.651  28.442  13.1720  0.00  0.00     0.000 HD
ATOM      9   O  A00 X   1      34.310  27.269  12.7590  0.00  0.00     0.000 O
ATOM     11  HD  A00 X   1      34.802  27.312  12.0480  0.00  0.00     0.000 HD
ENDROOT
BRANCH 2 11
ATOM     11   O  A00 X   1      32.673  27.454  16.6320  0.00  0.00     0.000 O
ATOM     12   O  A00 X   1      30.729  26.045  16.6910  0.00  0.00     0.000 OA
ATOM     13   O  A00 X   1      30.483  28.430  17.1000  0.00  0.00     0.000 OA
ATOM     14   O  A00 X   1      31.613  27.048  18.6720  0.00  0.00     0.000 OA
ATOM     15   S  A00 X   1      31.266  27.241  17.2900  0.00  0.00     0.000 S
ENDBRANCH 2 11
BRANCH 5 16
ATOM     16   C  A00 X   1      33.330  30.856  13.5760  0.00  0.00     0.000 C
ATOM     17   O  A00 X   1      32.188  30.847  13.1650  0.00  0.00     0.000 OA
ATOM     18   O  A00 X   1      33.749  31.856  14.1250  0.00  0.00     0.000 OA
ENDBRANCH 5 16
BRANCH 1 19
ATOM     19  O4  A00 X   2      34.319  30.245  16.6300  0.00  0.00     0.000 O
BRANCH 19 23
ATOM     20  C1  A00 X   2      38.021  29.137  18.4840  0.00  0.00     0.000 C
ATOM     21  C2  A00 X   2      36.714  28.806  19.2440  0.00  0.00     0.000 C
ATOM     22  C3  A00 X   2      35.498  28.858  18.2950  0.00  0.00     0.000 C
ATOM     23  C4  A00 X   2      35.438  30.217  17.5620  0.00  0.00     0.000 C
ATOM     24  C5  A00 X   2      36.806  30.438  16.8600  0.00  0.00     0.000 C
ATOM     25  O5  A00 X   2      37.852  30.440  17.8650  0.00  0.00     0.000 O
ATOM     26   O  A00 X   2      34.322  28.477  19.0300  0.00  0.00     0.000 O
ATOM     28  HD  A00 X   2      34.486  29.030  19.6760  0.00  0.00     0.000 HD
BRANCH 21 30
ATOM     28   N  A00 X   2      37.422  29.066  20.5010  0.00  0.00     0.000 N
ATOM     30  HD  A00 X   2      36.697  28.638  20.7050  0.00  0.00     0.000 HD
ATOM     30   O  A00 X   2      36.517  27.678  22.1470  0.00  0.00     0.000 OA
ATOM     31   S  A00 X   2      36.599  29.064  21.8500  0.00  0.00     0.000 S
ATOM     32   O  A00 X   2      37.413  29.826  22.7450  0.00  0.00     0.000 OA
ATOM     33   O  A00 X   2      35.366  29.747  21.5950  0.00  0.00     0.000 OA
ENDBRANCH 21 30
BRANCH 24 34
ATOM     34   C  A00 X   2      36.929  31.618  15.8670  0.00  0.00     0.000 C
ATOM     35   O  A00 X   2      36.300  35.096  16.7420  0.00  0.00     0.000 OA
ATOM     36   O  A00 X   2      36.289  32.803  16.3810  0.00  0.00     0.000 O
ATOM     37   O  A00 X   2      37.851  33.710  17.8670  0.00  0.00     0.000 OA
ATOM     38   S  A00 X   2      37.242  34.032  16.6130  0.00  0.00     0.000 S
ATOM     39   O  A00 X   2      38.091  34.110  15.4630  0.00  0.00     0.000 OA
ENDBRANCH 24 34
BRANCH 20 40
ATOM     40  O4  A00 X   3      38.141  28.134  17.4640  0.00  0.00     0.000 O
BRANCH 40 44
ATOM     41  C1  A00 X   3      38.859  27.403  13.9900  0.00  0.00     0.000 C
ATOM     42  C2  A00 X   3      38.441  26.353  15.0420  0.00  0.00     0.000 C
ATOM     43  C3  A00 X   3      39.321  26.460  16.3130  0.00  0.00     0.000 C
ATOM     44  C4  A00 X   3      39.437  27.867  16.8870  0.00  0.00     0.000 C
ATOM     45  C5  A00 X   3      39.865  28.862  15.7720  0.00  0.00     0.000 C
ATOM     46  O5  A00 X   3      39.015  28.719  14.5880  0.00  0.00     0.000 O
ATOM     47   O  A00 X   3      39.081  25.480  17.3220  0.00  0.00     0.000 O
ATOM     49  HD  A00 X   3      39.209  26.155  17.8490  0.00  0.00     0.000 HD
BRANCH 42 49
ATOM     49   O  A00 X   3      37.048  26.587  15.3430  0.00  0.00     0.000 O
ATOM     50   O  A00 X   3      35.420  25.668  16.8380  0.00  0.00     0.000 OA
ATOM     51   O  A00 X   3      36.895  24.201  15.7150  0.00  0.00     0.000 OA
ATOM     52   O  A00 X   3      35.265  25.350  14.4460  0.00  0.00     0.000 OA
ATOM     53   S  A00 X   3      36.088  25.391  15.6050  0.00  0.00     0.000 S
ENDBRANCH 42 49
BRANCH 45 54
ATOM     54   C  A00 X   3      41.362  28.751  15.4560  0.00  0.00     0.000 C
ATOM     55   O  A00 X   3      41.908  29.574  14.7500  0.00  0.00     0.000 OA
ATOM     56   O  A00 X   3      42.030  27.834  15.9080  0.00  0.00     0.000 OA
ENDBRANCH 45 54
BRANCH 41 57
ATOM     57  O4  A00 X   4      40.005  26.965  13.2260  0.00  0.00     0.000 O
BRANCH 57 61
ATOM     58  C1  A00 X   4      41.214  27.582   9.1270  0.00  0.00     0.000 C
ATOM     59  C2  A00 X   4      41.070  28.817  10.0510  0.00  0.00     0.000 C
ATOM     60  C3  A00 X   4      40.991  28.458  11.5490  0.00  0.00     0.000 C
ATOM     61  C4  A00 X   4      39.980  27.322  11.8140  0.00  0.00     0.000 C
ATOM     62  C5  A00 X   4      40.436  26.121  10.9490  0.00  0.00     0.000 C
ATOM     63  O5  A00 X   4      40.367  26.489   9.5480  0.00  0.00     0.000 O
BRANCH 59 66
ATOM     64   N  A00 X   4      39.814  29.528   9.7490  0.00  0.00     0.000 N
ATOM     66  HD  A00 X   4      39.159  29.063   9.4250  0.00  0.00     0.000 HD
ATOM     66   O  A00 X   4      40.974  30.594   7.9270  0.00  0.00     0.000 OA
ATOM     67   S  A00 X   4      39.886  30.830   8.8230  0.00  0.00     0.000 S
ATOM     68   O  A00 X   4      38.580  30.799   8.2310  0.00  0.00     0.000 OA
ATOM     69   O  A00 X   4      40.052  31.845   9.8250  0.00  0.00     0.000 OA
ENDBRANCH 59 66
BRANCH 62 70
ATOM     70   C  A00 X   4      39.602  24.836  11.1630  0.00  0.00     0.000 C
ATOM     71   O  A00 X   4      36.170  24.183  10.2130  0.00  0.00     0.000 OA
ATOM     72   O  A00 X   4      37.285  23.851  12.2600  0.00  0.00     0.000 OA
ATOM     73   O  A00 X   4      38.381  24.932  10.4120  0.00  0.00     0.000 O
ATOM     74   O  A00 X   4      36.639  26.104  11.5930  0.00  0.00     0.000 OA
ATOM     75   S  A00 X   4      37.028  24.790  11.1910  0.00  0.00     0.000 S
ENDBRANCH 62 70
ENDBRANCH 57 61
ENDBRANCH 41 57
ENDBRANCH 40 44
ENDBRANCH 20 40
ENDBRANCH 19 23
ENDBRANCH 1 19
TORSDOF 14
ENDMDL
MODEL 67
REMARK VINA RESULT:      -0.2     60.239     65.396
ROOT
ATOM      1  C1  A00 X   1      24.731  38.879  60.8950  0.00  0.00     0.000 C
ATOM      2  C2  A00 X   1      25.884  38.132  61.6170  0.00  0.00     0.000 C
ATOM      3  C3  A00 X   1      26.129  38.527  63.1110  0.00  0.00     0.000 C
ATOM      4  C4  A00 X   1      25.457  39.846  63.5730  0.00  0.00     0.000 C
ATOM      5  C5  A00 X   1      25.149  40.778  62.4010  0.00  0.00     0.000 C
ATOM      6  O5  A00 X   1      24.210  40.042  61.5850  0.00  0.00     0.000 O
ATOM      7   O  A00 X   1      27.530  38.693  63.3160  0.00  0.00     0.000 O
ATOM      9  HD  A00 X   1      27.132  39.333  63.7420  0.00  0.00     0.000 HD
ATOM      9   O  A00 X   1      24.264  39.592  64.3140  0.00  0.00     0.000 O
ATOM     11  HD  A00 X   1      23.866  40.232  64.7400  0.00  0.00     0.000 HD
ENDROOT
BRANCH 2 11
ATOM     11   O  A00 X   1      25.605  36.720  61.5450  0.00  0.00     0.000 O
ATOM     12   O  A00 X   1      26.916  35.103  62.7420  0.00  0.00     0.000 OA
ATOM     13   O  A00 X   1      27.966  36.429  60.9940  0.00  0.00     0.000 OA
ATOM     14   O  A00 X   1      26.330  34.792  60.4460  0.00  0.00     0.000 OA
ATOM     15   S  A00 X   1      26.803  35.715  61.4420  0.00  0.00     0.000 S
ENDBRANCH 2 11
BRANCH 5 16
ATOM     16   C  A00 X   1      26.375  41.274  61.6280  0.00  0.00     0.000 C
ATOM     17   O  A00 X   1      27.467  41.185  62.1510  0.00  0.00     0.000 OA
ATOM     18   O  A00 X   1      26.295  41.746  60.5120  0.00  0.00     0.000 OA
ENDBRANCH 5 16
BRANCH 1 19
ATOM     19  O4  A00 X   2      25.036  39.177  59.5110  0.00  0.00     0.000 O
BRANCH 19 23
ATOM     20  C1  A00 X   2      21.071  38.313  58.1320  0.00  0.00     0.000 C
ATOM     21  C2  A00 X   2      22.138  37.202  57.9810  0.00  0.00     0.000 C
ATOM     22  C3  A00 X   2      23.355  37.482  58.8880  0.00  0.00     0.000 C
ATOM     23  C4  A00 X   2      23.919  38.896  58.6190  0.00  0.00     0.000 C
ATOM     24  C5  A00 X   2      22.754  39.910  58.7830  0.00  0.00     0.000 C
ATOM     25  O5  A00 X   2      21.711  39.582  57.8290  0.00  0.00     0.000 O
ATOM     26   O  A00 X   2      24.283  36.391  58.7640  0.00  0.00     0.000 O
ATOM     28  HD  A00 X   2      24.278  36.419  57.8990  0.00  0.00     0.000 HD
BRANCH 21 30
ATOM     28   N  A00 X   2      21.484  36.795  56.7340  0.00  0.00     0.000 N
ATOM     30  HD  A00 X   2      22.006  36.144  56.9670  0.00  0.00     0.000 HD
ATOM     30   O  A00 X   2      21.760  34.488  56.4880  0.00  0.00     0.000 OA
ATOM     31   S  A00 X   2      22.172  35.684  55.8440  0.00  0.00     0.000 S
ATOM     32   O  A00 X   2      21.610  35.896  54.5450  0.00  0.00     0.000 OA
ATOM     33   O  A00 X   2      23.577  35.964  55.8300  0.00  0.00     0.000 OA
ENDBRANCH 21 30
BRANCH 24 34
ATOM     34   C  A00 X   2      23.101  41.418  58.7930  0.00  0.00     0.000 C
ATOM     35   O  A00 X   2      21.946  43.794  56.2880  0.00  0.00     0.000 OA
ATOM     36   O  A00 X   2      22.814  42.028  57.5190  0.00  0.00     0.000 O
ATOM     37   O  A00 X   2      20.508  42.418  57.5660  0.00  0.00     0.000 OA
ATOM     38   S  A00 X   2      21.729  43.165  57.5490  0.00  0.00     0.000 S
ATOM     39   O  A00 X   2      22.025  43.978  58.6910  0.00  0.00     0.000 OA
ENDBRANCH 24 34
BRANCH 20 40
ATOM     40  O4  A00 X   3      20.680  38.291  59.5120  0.00  0.00     0.000 O
BRANCH 40 44
ATOM     41  C1  A00 X   3      19.913  40.161  62.5180  0.00  0.00     0.000 C
ATOM     42  C2  A00 X   3      19.912  38.620  62.4160  0.00  0.00     0.000 C
ATOM     43  C3  A00 X   3      19.063  38.145  61.2100  0.00  0.00     0.000 C
ATOM     44  C4  A00 X   3      19.396  38.831  59.8910  0.00  0.00     0.000 C
ATOM     45  C5  A00 X   3      19.372  40.375  60.0730  0.00  0.00     0.000 C
ATOM     46  O5  A00 X   3      20.178  40.777  61.2280  0.00  0.00     0.000 O
ATOM     47   O  A00 X   3      18.918  36.733  61.0670  0.00  0.00     0.000 O
ATOM     49  HD  A00 X   3      18.999  36.923  60.2260  0.00  0.00     0.000 HD
BRANCH 42 49
ATOM     49   O  A00 X   3      21.290  38.204  62.2890  0.00  0.00     0.000 O
ATOM     50   O  A00 X   3      22.454  36.130  62.0160  0.00  0.00     0.000 OA
ATOM     51   O  A00 X   3      20.636  36.228  63.5240  0.00  0.00     0.000 OA
ATOM     52   O  A00 X   3      22.610  37.411  64.0610  0.00  0.00     0.000 OA
ATOM     53   S  A00 X   3      21.792  36.918  63.0080  0.00  0.00     0.000 S
ENDBRANCH 42 49
BRANCH 45 54
ATOM     54   C  A00 X   3      17.939  40.919  60.1180  0.00  0.00     0.000 C
ATOM     55   O  A00 X   3      17.725  42.108  59.9990  0.00  0.00     0.000 OA
ATOM     56   O  A00 X   3      16.989  40.167  60.2750  0.00  0.00     0.000 OA
ENDBRANCH 45 54
BRANCH 41 57
ATOM     57  O4  A00 X   4      18.722  40.653  63.1710  0.00  0.00     0.000 O
BRANCH 57 61
ATOM     58  C1  A00 X   4      17.955  44.061  65.7090  0.00  0.00     0.000 C
ATOM     59  C2  A00 X   4      18.443  44.311  64.2600  0.00  0.00     0.000 C
ATOM     60  C3  A00 X   4      18.336  43.068  63.3530  0.00  0.00     0.000 C
ATOM     61  C4  A00 X   4      18.922  41.811  64.0320  0.00  0.00     0.000 C
ATOM     62  C5  A00 X   4      18.146  41.632  65.3600  0.00  0.00     0.000 C
ATOM     63  O5  A00 X   4      18.391  42.778  66.2140  0.00  0.00     0.000 O
BRANCH 59 66
ATOM     64   N  A00 X   4      19.870  44.679  64.2480  0.00  0.00     0.000 N
ATOM     66  HD  A00 X   4      20.366  44.376  64.8900  0.00  0.00     0.000 HD
ATOM     66   O  A00 X   4      19.192  46.924  64.7940  0.00  0.00     0.000 OA
ATOM     67   S  A00 X   4      20.251  46.228  64.1330  0.00  0.00     0.000 S
ATOM     68   O  A00 X   4      21.513  46.234  64.8140  0.00  0.00     0.000 OA
ATOM     69   O  A00 X   4      20.352  46.359  62.7080  0.00  0.00     0.000 OA
ENDBRANCH 59 66
BRANCH 62 70
ATOM     70   C  A00 X   4      18.518  40.349  66.1410  0.00  0.00     0.000 C
ATOM     71   O  A00 X   4      21.605  39.564  67.8630  0.00  0.00     0.000 OA
ATOM     72   O  A00 X   4      20.350  38.310  66.3140  0.00  0.00     0.000 OA
ATOM     73   O  A00 X   4      19.739  40.570  66.8650  0.00  0.00     0.000 O
ATOM     74   O  A00 X   4      21.708  40.176  65.5330  0.00  0.00     0.000 OA
ATOM     75   S  A00 X   4      20.941  39.601  66.5900  0.00  0.00     0.000 S
ENDBRANCH 62 70
ENDBRANCH 57 61
ENDBRANCH 41 57
ENDBRANCH 40 44
ENDBRANCH 20 40
ENDBRANCH 19 23
ENDBRANCH 1 19
TORSDOF 14
ENDMDL
MODEL 68
REMARK VINA RESULT:      -0.2     55.561     60.984
ROOT
ATOM      1  C1  A00 X   1      33.064  33.433  53.5310  0.00  0.00     0.000 C
ATOM      2  C2  A00 X   1      32.166  32.234  53.1240  0.00  0.00     0.000 C
ATOM      3  C3  A00 X   1      32.653  30.822  53.5900  0.00  0.00     0.000 C
ATOM      4  C4  A00 X   1      34.126  30.747  54.0670  0.00  0.00     0.000 C
ATOM      5  C5  A00 X   1      34.975  31.886  53.5020  0.00  0.00     0.000 C
ATOM      6  O5  A00 X   1      34.378  33.088  54.0360  0.00  0.00     0.000 O
ATOM      7   O  A00 X   1      32.535  29.914  52.4970  0.00  0.00     0.000 O
ATOM      9  HD  A00 X   1      33.286  29.742  52.8910  0.00  0.00     0.000 HD
ATOM      9   O  A00 X   1      34.214  30.741  55.4920  0.00  0.00     0.000 O
ATOM     11  HD  A00 X   1      34.966  30.569  55.8860  0.00  0.00     0.000 HD
ENDROOT
BRANCH 2 11
ATOM     11   O  A00 X   1      30.848  32.474  53.6540  0.00  0.00     0.000 O
ATOM     12   O  A00 X   1      29.119  30.810  53.5590  0.00  0.00     0.000 OA
ATOM     13   O  A00 X   1      30.000  31.730  51.4870  0.00  0.00     0.000 OA
ATOM     14   O  A00 X   1      28.706  33.084  52.9530  0.00  0.00     0.000 OA
ATOM     15   S  A00 X   1      29.603  31.965  52.8480  0.00  0.00     0.000 S
ENDBRANCH 2 11
BRANCH 5 16
ATOM     16   C  A00 X   1      35.113  31.895  51.9760  0.00  0.00     0.000 C
ATOM     17   O  A00 X   1      34.846  30.883  51.3620  0.00  0.00     0.000 OA
ATOM     18   O  A00 X   1      35.473  32.879  51.3610  0.00  0.00     0.000 OA
ENDBRANCH 5 16
BRANCH 1 19
ATOM     19  O4  A00 X   2      33.144  34.449  52.5010  0.00  0.00     0.000 O
BRANCH 19 23
ATOM     20  C1  A00 X   2      33.029  37.709  55.2810  0.00  0.00     0.000 C
ATOM     21  C2  A00 X   2      31.703  37.314  54.5880  0.00  0.00     0.000 C
ATOM     22  C3  A00 X   2      31.802  35.900  53.9780  0.00  0.00     0.000 C
ATOM     23  C4  A00 X   2      33.023  35.798  53.0370  0.00  0.00     0.000 C
ATOM     24  C5  A00 X   2      34.279  36.235  53.8400  0.00  0.00     0.000 C
ATOM     25  O5  A00 X   2      34.090  37.601  54.2940  0.00  0.00     0.000 O
ATOM     26   O  A00 X   2      30.528  35.553  53.4080  0.00  0.00     0.000 O
ATOM     28  HD  A00 X   2      30.468  36.294  52.9640  0.00  0.00     0.000 HD
BRANCH 21 30
ATOM     28   N  A00 X   2      31.323  38.730  54.5900  0.00  0.00     0.000 N
ATOM     30  HD  A00 X   2      30.602  38.277  54.4330  0.00  0.00     0.000 HD
ATOM     30   O  A00 X   2      28.999  38.860  54.7880  0.00  0.00     0.000 OA
ATOM     31   S  A00 X   2      30.005  39.163  53.8320  0.00  0.00     0.000 S
ATOM     32   O  A00 X   2      30.200  40.558  53.5830  0.00  0.00     0.000 OA
ATOM     33   O  A00 X   2      29.968  38.437  52.5980  0.00  0.00     0.000 OA
ENDBRANCH 21 30
BRANCH 24 34
ATOM     34   C  A00 X   2      35.667  36.006  53.1980  0.00  0.00     0.000 C
ATOM     35   O  A00 X   2      36.682  37.381  49.9840  0.00  0.00     0.000 OA
ATOM     36   O  A00 X   2      35.662  36.359  51.8010  0.00  0.00     0.000 O
ATOM     37   O  A00 X   2      35.888  38.687  51.7880  0.00  0.00     0.000 OA
ATOM     38   S  A00 X   2      36.634  37.529  51.4010  0.00  0.00     0.000 S
ATOM     39   O  A00 X   2      37.870  37.278  52.0800  0.00  0.00     0.000 OA
ENDBRANCH 24 34
BRANCH 20 40
ATOM     40  O4  A00 X   3      33.233  36.734  56.3130  0.00  0.00     0.000 O
BRANCH 40 44
ATOM     41  C1  A00 X   3      35.543  34.517  58.0080  0.00  0.00     0.000 C
ATOM     42  C2  A00 X   3      34.038  34.635  58.3330  0.00  0.00     0.000 C
ATOM     43  C3  A00 X   3      33.631  36.116  58.5450  0.00  0.00     0.000 C
ATOM     44  C4  A00 X   3      34.079  37.061  57.4370  0.00  0.00     0.000 C
ATOM     45  C5  A00 X   3      35.601  36.887  57.1720  0.00  0.00     0.000 C
ATOM     46  O5  A00 X   3      35.942  35.474  56.9880  0.00  0.00     0.000 O
ATOM     47   O  A00 X   3      32.278  36.340  58.9360  0.00  0.00     0.000 O
ATOM     49  HD  A00 X   3      32.353  37.015  58.3990  0.00  0.00     0.000 HD
BRANCH 42 49
ATOM     49   O  A00 X   3      33.319  34.042  57.2290  0.00  0.00     0.000 O
ATOM     50   O  A00 X   3      31.024  33.737  56.6220  0.00  0.00     0.000 OA
ATOM     51   O  A00 X   3      31.665  33.389  58.8710  0.00  0.00     0.000 OA
ATOM     52   O  A00 X   3      32.432  31.868  57.2330  0.00  0.00     0.000 OA
ATOM     53   S  A00 X   3      32.031  33.208  57.4880  0.00  0.00     0.000 S
ENDBRANCH 42 49
BRANCH 45 54
ATOM     54   C  A00 X   3      36.447  37.576  58.2490  0.00  0.00     0.000 C
ATOM     55   O  A00 X   3      35.929  38.016  59.2550  0.00  0.00     0.000 OA
ATOM     56   O  A00 X   3      37.655  37.696  58.1140  0.00  0.00     0.000 OA
ENDBRANCH 45 54
BRANCH 41 57
ATOM     57  O4  A00 X   4      36.353  34.562  59.2040  0.00  0.00     0.000 O
BRANCH 57 61
ATOM     58  C1  A00 X   4      40.067  32.661  60.3130  0.00  0.00     0.000 C
ATOM     59  C2  A00 X   4      40.061  33.625  59.1000  0.00  0.00     0.000 C
ATOM     60  C3  A00 X   4      38.797  34.506  59.0220  0.00  0.00     0.000 C
ATOM     61  C4  A00 X   4      37.508  33.676  59.2030  0.00  0.00     0.000 C
ATOM     62  C5  A00 X   4      37.638  32.962  60.5720  0.00  0.00     0.000 C
ATOM     63  O5  A00 X   4      38.772  32.058  60.5330  0.00  0.00     0.000 O
BRANCH 59 66
ATOM     64   N  A00 X   4      40.084  32.854  57.8440  0.00  0.00     0.000 N
ATOM     66  HD  A00 X   4      39.740  32.060  57.8560  0.00  0.00     0.000 HD
ATOM     66   O  A00 X   4      42.469  32.664  58.1220  0.00  0.00     0.000 OA
ATOM     67   S  A00 X   4      41.483  32.682  57.0870  0.00  0.00     0.000 S
ATOM     68   O  A00 X   4      41.264  31.431  56.4220  0.00  0.00     0.000 OA
ATOM     69   O  A00 X   4      41.444  33.824  56.2190  0.00  0.00     0.000 OA
ENDBRANCH 59 66
BRANCH 62 70
ATOM     70   C  A00 X   4      36.383  32.159  60.9870  0.00  0.00     0.000 C
ATOM     71   O  A00 X   4      35.070  29.109  59.5450  0.00  0.00     0.000 OA
ATOM     72   O  A00 X   4      34.001  31.138  60.0780  0.00  0.00     0.000 OA
ATOM     73   O  A00 X   4      36.382  30.893  60.3080  0.00  0.00     0.000 O
ATOM     74   O  A00 X   4      35.420  31.008  58.1020  0.00  0.00     0.000 OA
ATOM     75   S  A00 X   4      35.139  30.538  59.4200  0.00  0.00     0.000 S
ENDBRANCH 62 70
ENDBRANCH 57 61
ENDBRANCH 41 57
ENDBRANCH 40 44
ENDBRANCH 20 40
ENDBRANCH 19 23
ENDBRANCH 1 19
TORSDOF 14
ENDMDL
MODEL 69
REMARK VINA RESULT:      -0.2     62.970     67.455
ROOT
ATOM      1  C1  A00 X   1      41.732  65.517  25.5550  0.00  0.00     0.000 C
ATOM      2  C2  A00 X   1      42.744  66.472  24.8670  0.00  0.00     0.000 C
ATOM      3  C3  A00 X   1      42.145  67.467  23.8190  0.00  0.00     0.000 C
ATOM      4  C4  A00 X   1      40.711  67.139  23.3290  0.00  0.00     0.000 C
ATOM      5  C5  A00 X   1      40.358  65.664  23.5210  0.00  0.00     0.000 C
ATOM      6  O5  A00 X   1      40.417  65.456  24.9500  0.00  0.00     0.000 O
ATOM      7   O  A00 X   1      42.978  67.467  22.6610  0.00  0.00     0.000 O
ATOM      9  HD  A00 X   1      42.157  67.479  22.3850  0.00  0.00     0.000 HD
ATOM      9   O  A00 X   1      39.738  67.956  23.9790  0.00  0.00     0.000 O
ATOM     11  HD  A00 X   1      38.917  67.968  23.7030  0.00  0.00     0.000 HD
ENDROOT
BRANCH 2 11
ATOM     11   O  A00 X   1      43.410  67.223  25.9000  0.00  0.00     0.000 O
ATOM     12   O  A00 X   1      45.172  68.778  25.4040  0.00  0.00     0.000 OA
ATOM     13   O  A00 X   1      45.504  66.413  24.9380  0.00  0.00     0.000 OA
ATOM     14   O  A00 X   1      45.361  67.190  27.1810  0.00  0.00     0.000 OA
ATOM     15   S  A00 X   1      44.964  67.413  25.8180  0.00  0.00     0.000 S
ENDBRANCH 2 11
BRANCH 5 16
ATOM     16   C  A00 X   1      41.222  64.682  22.7230  0.00  0.00     0.000 C
ATOM     17   O  A00 X   1      41.139  63.497  22.9740  0.00  0.00     0.000 OA
ATOM     18   O  A00 X   1      41.979  65.045  21.8450  0.00  0.00     0.000 OA
ENDBRANCH 5 16
BRANCH 1 19
ATOM     19  O4  A00 X   2      42.274  64.191  25.7770  0.00  0.00     0.000 O
BRANCH 19 23
ATOM     20  C1  A00 X   2      40.332  63.695  29.5650  0.00  0.00     0.000 C
ATOM     21  C2  A00 X   2      41.809  64.157  29.5740  0.00  0.00     0.000 C
ATOM     22  C3  A00 X   2      42.224  64.699  28.1910  0.00  0.00     0.000 C
ATOM     23  C4  A00 X   2      41.928  63.658  27.0880  0.00  0.00     0.000 C
ATOM     24  C5  A00 X   2      40.429  63.266  27.1960  0.00  0.00     0.000 C
ATOM     25  O5  A00 X   2      40.187  62.705  28.5120  0.00  0.00     0.000 O
ATOM     26   O  A00 X   2      43.578  65.178  28.2700  0.00  0.00     0.000 O
ATOM     28  HD  A00 X   2      43.867  64.448  28.6370  0.00  0.00     0.000 HD
BRANCH 21 30
ATOM     28   N  A00 X   2      42.004  63.384  30.8050  0.00  0.00     0.000 N
ATOM     30  HD  A00 X   2      42.678  63.923  30.7380  0.00  0.00     0.000 HD
ATOM     30   O  A00 X   2      43.614  64.473  32.1010  0.00  0.00     0.000 OA
ATOM     31   S  A00 X   2      43.465  63.251  31.3930  0.00  0.00     0.000 S
ATOM     32   O  A00 X   2      43.393  62.082  32.2150  0.00  0.00     0.000 OA
ATOM     33   O  A00 X   2      44.348  63.028  30.2880  0.00  0.00     0.000 OA
ENDBRANCH 21 30
BRANCH 24 34
ATOM     34   C  A00 X   2      39.820  62.409  26.0610  0.00  0.00     0.000 C
ATOM     35   O  A00 X   2      41.063  59.128  25.0870  0.00  0.00     0.000 OA
ATOM     36   O  A00 X   2      40.713  61.348  25.6690  0.00  0.00     0.000 O
ATOM     37   O  A00 X   2      40.388  59.687  27.2840  0.00  0.00     0.000 OA
ATOM     38   S  A00 X   2      40.161  59.892  25.8860  0.00  0.00     0.000 S
ATOM     39   O  A00 X   2      38.804  59.901  25.4280  0.00  0.00     0.000 OA
ENDBRANCH 24 34
BRANCH 20 40
ATOM     40  O4  A00 X   3      39.563  64.861  29.2350  0.00  0.00     0.000 O
BRANCH 40 44
ATOM     41  C1  A00 X   3      36.829  66.351  27.3820  0.00  0.00     0.000 C
ATOM     42  C2  A00 X   3      37.776  67.123  28.3270  0.00  0.00     0.000 C
ATOM     43  C3  A00 X   3      37.874  66.425  29.7070  0.00  0.00     0.000 C
ATOM     44  C4  A00 X   3      38.180  64.933  29.6430  0.00  0.00     0.000 C
ATOM     45  C5  A00 X   3      37.184  64.227  28.6800  0.00  0.00     0.000 C
ATOM     46  O5  A00 X   3      37.117  64.925  27.3940  0.00  0.00     0.000 O
ATOM     47   O  A00 X   3      38.655  67.098  30.6920  0.00  0.00     0.000 O
ATOM     49  HD  A00 X   3      38.902  66.291  30.8860  0.00  0.00     0.000 HD
BRANCH 42 49
ATOM     49   O  A00 X   3      39.064  67.186  27.6750  0.00  0.00     0.000 O
ATOM     50   O  A00 X   3      41.236  68.038  28.2100  0.00  0.00     0.000 OA
ATOM     51   O  A00 X   3      39.335  69.323  28.7790  0.00  0.00     0.000 OA
ATOM     52   O  A00 X   3      39.867  69.049  26.4920  0.00  0.00     0.000 OA
ATOM     53   S  A00 X   3      39.940  68.468  27.7880  0.00  0.00     0.000 S
ENDBRANCH 42 49
BRANCH 45 54
ATOM     54   C  A00 X   3      35.810  64.027  29.3310  0.00  0.00     0.000 C
ATOM     55   O  A00 X   3      35.539  64.569  30.3820  0.00  0.00     0.000 OA
ATOM     56   O  A00 X   3      34.967  63.318  28.8040  0.00  0.00     0.000 OA
ENDBRANCH 45 54
BRANCH 41 57
ATOM     57  O4  A00 X   4      35.443  66.673  27.6360  0.00  0.00     0.000 O
BRANCH 57 61
ATOM     58  C1  A00 X   4      31.966  66.924  25.0900  0.00  0.00     0.000 C
ATOM     59  C2  A00 X   4      32.669  65.553  25.2510  0.00  0.00     0.000 C
ATOM     60  C3  A00 X   4      33.653  65.503  26.4380  0.00  0.00     0.000 C
ATOM     61  C4  A00 X   4      34.595  66.726  26.4540  0.00  0.00     0.000 C
ATOM     62  C5  A00 X   4      33.683  67.977  26.5050  0.00  0.00     0.000 C
ATOM     63  O5  A00 X   4      32.876  68.028  25.3010  0.00  0.00     0.000 O
BRANCH 59 66
ATOM     64   N  A00 X   4      33.480  65.247  24.0590  0.00  0.00     0.000 N
ATOM     66  HD  A00 X   4      33.795  65.916  23.6070  0.00  0.00     0.000 HD
ATOM     66   O  A00 X   4      31.455  64.488  23.0000  0.00  0.00     0.000 OA
ATOM     67   S  A00 X   4      32.866  64.263  22.9570  0.00  0.00     0.000 S
ATOM     68   O  A00 X   4      33.532  64.743  21.7820  0.00  0.00     0.000 OA
ATOM     69   O  A00 X   4      33.359  63.004  23.4400  0.00  0.00     0.000 OA
ENDBRANCH 59 66
BRANCH 62 70
ATOM     70   C  A00 X   4      34.452  69.314  26.6380  0.00  0.00     0.000 C
ATOM     71   O  A00 X   4      36.540  70.976  24.1920  0.00  0.00     0.000 OA
ATOM     72   O  A00 X   4      36.935  70.472  26.4580  0.00  0.00     0.000 OA
ATOM     73   O  A00 X   4      34.942  69.710  25.3480  0.00  0.00     0.000 O
ATOM     74   O  A00 X   4      37.057  68.699  24.7910  0.00  0.00     0.000 OA
ATOM     75   S  A00 X   4      36.485  69.944  25.1890  0.00  0.00     0.000 S
ENDBRANCH 62 70
ENDBRANCH 57 61
ENDBRANCH 41 57
ENDBRANCH 40 44
ENDBRANCH 20 40
ENDBRANCH 19 23
ENDBRANCH 1 19
TORSDOF 14
ENDMDL
MODEL 70
REMARK VINA RESULT:      -0.2     64.358     69.653
ROOT
ATOM      1  C1  A00 X   1      44.527  70.036  23.1150  0.00  0.00     0.000 C
ATOM      2  C2  A00 X   1      44.163  71.452  23.6380  0.00  0.00     0.000 C
ATOM      3  C3  A00 X   1      42.729  71.967  23.2860  0.00  0.00     0.000 C
ATOM      4  C4  A00 X   1      41.993  71.183  22.1690  0.00  0.00     0.000 C
ATOM      5  C5  A00 X   1      42.961  70.428  21.2600  0.00  0.00     0.000 C
ATOM      6  O5  A00 X   1      43.620  69.481  22.1310  0.00  0.00     0.000 O
ATOM      7   O  A00 X   1      42.826  73.317  22.8360  0.00  0.00     0.000 O
ATOM      9  HD  A00 X   1      42.257  72.917  22.3210  0.00  0.00     0.000 HD
ATOM      9   O  A00 X   1      41.035  70.276  22.7140  0.00  0.00     0.000 O
ATOM     11  HD  A00 X   1      40.465  69.876  22.1990  0.00  0.00     0.000 HD
ENDROOT
BRANCH 2 11
ATOM     11   O  A00 X   1      44.320  71.443  25.0710  0.00  0.00     0.000 O
ATOM     12   O  A00 X   1      43.635  73.298  26.4340  0.00  0.00     0.000 OA
ATOM     13   O  A00 X   1      45.426  73.606  24.8170  0.00  0.00     0.000 OA
ATOM     14   O  A00 X   1      45.755  72.235  26.7330  0.00  0.00     0.000 OA
ATOM     15   S  A00 X   1      44.802  72.751  25.7880  0.00  0.00     0.000 S
ENDBRANCH 2 11
BRANCH 5 16
ATOM     16   C  A00 X   1      43.931  71.312  20.4690  0.00  0.00     0.000 C
ATOM     17   O  A00 X   1      43.678  72.493  20.3540  0.00  0.00     0.000 OA
ATOM     18   O  A00 X   1      44.945  70.875  19.9620  0.00  0.00     0.000 OA
ENDBRANCH 5 16
BRANCH 1 19
ATOM     19  O4  A00 X   2      45.905  69.936  22.6800  0.00  0.00     0.000 O
BRANCH 19 23
ATOM     20  C1  A00 X   2      46.437  65.989  24.2620  0.00  0.00     0.000 C
ATOM     21  C2  A00 X   2      46.941  67.176  25.1190  0.00  0.00     0.000 C
ATOM     22  C3  A00 X   2      46.308  68.502  24.6460  0.00  0.00     0.000 C
ATOM     23  C4  A00 X   2      46.546  68.709  23.1340  0.00  0.00     0.000 C
ATOM     24  C5  A00 X   2      46.017  67.450  22.3930  0.00  0.00     0.000 C
ATOM     25  O5  A00 X   2      46.741  66.288  22.8740  0.00  0.00     0.000 O
ATOM     26   O  A00 X   2      46.753  69.559  25.5130  0.00  0.00     0.000 O
ATOM     28  HD  A00 X   2      47.587  69.340  25.4360  0.00  0.00     0.000 HD
BRANCH 21 30
ATOM     28   N  A00 X   2      48.038  66.321  25.5820  0.00  0.00     0.000 N
ATOM     30  HD  A00 X   2      48.004  66.999  26.1200  0.00  0.00     0.000 HD
ATOM     30   O  A00 X   2      48.589  66.961  27.7600  0.00  0.00     0.000 OA
ATOM     31   S  A00 X   2      49.178  66.964  26.4690  0.00  0.00     0.000 S
ATOM     32   O  A00 X   2      50.280  66.067  26.3060  0.00  0.00     0.000 OA
ATOM     33   O  A00 X   2      49.488  68.241  25.8990  0.00  0.00     0.000 OA
ENDBRANCH 21 30
BRANCH 24 34
ATOM     34   C  A00 X   2      45.927  67.501  20.8500  0.00  0.00     0.000 C
ATOM     35   O  A00 X   2      48.759  68.164  18.6600  0.00  0.00     0.000 OA
ATOM     36   O  A00 X   2      47.095  68.122  20.2780  0.00  0.00     0.000 O
ATOM     37   O  A00 X   2      48.708  66.427  20.2650  0.00  0.00     0.000 OA
ATOM     38   S  A00 X   2      47.949  67.201  19.3310  0.00  0.00     0.000 S
ATOM     39   O  A00 X   2      47.016  66.505  18.4950  0.00  0.00     0.000 OA
ENDBRANCH 24 34
BRANCH 20 40
ATOM     40  O4  A00 X   3      45.014  65.955  24.4460  0.00  0.00     0.000 O
BRANCH 40 44
ATOM     41  C1  A00 X   3      41.726  65.583  22.9710  0.00  0.00     0.000 C
ATOM     42  C2  A00 X   3      41.994  65.859  24.4660  0.00  0.00     0.000 C
ATOM     43  C3  A00 X   3      43.026  64.854  25.0400  0.00  0.00     0.000 C
ATOM     44  C4  A00 X   3      44.302  64.719  24.2200  0.00  0.00     0.000 C
ATOM     45  C5  A00 X   3      43.952  64.438  22.7320  0.00  0.00     0.000 C
ATOM     46  O5  A00 X   3      42.968  65.403  22.2350  0.00  0.00     0.000 O
ATOM     47   O  A00 X   3      43.286  64.960  26.4390  0.00  0.00     0.000 O
ATOM     49  HD  A00 X   3      44.098  64.797  26.1850  0.00  0.00     0.000 HD
BRANCH 42 49
ATOM     49   O  A00 X   3      42.470  67.220  24.5670  0.00  0.00     0.000 O
ATOM     50   O  A00 X   3      43.227  68.665  26.3180  0.00  0.00     0.000 OA
ATOM     51   O  A00 X   3      41.353  67.279  26.7130  0.00  0.00     0.000 OA
ATOM     52   O  A00 X   3      41.135  69.055  25.1700  0.00  0.00     0.000 OA
ATOM     53   S  A00 X   3      42.030  68.120  25.7580  0.00  0.00     0.000 S
ENDBRANCH 42 49
BRANCH 45 54
ATOM     54   C  A00 X   3      43.530  62.980  22.5140  0.00  0.00     0.000 C
ATOM     55   O  A00 X   3      43.316  62.250  23.4600  0.00  0.00     0.000 OA
ATOM     56   O  A00 X   3      43.402  62.528  21.3870  0.00  0.00     0.000 OA
ENDBRANCH 45 54
BRANCH 41 57
ATOM     57  O4  A00 X   4      40.775  64.511  22.7880  0.00  0.00     0.000 O
BRANCH 57 61
ATOM     58  C1  A00 X   4      37.759  63.736  19.7970  0.00  0.00     0.000 C
ATOM     59  C2  A00 X   4      39.242  63.805  19.3540  0.00  0.00     0.000 C
ATOM     60  C3  A00 X   4      40.239  63.725  20.5280  0.00  0.00     0.000 C
ATOM     61  C4  A00 X   4      39.854  64.686  21.6740  0.00  0.00     0.000 C
ATOM     62  C5  A00 X   4      38.416  64.300  22.1020  0.00  0.00     0.000 C
ATOM     63  O5  A00 X   4      37.512  64.518  20.9880  0.00  0.00     0.000 O
BRANCH 59 66
ATOM     64   N  A00 X   4      39.611  65.055  18.6650  0.00  0.00     0.000 N
ATOM     66  HD  A00 X   4      39.186  65.775  18.8890  0.00  0.00     0.000 HD
ATOM     66   O  A00 X   4      38.592  64.145  16.6820  0.00  0.00     0.000 OA
ATOM     67   S  A00 X   4      39.617  65.065  17.0660  0.00  0.00     0.000 S
ATOM     68   O  A00 X   4      39.331  66.447  16.8150  0.00  0.00     0.000 OA
ATOM     69   O  A00 X   4      40.980  64.691  16.8150  0.00  0.00     0.000 OA
ENDBRANCH 59 66
BRANCH 62 70
ATOM     70   C  A00 X   4      37.888  65.087  23.3250  0.00  0.00     0.000 C
ATOM     71   O  A00 X   4      37.007  68.591  23.5510  0.00  0.00     0.000 OA
ATOM     72   O  A00 X   4      38.362  67.257  24.9400  0.00  0.00     0.000 OA
ATOM     73   O  A00 X   4      37.439  66.383  22.8980  0.00  0.00     0.000 O
ATOM     74   O  A00 X   4      39.217  68.005  22.7840  0.00  0.00     0.000 OA
ATOM     75   S  A00 X   4      38.085  67.642  23.5740  0.00  0.00     0.000 S
ENDBRANCH 62 70
ENDBRANCH 57 61
ENDBRANCH 41 57
ENDBRANCH 40 44
ENDBRANCH 20 40
ENDBRANCH 19 23
ENDBRANCH 1 19
TORSDOF 14
ENDMDL
MODEL 71
REMARK VINA RESULT:      -0.2     40.477     45.006
ROOT
ATOM      1  C1  A00 X   1      50.742  34.303  11.5710  0.00  0.00     0.000 C
ATOM      2  C2  A00 X   1      51.302  35.735  11.3610  0.00  0.00     0.000 C
ATOM      3  C3  A00 X   1      52.682  35.833  10.6310  0.00  0.00     0.000 C
ATOM      4  C4  A00 X   1      53.485  34.510  10.5380  0.00  0.00     0.000 C
ATOM      5  C5  A00 X   1      53.068  33.505  11.6120  0.00  0.00     0.000 C
ATOM      6  O5  A00 X   1      51.679  33.223  11.3310  0.00  0.00     0.000 O
ATOM      7   O  A00 X   1      53.507  36.759  11.3350  0.00  0.00     0.000 O
ATOM      9  HD  A00 X   1      54.009  36.090  11.1090  0.00  0.00     0.000 HD
ATOM      9   O  A00 X   1      53.362  33.914   9.2470  0.00  0.00     0.000 O
ATOM     11  HD  A00 X   1      53.863  33.246   9.0210  0.00  0.00     0.000 HD
ENDROOT
BRANCH 2 11
ATOM     11   O  A00 X   1      50.322  36.484  10.6150  0.00  0.00     0.000 O
ATOM     12   O  A00 X   1      50.619  38.812  10.1100  0.00  0.00     0.000 OA
ATOM     13   O  A00 X   1      50.401  38.117  12.4300  0.00  0.00     0.000 OA
ATOM     14   O  A00 X   1      48.548  37.964  10.9470  0.00  0.00     0.000 OA
ATOM     15   S  A00 X   1      49.981  37.945  11.0670  0.00  0.00     0.000 S
ENDBRANCH 2 11
BRANCH 5 16
ATOM     16   C  A00 X   1      53.323  33.956  13.0540  0.00  0.00     0.000 C
ATOM     17   O  A00 X   1      54.093  34.873  13.2490  0.00  0.00     0.000 OA
ATOM     18   O  A00 X   1      52.778  33.433  14.0060  0.00  0.00     0.000 OA
ENDBRANCH 5 16
BRANCH 1 19
ATOM     19  O4  A00 X   2      50.068  34.145  12.8430  0.00  0.00     0.000 O
BRANCH 19 23
ATOM     20  C1  A00 X   2      47.044  31.552  11.2620  0.00  0.00     0.000 C
ATOM     21  C2  A00 X   2      46.685  33.048  11.4330  0.00  0.00     0.000 C
ATOM     22  C3  A00 X   2      47.958  33.905  11.5860  0.00  0.00     0.000 C
ATOM     23  C4  A00 X   2      48.842  33.365  12.7330  0.00  0.00     0.000 C
ATOM     24  C5  A00 X   2      49.115  31.861  12.4550  0.00  0.00     0.000 C
ATOM     25  O5  A00 X   2      47.846  31.158  12.4070  0.00  0.00     0.000 O
ATOM     26   O  A00 X   2      47.576  35.288  11.6730  0.00  0.00     0.000 O
ATOM     28  HD  A00 X   2      46.988  35.139  12.2900  0.00  0.00     0.000 HD
BRANCH 21 30
ATOM     28   N  A00 X   2      45.315  32.642  11.7660  0.00  0.00     0.000 N
ATOM     30  HD  A00 X   2      45.289  33.489  11.5850  0.00  0.00     0.000 HD
ATOM     30   O  A00 X   2      43.861  34.313  11.0230  0.00  0.00     0.000 OA
ATOM     31   S  A00 X   2      44.294  33.747  12.2510  0.00  0.00     0.000 S
ATOM     32   O  A00 X   2      43.298  33.001  12.9560  0.00  0.00     0.000 OA
ATOM     33   O  A00 X   2      44.999  34.610  13.1510  0.00  0.00     0.000 OA
ENDBRANCH 21 30
BRANCH 24 34
ATOM     34   C  A00 X   2      50.164  31.140  13.3330  0.00  0.00     0.000 C
ATOM     35   O  A00 X   2      49.955  30.868  16.9570  0.00  0.00     0.000 OA
ATOM     36   O  A00 X   2      50.015  31.492  14.7220  0.00  0.00     0.000 O
ATOM     37   O  A00 X   2      48.257  30.147  15.4780  0.00  0.00     0.000 OA
ATOM     38   S  A00 X   2      49.665  30.297  15.6830  0.00  0.00     0.000 S
ATOM     39   O  A00 X   2      50.512  29.207  15.2990  0.00  0.00     0.000 OA
ENDBRANCH 24 34
BRANCH 20 40
ATOM     40  O4  A00 X   3      47.840  31.478  10.0710  0.00  0.00     0.000 O
BRANCH 40 44
ATOM     41  C1  A00 X   3      50.748  30.104   8.4030  0.00  0.00     0.000 C
ATOM     42  C2  A00 X   3      49.765  31.112   7.7700  0.00  0.00     0.000 C
ATOM     43  C3  A00 X   3      48.299  30.632   7.9280  0.00  0.00     0.000 C
ATOM     44  C4  A00 X   3      47.913  30.232   9.3460  0.00  0.00     0.000 C
ATOM     45  C5  A00 X   3      48.944  29.215   9.9110  0.00  0.00     0.000 C
ATOM     46  O5  A00 X   3      50.313  29.704   9.7320  0.00  0.00     0.000 O
ATOM     47   O  A00 X   3      47.307  31.444   7.3030  0.00  0.00     0.000 O
ATOM     49  HD  A00 X   3      46.862  31.257   8.0220  0.00  0.00     0.000 HD
BRANCH 42 49
ATOM     49   O  A00 X   3      49.978  32.381   8.4270  0.00  0.00     0.000 O
ATOM     50   O  A00 X   3      49.013  34.569   8.3240  0.00  0.00     0.000 OA
ATOM     51   O  A00 X   3      49.388  33.392   6.3080  0.00  0.00     0.000 OA
ATOM     52   O  A00 X   3      51.260  34.139   7.5430  0.00  0.00     0.000 OA
ATOM     53   S  A00 X   3      49.907  33.708   7.6160  0.00  0.00     0.000 S
ENDBRANCH 42 49
BRANCH 45 54
ATOM     54   C  A00 X   3      48.726  27.809   9.3390  0.00  0.00     0.000 C
ATOM     55   O  A00 X   3      49.203  26.837   9.8880  0.00  0.00     0.000 OA
ATOM     56   O  A00 X   3      48.070  27.642   8.3230  0.00  0.00     0.000 OA
ENDBRANCH 45 54
BRANCH 41 57
ATOM     57  O4  A00 X   4      51.021  28.996   7.5160  0.00  0.00     0.000 O
BRANCH 57 61
ATOM     58  C1  A00 X   4      54.485  26.487   6.9300  0.00  0.00     0.000 C
ATOM     59  C2  A00 X   4      53.789  26.479   8.3150  0.00  0.00     0.000 C
ATOM     60  C3  A00 X   4      52.385  27.116   8.3000  0.00  0.00     0.000 C
ATOM     61  C4  A00 X   4      52.381  28.479   7.5750  0.00  0.00     0.000 C
ATOM     62  C5  A00 X   4      52.916  28.213   6.1460  0.00  0.00     0.000 C
ATOM     63  O5  A00 X   4      54.283  27.735   6.2290  0.00  0.00     0.000 O
BRANCH 59 66
ATOM     64   N  A00 X   4      54.586  27.280   9.2620  0.00  0.00     0.000 N
ATOM     66  HD  A00 X   4      55.073  27.917   8.9360  0.00  0.00     0.000 HD
ATOM     66   O  A00 X   4      55.973  25.337   9.5820  0.00  0.00     0.000 OA
ATOM     67   S  A00 X   4      55.549  26.510  10.2810  0.00  0.00     0.000 S
ATOM     68   O  A00 X   4      56.560  27.507  10.4840  0.00  0.00     0.000 OA
ATOM     69   O  A00 X   4      54.658  26.341  11.3930  0.00  0.00     0.000 OA
ENDBRANCH 59 66
BRANCH 62 70
ATOM     70   C  A00 X   4      52.884  29.452   5.2190  0.00  0.00     0.000 C
ATOM     71   O  A00 X   4      54.871  32.472   5.4130  0.00  0.00     0.000 OA
ATOM     72   O  A00 X   4      52.548  32.177   5.1690  0.00  0.00     0.000 OA
ATOM     73   O  A00 X   4      54.007  30.297   5.5180  0.00  0.00     0.000 O
ATOM     74   O  A00 X   4      53.586  31.812   7.3430  0.00  0.00     0.000 OA
ATOM     75   S  A00 X   4      53.718  31.785   5.9220  0.00  0.00     0.000 S
ENDBRANCH 62 70
ENDBRANCH 57 61
ENDBRANCH 41 57
ENDBRANCH 40 44
ENDBRANCH 20 40
ENDBRANCH 19 23
ENDBRANCH 1 19
TORSDOF 14
ENDMDL
MODEL 72
REMARK VINA RESULT:      -0.2     59.526     65.373
ROOT
ATOM      1  C1  A00 X   1      48.626  30.745  53.8790  0.00  0.00     0.000 C
ATOM      2  C2  A00 X   1      49.803  30.117  53.0870  0.00  0.00     0.000 C
ATOM      3  C3  A00 X   1      51.096  29.805  53.9100  0.00  0.00     0.000 C
ATOM      4  C4  A00 X   1      51.184  30.485  55.3000  0.00  0.00     0.000 C
ATOM      5  C5  A00 X   1      50.297  31.727  55.3930  0.00  0.00     0.000 C
ATOM      6  O5  A00 X   1      48.952  31.232  55.2040  0.00  0.00     0.000 O
ATOM      7   O  A00 X   1      52.229  30.252  53.1690  0.00  0.00     0.000 O
ATOM      9  HD  A00 X   1      52.366  30.465  53.9970  0.00  0.00     0.000 HD
ATOM      9   O  A00 X   1      50.850  29.575  56.3480  0.00  0.00     0.000 O
ATOM     11  HD  A00 X   1      50.986  29.788  57.1760  0.00  0.00     0.000 HD
ENDROOT
BRANCH 2 11
ATOM     11   O  A00 X   1      49.325  28.898  52.4850  0.00  0.00     0.000 O
ATOM     12   O  A00 X   1      50.708  27.567  51.0410  0.00  0.00     0.000 OA
ATOM     13   O  A00 X   1      50.093  29.819  50.3560  0.00  0.00     0.000 OA
ATOM     14   O  A00 X   1      48.450  28.103  50.4710  0.00  0.00     0.000 OA
ATOM     15   S  A00 X   1      49.697  28.593  50.9930  0.00  0.00     0.000 S
ENDBRANCH 2 11
BRANCH 5 16
ATOM     16   C  A00 X   1      50.672  32.863  54.4360  0.00  0.00     0.000 C
ATOM     17   O  A00 X   1      49.901  33.792  54.3060  0.00  0.00     0.000 OA
ATOM     18   O  A00 X   1      51.713  32.871  53.8090  0.00  0.00     0.000 OA
ENDBRANCH 5 16
BRANCH 1 19
ATOM     19  O4  A00 X   2      47.903  31.741  53.1140  0.00  0.00     0.000 O
BRANCH 19 23
ATOM     20  C1  A00 X   2      44.084  30.644  54.7190  0.00  0.00     0.000 C
ATOM     21  C2  A00 X   2      44.469  30.068  53.3350  0.00  0.00     0.000 C
ATOM     22  C3  A00 X   2      45.989  30.184  53.0960  0.00  0.00     0.000 C
ATOM     23  C4  A00 X   2      46.460  31.642  53.2910  0.00  0.00     0.000 C
ATOM     24  C5  A00 X   2      45.999  32.106  54.7000  0.00  0.00     0.000 C
ATOM     25  O5  A00 X   2      44.552  32.018  54.7700  0.00  0.00     0.000 O
ATOM     26   O  A00 X   2      46.304  29.575  51.8320  0.00  0.00     0.000 O
ATOM     28  HD  A00 X   2      45.689  30.015  51.4100  0.00  0.00     0.000 HD
BRANCH 21 30
ATOM     28   N  A00 X   2      43.058  30.157  52.9470  0.00  0.00     0.000 N
ATOM     30  HD  A00 X   2      43.444  29.638  52.3710  0.00  0.00     0.000 HD
ATOM     30   O  A00 X   2      42.604  28.421  51.4520  0.00  0.00     0.000 OA
ATOM     31   S  A00 X   2      42.662  29.839  51.4500  0.00  0.00     0.000 S
ATOM     32   O  A00 X   2      41.401  30.496  51.2870  0.00  0.00     0.000 OA
ATOM     33   O  A00 X   2      43.651  30.448  50.6120  0.00  0.00     0.000 OA
ENDBRANCH 21 30
BRANCH 24 34
ATOM     34   C  A00 X   2      46.542  33.452  55.2350  0.00  0.00     0.000 C
ATOM     35   O  A00 X   2      46.066  36.652  53.5660  0.00  0.00     0.000 OA
ATOM     36   O  A00 X   2      46.515  34.469  54.2140  0.00  0.00     0.000 O
ATOM     37   O  A00 X   2      44.297  35.214  54.1940  0.00  0.00     0.000 OA
ATOM     38   S  A00 X   2      45.598  35.708  54.5270  0.00  0.00     0.000 S
ATOM     39   O  A00 X   2      45.845  36.060  55.8930  0.00  0.00     0.000 OA
ENDBRANCH 24 34
BRANCH 20 40
ATOM     40  O4  A00 X   3      44.801  29.856  55.6810  0.00  0.00     0.000 O
BRANCH 40 44
ATOM     41  C1  A00 X   3      46.782  29.757  58.7120  0.00  0.00     0.000 C
ATOM     42  C2  A00 X   3      46.416  28.523  57.8590  0.00  0.00     0.000 C
ATOM     43  C3  A00 X   3      44.892  28.474  57.5780  0.00  0.00     0.000 C
ATOM     44  C4  A00 X   3      44.307  29.771  57.0340  0.00  0.00     0.000 C
ATOM     45  C5  A00 X   3      44.713  30.963  57.9470  0.00  0.00     0.000 C
ATOM     46  O5  A00 X   3      46.157  30.963  58.1930  0.00  0.00     0.000 O
ATOM     47   O  A00 X   3      44.426  27.328  56.8700  0.00  0.00     0.000 O
ATOM     49  HD  A00 X   3      43.917  27.913  56.4840  0.00  0.00     0.000 HD
BRANCH 42 49
ATOM     49   O  A00 X   3      47.176  28.615  56.6340  0.00  0.00     0.000 O
ATOM     50   O  A00 X   3      47.353  27.355  54.6060  0.00  0.00     0.000 OA
ATOM     51   O  A00 X   3      47.204  26.196  56.6610  0.00  0.00     0.000 OA
ATOM     52   O  A00 X   3      49.163  27.438  56.2080  0.00  0.00     0.000 OA
ATOM     53   S  A00 X   3      47.764  27.333  55.9750  0.00  0.00     0.000 S
ENDBRANCH 42 49
BRANCH 45 54
ATOM     54   C  A00 X   3      43.881  31.001  59.2340  0.00  0.00     0.000 C
ATOM     55   O  A00 X   3      43.148  30.078  59.5250  0.00  0.00     0.000 OA
ATOM     56   O  A00 X   3      43.940  31.960  59.9880  0.00  0.00     0.000 OA
ENDBRANCH 45 54
BRANCH 41 57
ATOM     57  O4  A00 X   4      46.537  29.526  60.1170  0.00  0.00     0.000 O
BRANCH 57 61
ATOM     58  C1  A00 X   4      48.522  30.871  63.7070  0.00  0.00     0.000 C
ATOM     59  C2  A00 X   4      47.891  31.929  62.7680  0.00  0.00     0.000 C
ATOM     60  C3  A00 X   4      46.918  31.330  61.7330  0.00  0.00     0.000 C
ATOM     61  C4  A00 X   4      47.523  30.103  61.0200  0.00  0.00     0.000 C
ATOM     62  C5  A00 X   4      47.889  29.089  62.1320  0.00  0.00     0.000 C
ATOM     63  O5  A00 X   4      48.899  29.671  62.9950  0.00  0.00     0.000 O
BRANCH 59 66
ATOM     64   N  A00 X   4      49.229  32.257  62.2440  0.00  0.00     0.000 N
ATOM     66  HD  A00 X   4      49.869  31.694  62.4000  0.00  0.00     0.000 HD
ATOM     66   O  A00 X   4      49.334  34.013  63.8880  0.00  0.00     0.000 OA
ATOM     67   S  A00 X   4      49.852  33.688  62.5960  0.00  0.00     0.000 S
ATOM     68   O  A00 X   4      51.251  33.379  62.5510  0.00  0.00     0.000 OA
ATOM     69   O  A00 X   4      49.381  34.451  61.4750  0.00  0.00     0.000 OA
ENDBRANCH 59 66
BRANCH 62 70
ATOM     70   C  A00 X   4      48.415  27.733  61.6040  0.00  0.00     0.000 C
ATOM     71   O  A00 X   4      51.556  27.015  59.9530  0.00  0.00     0.000 OA
ATOM     72   O  A00 X   4      49.350  26.434  59.3720  0.00  0.00     0.000 OA
ATOM     73   O  A00 X   4      49.801  27.867  61.2500  0.00  0.00     0.000 O
ATOM     74   O  A00 X   4      50.126  28.717  59.0190  0.00  0.00     0.000 OA
ATOM     75   S  A00 X   4      50.221  27.514  59.7810  0.00  0.00     0.000 S
ENDBRANCH 62 70
ENDBRANCH 57 61
ENDBRANCH 41 57
ENDBRANCH 40 44
ENDBRANCH 20 40
ENDBRANCH 19 23
ENDBRANCH 1 19
TORSDOF 14
ENDMDL
MODEL 73
REMARK VINA RESULT:      -0.2     57.355     62.592
ROOT
ATOM      1  C1  A00 X   1      34.122  33.836  54.6910  0.00  0.00     0.000 C
ATOM      2  C2  A00 X   1      33.082  32.688  54.7770  0.00  0.00     0.000 C
ATOM      3  C3  A00 X   1      33.441  31.505  55.7360  0.00  0.00     0.000 C
ATOM      4  C4  A00 X   1      34.922  31.439  56.1910  0.00  0.00     0.000 C
ATOM      5  C5  A00 X   1      35.854  32.175  55.2290  0.00  0.00     0.000 C
ATOM      6  O5  A00 X   1      35.418  33.552  55.2760  0.00  0.00     0.000 O
ATOM      7   O  A00 X   1      33.168  30.275  55.0680  0.00  0.00     0.000 O
ATOM      9  HD  A00 X   1      33.917  30.176  55.4900  0.00  0.00     0.000 HD
ATOM      9   O  A00 X   1      35.085  31.956  57.5110  0.00  0.00     0.000 O
ATOM     11  HD  A00 X   1      35.835  31.856  57.9330  0.00  0.00     0.000 HD
ENDROOT
BRANCH 2 11
ATOM     11   O  A00 X   1      31.827  33.263  55.1900  0.00  0.00     0.000 O
ATOM     12   O  A00 X   1      29.803  31.973  55.2650  0.00  0.00     0.000 OA
ATOM     13   O  A00 X   1      30.894  32.351  53.1250  0.00  0.00     0.000 OA
ATOM     14   O  A00 X   1      29.866  34.153  54.2880  0.00  0.00     0.000 OA
ATOM     15   S  A00 X   1      30.523  32.880  54.4090  0.00  0.00     0.000 S
ENDBRANCH 2 11
BRANCH 5 16
ATOM     16   C  A00 X   1      35.909  31.598  53.8110  0.00  0.00     0.000 C
ATOM     17   O  A00 X   1      35.506  30.468  53.6270  0.00  0.00     0.000 OA
ATOM     18   O  A00 X   1      36.335  32.231  52.8650  0.00  0.00     0.000 OA
ENDBRANCH 5 16
BRANCH 1 19
ATOM     19  O4  A00 X   2      34.253  34.377  53.3540  0.00  0.00     0.000 O
BRANCH 19 23
ATOM     20  C1  A00 X   2      34.896  38.391  54.7080  0.00  0.00     0.000 C
ATOM     21  C2  A00 X   2      33.464  38.009  54.2610  0.00  0.00     0.000 C
ATOM     22  C3  A00 X   2      33.292  36.476  54.2230  0.00  0.00     0.000 C
ATOM     23  C4  A00 X   2      34.387  35.827  53.3480  0.00  0.00     0.000 C
ATOM     24  C5  A00 X   2      35.766  36.301  53.8840  0.00  0.00     0.000 C
ATOM     25  O5  A00 X   2      35.828  37.748  53.7980  0.00  0.00     0.000 O
ATOM     26   O  A00 X   2      31.931  36.174  53.8700  0.00  0.00     0.000 O
ATOM     28  HD  A00 X   2      31.939  36.700  53.1820  0.00  0.00     0.000 HD
BRANCH 21 30
ATOM     28   N  A00 X   2      33.303  39.372  53.7460  0.00  0.00     0.000 N
ATOM     30  HD  A00 X   2      32.510  39.026  53.7940  0.00  0.00     0.000 HD
ATOM     30   O  A00 X   2      31.054  39.968  53.9590  0.00  0.00     0.000 OA
ATOM     31   S  A00 X   2      31.997  39.724  52.9270  0.00  0.00     0.000 S
ATOM     32   O  A00 X   2      32.374  40.876  52.1680  0.00  0.00     0.000 OA
ATOM     33   O  A00 X   2      31.734  38.618  52.0540  0.00  0.00     0.000 OA
ENDBRANCH 21 30
BRANCH 24 34
ATOM     34   C  A00 X   2      37.036  35.615  53.3280  0.00  0.00     0.000 C
ATOM     35   O  A00 X   2      39.740  37.382  51.6470  0.00  0.00     0.000 OA
ATOM     36   O  A00 X   2      37.744  36.483  52.4210  0.00  0.00     0.000 O
ATOM     37   O  A00 X   2      38.961  37.913  53.8160  0.00  0.00     0.000 OA
ATOM     38   S  A00 X   2      39.202  36.871  52.8650  0.00  0.00     0.000 S
ATOM     39   O  A00 X   2      39.814  35.667  53.3410  0.00  0.00     0.000 OA
ENDBRANCH 24 34
BRANCH 20 40
ATOM     40  O4  A00 X   3      35.051  37.840  56.0240  0.00  0.00     0.000 O
BRANCH 40 44
ATOM     41  C1  A00 X   3      37.107  36.137  58.4730  0.00  0.00     0.000 C
ATOM     42  C2  A00 X   3      35.652  36.595  58.7110  0.00  0.00     0.000 C
ATOM     43  C3  A00 X   3      35.468  38.085  58.3230  0.00  0.00     0.000 C
ATOM     44  C4  A00 X   3      35.989  38.447  56.9380  0.00  0.00     0.000 C
ATOM     45  C5  A00 X   3      37.457  37.960  56.7770  0.00  0.00     0.000 C
ATOM     46  O5  A00 X   3      37.586  36.553  57.1640  0.00  0.00     0.000 O
ATOM     47   O  A00 X   3      34.181  38.642  58.5820  0.00  0.00     0.000 O
ATOM     49  HD  A00 X   3      34.323  39.036  57.8250  0.00  0.00     0.000 HD
BRANCH 42 49
ATOM     49   O  A00 X   3      34.803  35.734  57.9200  0.00  0.00     0.000 O
ATOM     50   O  A00 X   3      32.459  35.551  57.4710  0.00  0.00     0.000 OA
ATOM     51   O  A00 X   3      33.165  36.004  59.6810  0.00  0.00     0.000 OA
ATOM     52   O  A00 X   3      33.636  33.878  58.7610  0.00  0.00     0.000 OA
ATOM     53   S  A00 X   3      33.430  35.257  58.4770  0.00  0.00     0.000 S
ENDBRANCH 42 49
BRANCH 45 54
ATOM     54   C  A00 X   3      38.443  38.879  57.5070  0.00  0.00     0.000 C
ATOM     55   O  A00 X   3      38.042  39.769  58.2290  0.00  0.00     0.000 OA
ATOM     56   O  A00 X   3      39.649  38.733  57.3750  0.00  0.00     0.000 OA
ENDBRANCH 45 54
BRANCH 41 57
ATOM     57  O4  A00 X   4      37.973  36.522  59.5640  0.00  0.00     0.000 O
BRANCH 57 61
ATOM     58  C1  A00 X   4      41.450  34.688  61.3500  0.00  0.00     0.000 C
ATOM     59  C2  A00 X   4      41.524  35.131  59.8680  0.00  0.00     0.000 C
ATOM     60  C3  A00 X   4      40.382  36.080  59.4510  0.00  0.00     0.000 C
ATOM     61  C4  A00 X   4      39.004  35.553  59.9070  0.00  0.00     0.000 C
ATOM     62  C5  A00 X   4      39.090  35.382  61.4440  0.00  0.00     0.000 C
ATOM     63  O5  A00 X   4      40.096  34.385  61.7580  0.00  0.00     0.000 O
BRANCH 59 66
ATOM     64   N  A00 X   4      41.406  33.963  58.9770  0.00  0.00     0.000 N
ATOM     66  HD  A00 X   4      40.962  33.280  59.2700  0.00  0.00     0.000 HD
ATOM     66   O  A00 X   4      43.753  33.569  59.3490  0.00  0.00     0.000 OA
ATOM     67   S  A00 X   4      42.746  33.343  58.3600  0.00  0.00     0.000 S
ATOM     68   O  A00 X   4      42.344  31.977  58.1890  0.00  0.00     0.000 OA
ATOM     69   O  A00 X   4      42.829  34.089  57.1360  0.00  0.00     0.000 OA
ENDBRANCH 59 66
BRANCH 62 70
ATOM     70   C  A00 X   4      37.757  34.961  62.1080  0.00  0.00     0.000 C
ATOM     71   O  A00 X   4      36.028  31.787  61.8960  0.00  0.00     0.000 OA
ATOM     72   O  A00 X   4      35.239  33.987  61.6060  0.00  0.00     0.000 OA
ATOM     73   O  A00 X   4      37.577  33.544  61.9550  0.00  0.00     0.000 O
ATOM     74   O  A00 X   4      36.569  32.944  59.8510  0.00  0.00     0.000 OA
ATOM     75   S  A00 X   4      36.272  33.043  61.2430  0.00  0.00     0.000 S
ENDBRANCH 62 70
ENDBRANCH 57 61
ENDBRANCH 41 57
ENDBRANCH 40 44
ENDBRANCH 20 40
ENDBRANCH 19 23
ENDBRANCH 1 19
TORSDOF 14
ENDMDL
MODEL 74
REMARK VINA RESULT:      -0.2     65.610     71.285
ROOT
ATOM      1  C1  A00 X   1      42.524  20.152  69.3890  0.00  0.00     0.000 C
ATOM      2  C2  A00 X   1      41.538  20.041  70.5830  0.00  0.00     0.000 C
ATOM      3  C3  A00 X   1      41.960  20.783  71.8940  0.00  0.00     0.000 C
ATOM      4  C4  A00 X   1      43.447  21.217  71.9670  0.00  0.00     0.000 C
ATOM      5  C5  A00 X   1      44.335  20.394  71.0350  0.00  0.00     0.000 C
ATOM      6  O5  A00 X   1      43.837  20.676  69.7080  0.00  0.00     0.000 O
ATOM      7   O  A00 X   1      41.737  19.915  73.0030  0.00  0.00     0.000 O
ATOM      9  HD  A00 X   1      42.495  20.312  73.1380  0.00  0.00     0.000 HD
ATOM      9   O  A00 X   1      43.600  22.606  71.6770  0.00  0.00     0.000 O
ATOM     11  HD  A00 X   1      44.357  23.004  71.8120  0.00  0.00     0.000 HD
ENDROOT
BRANCH 2 11
ATOM     11   O  A00 X   1      40.262  20.549  70.1470  0.00  0.00     0.000 O
ATOM     12   O  A00 X   1      38.430  20.859  71.6680  0.00  0.00     0.000 OA
ATOM     13   O  A00 X   1      39.273  18.614  71.2600  0.00  0.00     0.000 OA
ATOM     14   O  A00 X   1      38.134  19.803  69.5450  0.00  0.00     0.000 OA
ATOM     15   S  A00 X   1      38.953  19.907  70.7210  0.00  0.00     0.000 S
ENDBRANCH 2 11
BRANCH 5 16
ATOM     16   C  A00 X   1      44.403  18.898  71.3580  0.00  0.00     0.000 C
ATOM     17   O  A00 X   1      44.910  18.150  70.5480  0.00  0.00     0.000 OA
ATOM     18   O  A00 X   1      43.974  18.435  72.3970  0.00  0.00     0.000 OA
ENDBRANCH 5 16
BRANCH 1 19
ATOM     19  O4  A00 X   2      42.617  18.926  68.6230  0.00  0.00     0.000 O
BRANCH 19 23
ATOM     20  C1  A00 X   2      42.813  20.943  64.8470  0.00  0.00     0.000 C
ATOM     21  C2  A00 X   2      41.437  20.390  65.2910  0.00  0.00     0.000 C
ATOM     22  C3  A00 X   2      41.426  20.095  66.8050  0.00  0.00     0.000 C
ATOM     23  C4  A00 X   2      42.599  19.163  67.1860  0.00  0.00     0.000 C
ATOM     24  C5  A00 X   2      43.911  19.817  66.6730  0.00  0.00     0.000 C
ATOM     25  O5  A00 X   2      43.823  19.973  65.2320  0.00  0.00     0.000 O
ATOM     26   O  A00 X   2      40.111  19.650  67.1790  0.00  0.00     0.000 O
ATOM     28  HD  A00 X   2      40.076  19.060  66.5470  0.00  0.00     0.000 HD
BRANCH 21 30
ATOM     28   N  A00 X   2      41.143  20.100  63.8840  0.00  0.00     0.000 N
ATOM     30  HD  A00 X   2      40.390  20.064  64.3100  0.00  0.00     0.000 HD
ATOM     30   O  A00 X   2      38.840  20.332  63.5600  0.00  0.00     0.000 OA
ATOM     31   S  A00 X   2      39.822  19.306  63.5340  0.00  0.00     0.000 S
ATOM     32   O  A00 X   2      40.088  18.759  62.2400  0.00  0.00     0.000 OA
ATOM     33   O  A00 X   2      39.690  18.256  64.5000  0.00  0.00     0.000 OA
ENDBRANCH 21 30
BRANCH 24 34
ATOM     34   C  A00 X   2      45.255  19.199  67.1250  0.00  0.00     0.000 C
ATOM     35   O  A00 X   2      47.646  17.638  64.8670  0.00  0.00     0.000 OA
ATOM     36   O  A00 X   2      45.815  18.356  66.0990  0.00  0.00     0.000 O
ATOM     37   O  A00 X   2      46.841  19.847  64.6170  0.00  0.00     0.000 OA
ATOM     38   S  A00 X   2      47.210  18.817  65.5390  0.00  0.00     0.000 S
ATOM     39   O  A00 X   2      47.997  19.195  66.6750  0.00  0.00     0.000 OA
ENDBRANCH 24 34
BRANCH 20 40
ATOM     40  O4  A00 X   3      43.003  22.155  65.5920  0.00  0.00     0.000 O
BRANCH 40 44
ATOM     41  C1  A00 X   3      45.263  24.167  67.5830  0.00  0.00     0.000 C
ATOM     42  C2  A00 X   3      43.792  24.530  67.2850  0.00  0.00     0.000 C
ATOM     43  C3  A00 X   3      43.496  24.445  65.7660  0.00  0.00     0.000 C
ATOM     44  C4  A00 X   3      43.936  23.144  65.1070  0.00  0.00     0.000 C
ATOM     45  C5  A00 X   3      45.424  22.851  65.4480  0.00  0.00     0.000 C
ATOM     46  O5  A00 X   3      45.660  22.952  66.8890  0.00  0.00     0.000 O
ATOM     47   O  A00 X   3      42.187  24.844  65.3630  0.00  0.00     0.000 O
ATOM     49  HD  A00 X   3      42.272  24.174  64.8210  0.00  0.00     0.000 HD
BRANCH 42 49
ATOM     49   O  A00 X   3      42.969  23.610  68.0360  0.00  0.00     0.000 O
ATOM     50   O  A00 X   3      40.627  23.180  68.2750  0.00  0.00     0.000 OA
ATOM     51   O  A00 X   3      41.373  25.422  68.1940  0.00  0.00     0.000 OA
ATOM     52   O  A00 X   3      41.934  24.115  70.0820  0.00  0.00     0.000 OA
ATOM     53   S  A00 X   3      41.643  24.095  68.6900  0.00  0.00     0.000 S
ENDBRANCH 42 49
BRANCH 45 54
ATOM     54   C  A00 X   3      46.378  23.719  64.6180  0.00  0.00     0.000 C
ATOM     55   O  A00 X   3      47.540  23.398  64.4740  0.00  0.00     0.000 OA
ATOM     56   O  A00 X   3      45.986  24.748  64.0890  0.00  0.00     0.000 OA
ENDBRANCH 45 54
BRANCH 41 57
ATOM     57  O4  A00 X   4      46.146  25.288  67.3540  0.00  0.00     0.000 O
BRANCH 57 61
ATOM     58  C1  A00 X   4      49.985  26.408  68.9820  0.00  0.00     0.000 C
ATOM     59  C2  A00 X   4      49.934  25.309  67.8920  0.00  0.00     0.000 C
ATOM     60  C3  A00 X   4      48.588  25.250  67.1410  0.00  0.00     0.000 C
ATOM     61  C4  A00 X   4      47.389  25.261  68.1130  0.00  0.00     0.000 C
ATOM     62  C5  A00 X   4      47.528  26.550  68.9610  0.00  0.00     0.000 C
ATOM     63  O5  A00 X   4      48.753  26.482  69.7350  0.00  0.00     0.000 O
BRANCH 59 66
ATOM     64   N  A00 X   4      50.103  23.972  68.4890  0.00  0.00     0.000 N
ATOM     66  HD  A00 X   4      49.843  23.864  69.3080  0.00  0.00     0.000 HD
ATOM     66   O  A00 X   4      52.476  24.381  68.4850  0.00  0.00     0.000 OA
ATOM     67   S  A00 X   4      51.550  23.293  68.4290  0.00  0.00     0.000 S
ATOM     68   O  A00 X   4      51.497  22.467  69.6000  0.00  0.00     0.000 OA
ATOM     69   O  A00 X   4      51.440  22.571  67.1940  0.00  0.00     0.000 OA
ENDBRANCH 59 66
BRANCH 62 70
ATOM     70   C  A00 X   4      46.347  26.800  69.9290  0.00  0.00     0.000 C
ATOM     71   O  A00 X   4      45.921  25.619  73.3250  0.00  0.00     0.000 OA
ATOM     72   O  A00 X   4      44.453  25.559  71.4840  0.00  0.00     0.000 OA
ATOM     73   O  A00 X   4      46.711  26.354  71.2460  0.00  0.00     0.000 O
ATOM     74   O  A00 X   4      46.324  24.000  71.5850  0.00  0.00     0.000 OA
ATOM     75   S  A00 X   4      45.799  25.280  71.9350  0.00  0.00     0.000 S
ENDBRANCH 62 70
ENDBRANCH 57 61
ENDBRANCH 41 57
ENDBRANCH 40 44
ENDBRANCH 20 40
ENDBRANCH 19 23
ENDBRANCH 1 19
TORSDOF 14
ENDMDL
MODEL 75
REMARK VINA RESULT:      -0.2     65.149     70.815
ROOT
ATOM      1  C1  A00 X   1      43.178  19.232  69.1060  0.00  0.00     0.000 C
ATOM      2  C2  A00 X   1      42.552  18.558  70.3560  0.00  0.00     0.000 C
ATOM      3  C3  A00 X   1      42.755  19.306  71.7140  0.00  0.00     0.000 C
ATOM      4  C4  A00 X   1      43.845  20.409  71.7140  0.00  0.00     0.000 C
ATOM      5  C5  A00 X   1      44.872  20.205  70.6000  0.00  0.00     0.000 C
ATOM      6  O5  A00 X   1      44.110  20.308  69.3760  0.00  0.00     0.000 O
ATOM      7   O  A00 X   1      43.140  18.357  72.7070  0.00  0.00     0.000 O
ATOM      9  HD  A00 X   1      43.626  19.064  72.8280  0.00  0.00     0.000 HD
ATOM      9   O  A00 X   1      43.270  21.711  71.6080  0.00  0.00     0.000 O
ATOM     11  HD  A00 X   1      43.755  22.418  71.7290  0.00  0.00     0.000 HD
ENDROOT
BRANCH 2 11
ATOM     11   O  A00 X   1      41.141  18.404  70.1110  0.00  0.00     0.000 O
ATOM     12   O  A00 X   1      39.630  17.650  71.8190  0.00  0.00     0.000 OA
ATOM     13   O  A00 X   1      41.375  16.152  71.0280  0.00  0.00     0.000 OA
ATOM     14   O  A00 X   1      39.567  16.755  69.6040  0.00  0.00     0.000 OA
ATOM     15   S  A00 X   1      40.400  17.157  70.7060  0.00  0.00     0.000 S
ENDBRANCH 2 11
BRANCH 5 16
ATOM     16   C  A00 X   1      45.694  18.917  70.7030  0.00  0.00     0.000 C
ATOM     17   O  A00 X   1      46.372  18.582  69.7540  0.00  0.00     0.000 OA
ATOM     18   O  A00 X   1      45.696  18.224  71.7010  0.00  0.00     0.000 OA
ENDBRANCH 5 16
BRANCH 1 19
ATOM     19  O4  A00 X   2      43.732  18.275  68.1700  0.00  0.00     0.000 O
BRANCH 19 23
ATOM     20  C1  A00 X   2      42.383  20.415  64.7110  0.00  0.00     0.000 C
ATOM     21  C2  A00 X   2      41.522  19.223  65.1950  0.00  0.00     0.000 C
ATOM     22  C3  A00 X   2      41.876  18.844  66.6480  0.00  0.00     0.000 C
ATOM     23  C4  A00 X   2      43.393  18.584  66.7880  0.00  0.00     0.000 C
ATOM     24  C5  A00 X   2      44.140  19.837  66.2550  0.00  0.00     0.000 C
ATOM     25  O5  A00 X   2      43.778  20.041  64.8650  0.00  0.00     0.000 O
ATOM     26   O  A00 X   2      41.005  17.781  67.0730  0.00  0.00     0.000 O
ATOM     28  HD  A00 X   2      41.165  17.302  66.3700  0.00  0.00     0.000 HD
BRANCH 21 30
ATOM     28   N  A00 X   2      41.199  18.937  63.7940  0.00  0.00     0.000 N
ATOM     30  HD  A00 X   2      40.627  18.501  64.2770  0.00  0.00     0.000 HD
ATOM     30   O  A00 X   2      39.048  18.029  63.7140  0.00  0.00     0.000 OA
ATOM     31   S  A00 X   2      40.385  17.625  63.4560  0.00  0.00     0.000 S
ATOM     32   O  A00 X   2      40.688  17.383  62.0790  0.00  0.00     0.000 OA
ATOM     33   O  A00 X   2      40.915  16.575  64.2740  0.00  0.00     0.000 OA
ENDBRANCH 21 30
BRANCH 24 34
ATOM     34   C  A00 X   2      45.666  19.928  66.4950  0.00  0.00     0.000 C
ATOM     35   O  A00 X   2      48.152  19.929  63.8350  0.00  0.00     0.000 OA
ATOM     36   O  A00 X   2      46.403  19.554  65.3140  0.00  0.00     0.000 O
ATOM     37   O  A00 X   2      46.360  21.467  63.9690  0.00  0.00     0.000 OA
ATOM     38   S  A00 X   2      47.309  20.684  64.7020  0.00  0.00     0.000 S
ATOM     39   O  A00 X   2      47.975  21.310  65.8040  0.00  0.00     0.000 OA
ENDBRANCH 24 34
BRANCH 20 40
ATOM     40  O4  A00 X   3      42.076  21.500  65.5980  0.00  0.00     0.000 O
BRANCH 40 44
ATOM     41  C1  A00 X   3      43.362  24.203  67.6400  0.00  0.00     0.000 C
ATOM     42  C2  A00 X   3      41.871  23.816  67.5290  0.00  0.00     0.000 C
ATOM     43  C3  A00 X   3      41.433  23.715  66.0460  0.00  0.00     0.000 C
ATOM     44  C4  A00 X   3      42.339  22.855  65.1740  0.00  0.00     0.000 C
ATOM     45  C5  A00 X   3      43.818  23.308  65.3360  0.00  0.00     0.000 C
ATOM     46  O5  A00 X   3      44.185  23.399  66.7500  0.00  0.00     0.000 O
ATOM     47   O  A00 X   3      40.050  23.447  65.8220  0.00  0.00     0.000 O
ATOM     49  HD  A00 X   3      40.364  22.951  65.1860  0.00  0.00     0.000 HD
BRANCH 42 49
ATOM     49   O  A00 X   3      41.710  22.555  68.2140  0.00  0.00     0.000 O
ATOM     50   O  A00 X   3      39.923  21.009  68.6010  0.00  0.00     0.000 OA
ATOM     51   O  A00 X   3      39.484  23.326  68.7680  0.00  0.00     0.000 OA
ATOM     52   O  A00 X   3      40.872  22.322  70.3960  0.00  0.00     0.000 OA
ATOM     53   S  A00 X   3      40.425  22.271  69.0460  0.00  0.00     0.000 S
ENDBRANCH 42 49
BRANCH 45 54
ATOM     54   C  A00 X   3      44.106  24.594  64.5530  0.00  0.00     0.000 C
ATOM     55   O  A00 X   3      45.245  24.900  64.2620  0.00  0.00     0.000 OA
ATOM     56   O  A00 X   3      43.197  25.335  64.2100  0.00  0.00     0.000 OA
ENDBRANCH 45 54
BRANCH 41 57
ATOM     57  O4  A00 X   4      43.556  25.627  67.4920  0.00  0.00     0.000 O
BRANCH 57 61
ATOM     58  C1  A00 X   4      46.582  28.362  68.9090  0.00  0.00     0.000 C
ATOM     59  C2  A00 X   4      46.904  27.469  67.6840  0.00  0.00     0.000 C
ATOM     60  C3  A00 X   4      45.657  26.813  67.0570  0.00  0.00     0.000 C
ATOM     61  C4  A00 X   4      44.756  26.157  68.1240  0.00  0.00     0.000 C
ATOM     62  C5  A00 X   4      44.383  27.276  69.1280  0.00  0.00     0.000 C
ATOM     63  O5  A00 X   4      45.590  27.760  69.7720  0.00  0.00     0.000 O
BRANCH 59 66
ATOM     64   N  A00 X   4      47.778  26.347  68.0720  0.00  0.00     0.000 N
ATOM     66  HD  A00 X   4      47.724  26.061  68.8870  0.00  0.00     0.000 HD
ATOM     66   O  A00 X   4      49.636  27.870  67.9120  0.00  0.00     0.000 OA
ATOM     67   S  A00 X   4      49.347  26.476  67.7880  0.00  0.00     0.000 S
ATOM     68   O  A00 X   4      49.868  25.642  68.8310  0.00  0.00     0.000 OA
ATOM     69   O  A00 X   4      49.416  25.892  66.4780  0.00  0.00     0.000 OA
ENDBRANCH 59 66
BRANCH 62 70
ATOM     70   C  A00 X   4      43.384  26.835  70.2240  0.00  0.00     0.000 C
ATOM     71   O  A00 X   4      44.078  25.337  73.4460  0.00  0.00     0.000 OA
ATOM     72   O  A00 X   4      42.567  24.706  71.7540  0.00  0.00     0.000 OA
ATOM     73   O  A00 X   4      44.106  26.525  71.4280  0.00  0.00     0.000 O
ATOM     74   O  A00 X   4      44.947  24.268  71.4670  0.00  0.00     0.000 OA
ATOM     75   S  A00 X   4      43.931  25.092  72.0390  0.00  0.00     0.000 S
ENDBRANCH 62 70
ENDBRANCH 57 61
ENDBRANCH 41 57
ENDBRANCH 40 44
ENDBRANCH 20 40
ENDBRANCH 19 23
ENDBRANCH 1 19
TORSDOF 14
ENDMDL
MODEL 76
REMARK VINA RESULT:      -0.2     34.505     39.589
ROOT
ATOM      1  C1  A00 X   1      39.999  32.629  21.1170  0.00  0.00     0.000 C
ATOM      2  C2  A00 X   1      38.845  33.655  20.9690  0.00  0.00     0.000 C
ATOM      3  C3  A00 X   1      37.395  33.086  21.1180  0.00  0.00     0.000 C
ATOM      4  C4  A00 X   1      37.271  31.543  21.0270  0.00  0.00     0.000 C
ATOM      5  C5  A00 X   1      38.449  30.912  20.2850  0.00  0.00     0.000 C
ATOM      6  O5  A00 X   1      39.605  31.235  21.0880  0.00  0.00     0.000 O
ATOM      7   O  A00 X   1      36.584  33.619  20.0750  0.00  0.00     0.000 O
ATOM      9  HD  A00 X   1      36.375  32.783  20.1580  0.00  0.00     0.000 HD
ATOM      9   O  A00 X   1      37.144  30.952  22.3210  0.00  0.00     0.000 O
ATOM     11  HD  A00 X   1      36.935  30.116  22.4040  0.00  0.00     0.000 HD
ENDROOT
BRANCH 2 11
ATOM     11   O  A00 X   1      39.047  34.688  21.9530  0.00  0.00     0.000 O
ATOM     12   O  A00 X   1      37.622  36.617  22.0810  0.00  0.00     0.000 OA
ATOM     13   O  A00 X   1      38.983  36.271  20.0940  0.00  0.00     0.000 OA
ATOM     14   O  A00 X   1      40.003  36.806  22.1750  0.00  0.00     0.000 OA
ATOM     15   S  A00 X   1      38.880  36.187  21.5250  0.00  0.00     0.000 S
ENDBRANCH 2 11
BRANCH 5 16
ATOM     16   C  A00 X   1      38.587  31.328  18.8160  0.00  0.00     0.000 C
ATOM     17   O  A00 X   1      39.601  31.028  18.2200  0.00  0.00     0.000 OA
ATOM     18   O  A00 X   1      37.717  31.938  18.2280  0.00  0.00     0.000 OA
ENDBRANCH 5 16
BRANCH 1 19
ATOM     19  O4  A00 X   2      41.098  32.886  20.2080  0.00  0.00     0.000 O
BRANCH 19 23
ATOM     20  C1  A00 X   2      44.104  31.736  23.0380  0.00  0.00     0.000 C
ATOM     21  C2  A00 X   2      43.817  33.249  22.8750  0.00  0.00     0.000 C
ATOM     22  C3  A00 X   2      42.460  33.478  22.1790  0.00  0.00     0.000 C
ATOM     23  C4  A00 X   2      42.399  32.709  20.8400  0.00  0.00     0.000 C
ATOM     24  C5  A00 X   2      42.721  31.218  21.1340  0.00  0.00     0.000 C
ATOM     25  O5  A00 X   2      44.047  31.133  21.7180  0.00  0.00     0.000 O
ATOM     26   O  A00 X   2      42.208  34.893  22.1130  0.00  0.00     0.000 O
ATOM     28  HD  A00 X   2      42.987  35.067  21.7770  0.00  0.00     0.000 HD
BRANCH 21 30
ATOM     28   N  A00 X   2      45.240  33.506  23.1190  0.00  0.00     0.000 N
ATOM     30  HD  A00 X   2      44.828  34.262  23.2160  0.00  0.00     0.000 HD
ATOM     30   O  A00 X   2      45.432  35.573  24.1920  0.00  0.00     0.000 OA
ATOM     31   S  A00 X   2      45.783  34.981  22.9500  0.00  0.00     0.000 S
ATOM     32   O  A00 X   2      47.187  34.802  22.7420  0.00  0.00     0.000 OA
ATOM     33   O  A00 X   2      45.172  35.525  21.7750  0.00  0.00     0.000 OA
ENDBRANCH 21 30
BRANCH 24 34
ATOM     34   C  A00 X   2      42.501  30.190  19.9990  0.00  0.00     0.000 C
ATOM     35   O  A00 X   2      45.168  28.247  18.4610  0.00  0.00     0.000 OA
ATOM     36   O  A00 X   2      43.745  29.847  19.3570  0.00  0.00     0.000 O
ATOM     37   O  A00 X   2      44.720  28.270  20.7830  0.00  0.00     0.000 OA
ATOM     38   S  A00 X   2      44.161  28.334  19.4670  0.00  0.00     0.000 S
ATOM     39   O  A00 X   2      42.979  27.569  19.2110  0.00  0.00     0.000 OA
ENDBRANCH 24 34
BRANCH 20 40
ATOM     40  O4  A00 X   3      43.036  31.223  23.8470  0.00  0.00     0.000 O
BRANCH 40 44
ATOM     41  C1  A00 X   3      40.601  28.588  24.3440  0.00  0.00     0.000 C
ATOM     42  C2  A00 X   3      40.734  29.842  25.2340  0.00  0.00     0.000 C
ATOM     43  C3  A00 X   3      42.200  30.042  25.6970  0.00  0.00     0.000 C
ATOM     44  C4  A00 X   3      43.231  29.993  24.5760  0.00  0.00     0.000 C
ATOM     45  C5  A00 X   3      43.036  28.703  23.7310  0.00  0.00     0.000 C
ATOM     46  O5  A00 X   3      41.637  28.550  23.3250  0.00  0.00     0.000 O
ATOM     47   O  A00 X   3      42.427  31.124  26.5980  0.00  0.00     0.000 O
ATOM     49  HD  A00 X   3      43.147  31.218  26.1260  0.00  0.00     0.000 HD
BRANCH 42 49
ATOM     49   O  A00 X   3      40.269  30.966  24.4540  0.00  0.00     0.000 O
ATOM     50   O  A00 X   3      40.109  33.335  24.7540  0.00  0.00     0.000 OA
ATOM     51   O  A00 X   3      39.540  31.916  26.5570  0.00  0.00     0.000 OA
ATOM     52   O  A00 X   3      38.140  31.935  24.6530  0.00  0.00     0.000 OA
ATOM     53   S  A00 X   3      39.467  32.115  25.1310  0.00  0.00     0.000 S
ENDBRANCH 42 49
BRANCH 45 54
ATOM     54   C  A00 X   3      43.596  27.466  24.4440  0.00  0.00     0.000 C
ATOM     55   O  A00 X   3      43.868  26.461  23.8200  0.00  0.00     0.000 OA
ATOM     56   O  A00 X   3      43.776  27.470  25.6520  0.00  0.00     0.000 OA
ENDBRANCH 45 54
BRANCH 41 57
ATOM     57  O4  A00 X   4      40.510  27.380  25.1340  0.00  0.00     0.000 O
BRANCH 57 61
ATOM     58  C1  A00 X   4      38.743  23.507  24.4180  0.00  0.00     0.000 C
ATOM     59  C2  A00 X   4      40.109  23.831  23.7620  0.00  0.00     0.000 C
ATOM     60  C3  A00 X   4      40.801  25.070  24.3650  0.00  0.00     0.000 C
ATOM     61  C4  A00 X   4      39.833  26.267  24.4840  0.00  0.00     0.000 C
ATOM     62  C5  A00 X   4      38.645  25.782  25.3520  0.00  0.00     0.000 C
ATOM     63  O5  A00 X   4      37.965  24.699  24.6670  0.00  0.00     0.000 O
BRANCH 59 66
ATOM     64   N  A00 X   4      39.946  24.140  22.3300  0.00  0.00     0.000 N
ATOM     66  HD  A00 X   4      39.190  24.479  22.0780  0.00  0.00     0.000 HD
ATOM     66   O  A00 X   4      39.898  21.766  21.9270  0.00  0.00     0.000 OA
ATOM     67   S  A00 X   4      40.250  22.984  21.2670  0.00  0.00     0.000 S
ATOM     68   O  A00 X   4      39.381  23.381  20.1980  0.00  0.00     0.000 OA
ATOM     69   O  A00 X   4      41.642  23.232  21.0160  0.00  0.00     0.000 OA
ENDBRANCH 59 66
BRANCH 62 70
ATOM     70   C  A00 X   4      37.609  26.884  25.6790  0.00  0.00     0.000 C
ATOM     71   O  A00 X   4      34.722  27.917  23.7540  0.00  0.00     0.000 OA
ATOM     72   O  A00 X   4      36.447  29.186  24.7340  0.00  0.00     0.000 OA
ATOM     73   O  A00 X   4      36.503  26.782  24.7680  0.00  0.00     0.000 O
ATOM     74   O  A00 X   4      36.885  27.937  22.6880  0.00  0.00     0.000 OA
ATOM     75   S  A00 X   4      36.145  28.041  23.9040  0.00  0.00     0.000 S
ENDBRANCH 62 70
ENDBRANCH 57 61
ENDBRANCH 41 57
ENDBRANCH 40 44
ENDBRANCH 20 40
ENDBRANCH 19 23
ENDBRANCH 1 19
TORSDOF 14
ENDMDL
MODEL 77
REMARK VINA RESULT:      -0.2     35.671     40.324
ROOT
ATOM      1  C1  A00 X   1      42.286  31.063  14.5320  0.00  0.00     0.000 C
ATOM      2  C2  A00 X   1      40.832  31.445  14.1450  0.00  0.00     0.000 C
ATOM      3  C3  A00 X   1      39.699  30.807  15.0140  0.00  0.00     0.000 C
ATOM      4  C4  A00 X   1      40.128  29.609  15.8980  0.00  0.00     0.000 C
ATOM      5  C5  A00 X   1      41.395  28.931  15.3750  0.00  0.00     0.000 C
ATOM      6  O5  A00 X   1      42.416  29.951  15.4530  0.00  0.00     0.000 O
ATOM      7   O  A00 X   1      38.675  30.325  14.1470  0.00  0.00     0.000 O
ATOM      9  HD  A00 X   1      38.786  29.730  14.7670  0.00  0.00     0.000 HD
ATOM      9   O  A00 X   1      40.318  30.004  17.2560  0.00  0.00     0.000 O
ATOM     11  HD  A00 X   1      40.429  29.409  17.8760  0.00  0.00     0.000 HD
ENDROOT
BRANCH 2 11
ATOM     11   O  A00 X   1      40.724  32.880  14.2120  0.00  0.00     0.000 O
ATOM     12   O  A00 X   1      38.618  34.008  13.9660  0.00  0.00     0.000 OA
ATOM     13   O  A00 X   1      39.517  32.744  12.0930  0.00  0.00     0.000 OA
ATOM     14   O  A00 X   1      40.578  34.746  12.8150  0.00  0.00     0.000 OA
ATOM     15   S  A00 X   1      39.776  33.617  13.2030  0.00  0.00     0.000 S
ENDBRANCH 2 11
BRANCH 5 16
ATOM     16   C  A00 X   1      41.266  28.298  13.9860  0.00  0.00     0.000 C
ATOM     17   O  A00 X   1      42.274  27.933  13.4180  0.00  0.00     0.000 OA
ATOM     18   O  A00 X   1      40.192  28.143  13.4380  0.00  0.00     0.000 OA
ENDBRANCH 5 16
BRANCH 1 19
ATOM     19  O4  A00 X   2      43.149  30.898  13.3800  0.00  0.00     0.000 O
BRANCH 19 23
ATOM     20  C1  A00 X   2      46.525  32.748  15.2630  0.00  0.00     0.000 C
ATOM     21  C2  A00 X   2      45.665  33.623  14.3190  0.00  0.00     0.000 C
ATOM     22  C3  A00 X   2      44.286  32.975  14.0740  0.00  0.00     0.000 C
ATOM     23  C4  A00 X   2      44.451  31.525  13.5640  0.00  0.00     0.000 C
ATOM     24  C5  A00 X   2      45.342  30.763  14.5820  0.00  0.00     0.000 C
ATOM     25  O5  A00 X   2      46.629  31.428  14.6660  0.00  0.00     0.000 O
ATOM     26   O  A00 X   2      43.503  33.855  13.2500  0.00  0.00     0.000 O
ATOM     28  HD  A00 X   2      44.132  33.948  12.6630  0.00  0.00     0.000 HD
BRANCH 21 30
ATOM     28   N  A00 X   2      46.888  34.325  13.9170  0.00  0.00     0.000 N
ATOM     30  HD  A00 X   2      46.221  34.814  13.6580  0.00  0.00     0.000 HD
ATOM     30   O  A00 X   2      46.325  36.535  13.4110  0.00  0.00     0.000 OA
ATOM     31   S  A00 X   2      46.805  35.379  12.7410  0.00  0.00     0.000 S
ATOM     32   O  A00 X   2      48.153  35.468  12.2720  0.00  0.00     0.000 OA
ATOM     33   O  A00 X   2      45.962  34.818  11.7280  0.00  0.00     0.000 OA
ENDBRANCH 21 30
BRANCH 24 34
ATOM     34   C  A00 X   2      45.473  29.229  14.4260  0.00  0.00     0.000 C
ATOM     35   O  A00 X   2      48.582  27.517  13.6140  0.00  0.00     0.000 OA
ATOM     36   O  A00 X   2      46.704  28.874  13.7670  0.00  0.00     0.000 O
ATOM     37   O  A00 X   2      48.319  28.978  15.4560  0.00  0.00     0.000 OA
ATOM     38   S  A00 X   2      47.693  27.998  14.6200  0.00  0.00     0.000 S
ATOM     39   O  A00 X   2      46.897  26.993  15.2580  0.00  0.00     0.000 OA
ENDBRANCH 24 34
BRANCH 20 40
ATOM     40  O4  A00 X   3      45.788  32.663  16.4910  0.00  0.00     0.000 O
BRANCH 40 44
ATOM     41  C1  A00 X   3      44.583  30.532  19.1620  0.00  0.00     0.000 C
ATOM     42  C2  A00 X   3      44.283  32.042  19.0370  0.00  0.00     0.000 C
ATOM     43  C3  A00 X   3      45.588  32.851  18.8250  0.00  0.00     0.000 C
ATOM     44  C4  A00 X   3      46.485  32.326  17.7110  0.00  0.00     0.000 C
ATOM     45  C5  A00 X   3      46.745  30.806  17.9080  0.00  0.00     0.000 C
ATOM     46  O5  A00 X   3      45.488  30.084  18.1150  0.00  0.00     0.000 O
ATOM     47   O  A00 X   3      45.441  34.269  18.7820  0.00  0.00     0.000 O
ATOM     49  HD  A00 X   3      46.039  34.200  18.1590  0.00  0.00     0.000 HD
BRANCH 42 49
ATOM     49   O  A00 X   3      43.375  32.202  17.9250  0.00  0.00     0.000 O
ATOM     50   O  A00 X   3      42.334  34.033  16.7880  0.00  0.00     0.000 OA
ATOM     51   O  A00 X   3      42.467  34.082  19.1480  0.00  0.00     0.000 OA
ATOM     52   O  A00 X   3      41.053  32.483  18.1310  0.00  0.00     0.000 OA
ATOM     53   S  A00 X   3      42.236  33.260  17.9860  0.00  0.00     0.000 S
ENDBRANCH 42 49
BRANCH 45 54
ATOM     54   C  A00 X   3      47.779  30.546  19.0100  0.00  0.00     0.000 C
ATOM     55   O  A00 X   3      48.378  29.491  19.0600  0.00  0.00     0.000 OA
ATOM     56   O  A00 X   3      48.017  31.393  19.8570  0.00  0.00     0.000 OA
ENDBRANCH 45 54
BRANCH 41 57
ATOM     57  O4  A00 X   4      45.011  30.182  20.4970  0.00  0.00     0.000 O
BRANCH 57 61
ATOM     58  C1  A00 X   4      44.830  26.533  22.7980  0.00  0.00     0.000 C
ATOM     59  C2  A00 X   4      45.926  26.671  21.7120  0.00  0.00     0.000 C
ATOM     60  C3  A00 X   4      46.123  28.119  21.2170  0.00  0.00     0.000 C
ATOM     61  C4  A00 X   4      44.778  28.796  20.8770  0.00  0.00     0.000 C
ATOM     62  C5  A00 X   4      43.919  28.730  22.1650  0.00  0.00     0.000 C
ATOM     63  O5  A00 X   4      43.669  27.342  22.5010  0.00  0.00     0.000 O
BRANCH 59 66
ATOM     64   N  A00 X   4      45.573  25.897  20.5080  0.00  0.00     0.000 N
ATOM     66  HD  A00 X   4      44.731  25.777  20.3420  0.00  0.00     0.000 HD
ATOM     66   O  A00 X   4      46.419  23.945  21.6380  0.00  0.00     0.000 OA
ATOM     67   S  A00 X   4      46.236  24.454  20.3140  0.00  0.00     0.000 S
ATOM     68   O  A00 X   4      45.220  23.805  19.5390  0.00  0.00     0.000 OA
ATOM     69   O  A00 X   4      47.408  24.812  19.5670  0.00  0.00     0.000 OA
ENDBRANCH 59 66
BRANCH 62 70
ATOM     70   C  A00 X   4      42.560  29.462  22.0560  0.00  0.00     0.000 C
ATOM     71   O  A00 X   4      39.400  28.195  20.8260  0.00  0.00     0.000 OA
ATOM     72   O  A00 X   4      40.559  30.180  20.3170  0.00  0.00     0.000 OA
ATOM     73   O  A00 X   4      41.530  28.509  21.7490  0.00  0.00     0.000 O
ATOM     74   O  A00 X   4      41.332  28.063  19.3900  0.00  0.00     0.000 OA
ATOM     75   S  A00 X   4      40.674  28.745  20.4570  0.00  0.00     0.000 S
ENDBRANCH 62 70
ENDBRANCH 57 61
ENDBRANCH 41 57
ENDBRANCH 40 44
ENDBRANCH 20 40
ENDBRANCH 19 23
ENDBRANCH 1 19
TORSDOF 14
ENDMDL
MODEL 78
REMARK VINA RESULT:      -0.2     45.418     51.040
ROOT
ATOM      1  C1  A00 X   1      42.229  21.531  48.4250  0.00  0.00     0.000 C
ATOM      2  C2  A00 X   1      43.725  21.300  48.0830  0.00  0.00     0.000 C
ATOM      3  C3  A00 X   1      44.014  20.480  46.7830  0.00  0.00     0.000 C
ATOM      4  C4  A00 X   1      42.807  19.696  46.2050  0.00  0.00     0.000 C
ATOM      5  C5  A00 X   1      41.738  19.420  47.2620  0.00  0.00     0.000 C
ATOM      6  O5  A00 X   1      41.284  20.729  47.6740  0.00  0.00     0.000 O
ATOM      7   O  A00 X   1      45.025  19.516  47.0650  0.00  0.00     0.000 O
ATOM      9  HD  A00 X   1      44.431  19.125  46.5710  0.00  0.00     0.000 HD
ATOM      9   O  A00 X   1      42.224  20.379  45.0960  0.00  0.00     0.000 O
ATOM     11  HD  A00 X   1      41.630  19.988  44.6010  0.00  0.00     0.000 HD
ENDROOT
BRANCH 2 11
ATOM     11   O  A00 X   1      44.354  22.592  47.9730  0.00  0.00     0.000 O
ATOM     12   O  A00 X   1      46.721  22.827  47.6440  0.00  0.00     0.000 OA
ATOM     13   O  A00 X   1      45.899  21.826  49.7020  0.00  0.00     0.000 OA
ATOM     14   O  A00 X   1      45.542  24.135  49.2600  0.00  0.00     0.000 OA
ATOM     15   S  A00 X   1      45.728  22.829  48.6880  0.00  0.00     0.000 S
ENDBRANCH 2 11
BRANCH 5 16
ATOM     16   C  A00 X   1      42.192  18.534  48.4270  0.00  0.00     0.000 C
ATOM     17   O  A00 X   1      41.470  18.436  49.3980  0.00  0.00     0.000 OA
ATOM     18   O  A00 X   1      43.242  17.923  48.4100  0.00  0.00     0.000 OA
ENDBRANCH 5 16
BRANCH 1 19
ATOM     19  O4  A00 X   2      41.962  21.468  49.8480  0.00  0.00     0.000 O
BRANCH 19 23
ATOM     20  C1  A00 X   2      38.998  24.561  49.7410  0.00  0.00     0.000 C
ATOM     21  C2  A00 X   2      40.431  24.959  50.1700  0.00  0.00     0.000 C
ATOM     22  C3  A00 X   2      41.450  23.879  49.7510  0.00  0.00     0.000 C
ATOM     23  C4  A00 X   2      41.026  22.493  50.2870  0.00  0.00     0.000 C
ATOM     24  C5  A00 X   2      39.575  22.222  49.8060  0.00  0.00     0.000 C
ATOM     25  O5  A00 X   2      38.708  23.263  50.3260  0.00  0.00     0.000 O
ATOM     26   O  A00 X   2      42.769  24.325  50.1100  0.00  0.00     0.000 O
ATOM     28  HD  A00 X   2      42.538  24.517  50.9220  0.00  0.00     0.000 HD
BRANCH 21 30
ATOM     28   N  A00 X   2      39.842  25.937  51.0910  0.00  0.00     0.000 N
ATOM     30  HD  A00 X   2      40.679  26.143  51.0070  0.00  0.00     0.000 HD
ATOM     30   O  A00 X   2      41.309  27.747  51.2650  0.00  0.00     0.000 OA
ATOM     31   S  A00 X   2      40.795  26.710  52.0870  0.00  0.00     0.000 S
ATOM     32   O  A00 X   2      39.915  27.144  53.1280  0.00  0.00     0.000 OA
ATOM     33   O  A00 X   2      41.737  25.758  52.5970  0.00  0.00     0.000 OA
ENDBRANCH 21 30
BRANCH 24 34
ATOM     34   C  A00 X   2      38.994  20.803  50.0140  0.00  0.00     0.000 C
ATOM     35   O  A00 X   2      36.110  20.065  52.1100  0.00  0.00     0.000 OA
ATOM     36   O  A00 X   2      38.103  20.764  51.1460  0.00  0.00     0.000 O
ATOM     37   O  A00 X   2      36.085  21.619  50.3270  0.00  0.00     0.000 OA
ATOM     38   S  A00 X   2      36.614  20.381  50.8140  0.00  0.00     0.000 S
ATOM     39   O  A00 X   2      36.673  19.280  49.9000  0.00  0.00     0.000 OA
ENDBRANCH 24 34
BRANCH 20 40
ATOM     40  O4  A00 X   3      39.040  24.444  48.3110  0.00  0.00     0.000 O
BRANCH 40 44
ATOM     41  C1  A00 X   3      38.092  22.552  45.3710  0.00  0.00     0.000 C
ATOM     42  C2  A00 X   3      38.952  23.834  45.3530  0.00  0.00     0.000 C
ATOM     43  C3  A00 X   3      38.270  24.972  46.1560  0.00  0.00     0.000 C
ATOM     44  C4  A00 X   3      37.817  24.576  47.5550  0.00  0.00     0.000 C
ATOM     45  C5  A00 X   3      36.955  23.284  47.4910  0.00  0.00     0.000 C
ATOM     46  O5  A00 X   3      37.633  22.242  46.7160  0.00  0.00     0.000 O
ATOM     47   O  A00 X   3      38.934  26.234  46.1350  0.00  0.00     0.000 O
ATOM     49  HD  A00 X   3      38.685  26.251  46.9650  0.00  0.00     0.000 HD
BRANCH 42 49
ATOM     49   O  A00 X   3      40.237  23.490  45.9140  0.00  0.00     0.000 O
ATOM     50   O  A00 X   3      42.258  24.652  46.4580  0.00  0.00     0.000 OA
ATOM     51   O  A00 X   3      41.152  25.172  44.4340  0.00  0.00     0.000 OA
ATOM     52   O  A00 X   3      42.167  23.048  44.6510  0.00  0.00     0.000 OA
ATOM     53   S  A00 X   3      41.540  24.121  45.3420  0.00  0.00     0.000 S
ENDBRANCH 42 49
BRANCH 45 54
ATOM     54   C  A00 X   3      35.533  23.574  46.9970  0.00  0.00     0.000 C
ATOM     55   O  A00 X   3      35.291  24.583  46.3660  0.00  0.00     0.000 OA
ATOM     56   O  A00 X   3      34.619  22.798  47.2300  0.00  0.00     0.000 OA
ENDBRANCH 45 54
BRANCH 41 57
ATOM     57  O4  A00 X   4      37.035  22.604  44.3870  0.00  0.00     0.000 O
BRANCH 57 61
ATOM     58  C1  A00 X   4      34.817  19.567  42.2660  0.00  0.00     0.000 C
ATOM     59  C2  A00 X   4      34.438  19.871  43.7370  0.00  0.00     0.000 C
ATOM     60  C3  A00 X   4      35.035  21.190  44.2660  0.00  0.00     0.000 C
ATOM     61  C4  A00 X   4      36.540  21.309  43.9420  0.00  0.00     0.000 C
ATOM     62  C5  A00 X   4      36.665  21.188  42.4030  0.00  0.00     0.000 C
ATOM     63  O5  A00 X   4      36.202  19.877  41.9890  0.00  0.00     0.000 O
BRANCH 59 66
ATOM     64   N  A00 X   4      34.957  18.822  44.6340  0.00  0.00     0.000 N
ATOM     66  HD  A00 X   4      35.672  18.401  44.3850  0.00  0.00     0.000 HD
ATOM     66   O  A00 X   4      33.038  17.497  44.0320  0.00  0.00     0.000 OA
ATOM     67   S  A00 X   4      33.955  17.672  45.1150  0.00  0.00     0.000 S
ATOM     68   O  A00 X   4      34.878  16.595  45.3220  0.00  0.00     0.000 OA
ATOM     69   O  A00 X   4      33.457  18.261  46.3250  0.00  0.00     0.000 OA
ENDBRANCH 59 66
BRANCH 62 70
ATOM     70   C  A00 X   4      38.102  21.393  41.8670  0.00  0.00     0.000 C
ATOM     71   O  A00 X   4      40.772  18.967  41.5660  0.00  0.00     0.000 OA
ATOM     72   O  A00 X   4      40.762  21.131  42.4960  0.00  0.00     0.000 OA
ATOM     73   O  A00 X   4      38.734  20.114  41.6990  0.00  0.00     0.000 O
ATOM     74   O  A00 X   4      39.745  19.288  43.7240  0.00  0.00     0.000 OA
ATOM     75   S  A00 X   4      40.081  19.856  42.4580  0.00  0.00     0.000 S
ENDBRANCH 62 70
ENDBRANCH 57 61
ENDBRANCH 41 57
ENDBRANCH 40 44
ENDBRANCH 20 40
ENDBRANCH 19 23
ENDBRANCH 1 19
TORSDOF 14
ENDMDL
MODEL 79
REMARK VINA RESULT:      -0.2     28.518     34.927
ROOT
ATOM      1  C1  A00 X   1      35.730  26.336  15.8210  0.00  0.00     0.000 C
ATOM      2  C2  A00 X   1      34.843  25.593  14.7860  0.00  0.00     0.000 C
ATOM      3  C3  A00 X   1      34.616  26.326  13.4230  0.00  0.00     0.000 C
ATOM      4  C4  A00 X   1      34.984  27.832  13.4050  0.00  0.00     0.000 C
ATOM      5  C5  A00 X   1      34.977  28.445  14.8050  0.00  0.00     0.000 C
ATOM      6  O5  A00 X   1      36.005  27.728  15.5250  0.00  0.00     0.000 O
ATOM      7   O  A00 X   1      33.234  26.243  13.0840  0.00  0.00     0.000 O
ATOM      9  HD  A00 X   1      33.497  27.045  12.8900  0.00  0.00     0.000 HD
ATOM      9   O  A00 X   1      36.252  28.052  12.7880  0.00  0.00     0.000 O
ATOM     11  HD  A00 X   1      36.515  28.855  12.5950  0.00  0.00     0.000 HD
ENDROOT
BRANCH 2 11
ATOM     11   O  A00 X   1      35.446  24.309  14.5340  0.00  0.00     0.000 O
ATOM     12   O  A00 X   1      34.636  22.842  12.8140  0.00  0.00     0.000 OA
ATOM     13   O  A00 X   1      33.192  23.381  14.6950  0.00  0.00     0.000 OA
ATOM     14   O  A00 X   1      35.134  22.045  15.0110  0.00  0.00     0.000 OA
ATOM     15   S  A00 X   1      34.518  23.083  14.2290  0.00  0.00     0.000 S
ENDBRANCH 2 11
BRANCH 5 16
ATOM     16   C  A00 X   1      33.617  28.437  15.5090  0.00  0.00     0.000 C
ATOM     17   O  A00 X   1      33.572  28.709  16.6920  0.00  0.00     0.000 OA
ATOM     18   O  A00 X   1      32.583  28.177  14.9270  0.00  0.00     0.000 OA
ENDBRANCH 5 16
BRANCH 1 19
ATOM     19  O4  A00 X   2      35.266  26.167  17.1820  0.00  0.00     0.000 O
BRANCH 19 23
ATOM     20  C1  A00 X   2      39.214  25.830  18.8150  0.00  0.00     0.000 C
ATOM     21  C2  A00 X   2      38.447  24.517  18.5240  0.00  0.00     0.000 C
ATOM     22  C3  A00 X   2      37.265  24.773  17.5650  0.00  0.00     0.000 C
ATOM     23  C4  A00 X   2      36.352  25.893  18.1130  0.00  0.00     0.000 C
ATOM     24  C5  A00 X   2      37.239  27.140  18.3800  0.00  0.00     0.000 C
ATOM     25  O5  A00 X   2      38.261  26.788  19.3480  0.00  0.00     0.000 O
ATOM     26   O  A00 X   2      36.629  23.517  17.2730  0.00  0.00     0.000 O
ATOM     28  HD  A00 X   2      36.566  23.297  18.1080  0.00  0.00     0.000 HD
BRANCH 21 30
ATOM     28   N  A00 X   2      39.093  23.924  19.6990  0.00  0.00     0.000 N
ATOM     30  HD  A00 X   2      38.765  23.270  19.2360  0.00  0.00     0.000 HD
ATOM     30   O  A00 X   2      39.378  21.640  19.2960  0.00  0.00     0.000 OA
ATOM     31   S  A00 X   2      38.639  22.484  20.1680  0.00  0.00     0.000 S
ATOM     32   O  A00 X   2      39.039  22.433  21.5400  0.00  0.00     0.000 OA
ATOM     33   O  A00 X   2      37.211  22.435  20.0630  0.00  0.00     0.000 OA
ENDBRANCH 21 30
BRANCH 24 34
ATOM     34   C  A00 X   2      36.532  28.474  18.7160  0.00  0.00     0.000 C
ATOM     35   O  A00 X   2      36.856  30.210  21.9000  0.00  0.00     0.000 OA
ATOM     36   O  A00 X   2      36.554  28.735  20.1340  0.00  0.00     0.000 O
ATOM     37   O  A00 X   2      38.688  29.606  20.5320  0.00  0.00     0.000 OA
ATOM     38   S  A00 X   2      37.324  30.037  20.5640  0.00  0.00     0.000 S
ATOM     39   O  A00 X   2      36.930  31.062  19.6460  0.00  0.00     0.000 OA
ENDBRANCH 24 34
BRANCH 20 40
ATOM     40  O4  A00 X   3      39.695  26.288  17.5430  0.00  0.00     0.000 O
BRANCH 40 44
ATOM     41  C1  A00 X   3      40.137  29.084  15.2820  0.00  0.00     0.000 C
ATOM     42  C2  A00 X   3      40.527  27.624  14.9640  0.00  0.00     0.000 C
ATOM     43  C3  A00 X   3      41.396  27.022  16.0990  0.00  0.00     0.000 C
ATOM     44  C4  A00 X   3      40.818  27.194  17.4980  0.00  0.00     0.000 C
ATOM     45  C5  A00 X   3      40.456  28.686  17.7440  0.00  0.00     0.000 C
ATOM     46  O5  A00 X   3      39.645  29.215  16.6450  0.00  0.00     0.000 O
ATOM     47   O  A00 X   3      41.888  25.703  15.8720  0.00  0.00     0.000 O
ATOM     49  HD  A00 X   3      41.710  25.613  16.7150  0.00  0.00     0.000 HD
BRANCH 42 49
ATOM     49   O  A00 X   3      39.298  26.886  14.7910  0.00  0.00     0.000 O
ATOM     50   O  A00 X   3      38.689  24.607  14.3810  0.00  0.00     0.000 OA
ATOM     51   O  A00 X   3      40.529  25.524  13.2140  0.00  0.00     0.000 OA
ATOM     52   O  A00 X   3      38.363  26.326  12.7110  0.00  0.00     0.000 OA
ATOM     53   S  A00 X   3      39.199  25.765  13.7160  0.00  0.00     0.000 S
ENDBRANCH 42 49
BRANCH 45 54
ATOM     54   C  A00 X   3      41.701  29.531  18.0370  0.00  0.00     0.000 C
ATOM     55   O  A00 X   3      42.801  29.154  17.6890  0.00  0.00     0.000 OA
ATOM     56   O  A00 X   3      41.608  30.597  18.6270  0.00  0.00     0.000 OA
ENDBRANCH 45 54
BRANCH 41 57
ATOM     57  O4  A00 X   4      41.200  30.005  14.9500  0.00  0.00     0.000 O
BRANCH 57 61
ATOM     58  C1  A00 X   4      41.264  34.201  13.9320  0.00  0.00     0.000 C
ATOM     59  C2  A00 X   4      41.111  33.801  15.4210  0.00  0.00     0.000 C
ATOM     60  C3  A00 X   4      41.459  32.325  15.7010  0.00  0.00     0.000 C
ATOM     61  C4  A00 X   4      40.774  31.374  14.6960  0.00  0.00     0.000 C
ATOM     62  C5  A00 X   4      41.233  31.825  13.2870  0.00  0.00     0.000 C
ATOM     63  O5  A00 X   4      40.765  33.176  13.0420  0.00  0.00     0.000 O
BRANCH 59 66
ATOM     64   N  A00 X   4      39.791  33.929  16.0660  0.00  0.00     0.000 N
ATOM     66  HD  A00 X   4      39.091  33.782  15.5780  0.00  0.00     0.000 HD
ATOM     66   O  A00 X   4      40.178  36.304  16.1600  0.00  0.00     0.000 OA
ATOM     67   S  A00 X   4      39.462  35.281  16.8550  0.00  0.00     0.000 S
ATOM     68   O  A00 X   4      38.035  35.322  16.7130  0.00  0.00     0.000 OA
ATOM     69   O  A00 X   4      39.912  34.923  18.1700  0.00  0.00     0.000 OA
ENDBRANCH 59 66
BRANCH 62 70
ATOM     70   C  A00 X   4      40.734  30.917  12.1380  0.00  0.00     0.000 C
ATOM     71   O  A00 X   4      37.564  31.015  10.3920  0.00  0.00     0.000 OA
ATOM     72   O  A00 X   4      38.720  29.213  11.3730  0.00  0.00     0.000 OA
ATOM     73   O  A00 X   4      39.528  31.469  11.5860  0.00  0.00     0.000 O
ATOM     74   O  A00 X   4      37.550  30.810  12.7940  0.00  0.00     0.000 OA
ATOM     75   S  A00 X   4      38.246  30.565  11.5720  0.00  0.00     0.000 S
ENDBRANCH 62 70
ENDBRANCH 57 61
ENDBRANCH 41 57
ENDBRANCH 40 44
ENDBRANCH 20 40
ENDBRANCH 19 23
ENDBRANCH 1 19
TORSDOF 14
ENDMDL
MODEL 80
REMARK VINA RESULT:      -0.2     36.905     41.727
ROOT
ATOM      1  C1  A00 X   1      42.986  30.877  17.3390  0.00  0.00     0.000 C
ATOM      2  C2  A00 X   1      41.528  31.196  16.9130  0.00  0.00     0.000 C
ATOM      3  C3  A00 X   1      40.402  30.635  17.8440  0.00  0.00     0.000 C
ATOM      4  C4  A00 X   1      40.848  29.540  18.8480  0.00  0.00     0.000 C
ATOM      5  C5  A00 X   1      42.125  28.831  18.3980  0.00  0.00     0.000 C
ATOM      6  O5  A00 X   1      43.131  29.869  18.3700  0.00  0.00     0.000 O
ATOM      7   O  A00 X   1      39.387  30.050  17.0320  0.00  0.00     0.000 O
ATOM      9  HD  A00 X   1      39.505  29.525  17.7100  0.00  0.00     0.000 HD
ATOM      9   O  A00 X   1      41.029  30.077  20.1580  0.00  0.00     0.000 O
ATOM     11  HD  A00 X   1      41.148  29.552  20.8360  0.00  0.00     0.000 HD
ENDROOT
BRANCH 2 11
ATOM     11   O  A00 X   1      41.398  32.628  16.8310  0.00  0.00     0.000 O
ATOM     12   O  A00 X   1      39.374  33.680  16.0790  0.00  0.00     0.000 OA
ATOM     13   O  A00 X   1      40.635  32.283  14.5370  0.00  0.00     0.000 OA
ATOM     14   O  A00 X   1      41.519  34.364  15.2750  0.00  0.00     0.000 OA
ATOM     15   S  A00 X   1      40.664  33.254  15.5960  0.00  0.00     0.000 S
ENDBRANCH 2 11
BRANCH 5 16
ATOM     16   C  A00 X   1      42.007  28.056  17.0820  0.00  0.00     0.000 C
ATOM     17   O  A00 X   1      43.021  27.637  16.5620  0.00  0.00     0.000 OA
ATOM     18   O  A00 X   1      40.938  27.840  16.5460  0.00  0.00     0.000 OA
ENDBRANCH 5 16
BRANCH 1 19
ATOM     19  O4  A00 X   2      43.853  30.607  16.2110  0.00  0.00     0.000 O
BRANCH 19 23
ATOM     20  C1  A00 X   2      47.251  32.538  17.9690  0.00  0.00     0.000 C
ATOM     21  C2  A00 X   2      46.413  33.352  16.9530  0.00  0.00     0.000 C
ATOM     22  C3  A00 X   2      45.025  32.711  16.7470  0.00  0.00     0.000 C
ATOM     23  C4  A00 X   2      45.165  31.223  16.3550  0.00  0.00     0.000 C
ATOM     24  C5  A00 X   2      46.036  30.527  17.4370  0.00  0.00     0.000 C
ATOM     25  O5  A00 X   2      47.334  31.174  17.4790  0.00  0.00     0.000 O
ATOM     26   O  A00 X   2      44.263  33.538  15.8510  0.00  0.00     0.000 O
ATOM     28  HD  A00 X   2      44.898  33.572  15.2630  0.00  0.00     0.000 HD
BRANCH 21 30
ATOM     28   N  A00 X   2      47.652  33.997  16.5060  0.00  0.00     0.000 N
ATOM     30  HD  A00 X   2      46.996  34.476  16.2040  0.00  0.00     0.000 HD
ATOM     30   O  A00 X   2      47.134  36.170  15.8230  0.00  0.00     0.000 OA
ATOM     31   S  A00 X   2      47.597  34.956  15.2510  0.00  0.00     0.000 S
ATOM     32   O  A00 X   2      48.950  34.984  14.7870  0.00  0.00     0.000 OA
ATOM     33   O  A00 X   2      46.751  34.332  14.2780  0.00  0.00     0.000 OA
ENDBRANCH 21 30
BRANCH 24 34
ATOM     34   C  A00 X   2      46.139  28.983  17.4030  0.00  0.00     0.000 C
ATOM     35   O  A00 X   2      49.235  27.156  16.8280  0.00  0.00     0.000 OA
ATOM     36   O  A00 X   2      47.383  28.555  16.8140  0.00  0.00     0.000 O
ATOM     37   O  A00 X   2      48.945  28.759  18.5430  0.00  0.00     0.000 OA
ATOM     38   S  A00 X   2      48.326  27.730  17.7650  0.00  0.00     0.000 S
ATOM     39   O  A00 X   2      47.489  26.792  18.4510  0.00  0.00     0.000 OA
ENDBRANCH 24 34
BRANCH 20 40
ATOM     40  O4  A00 X   3      46.505  32.563  19.1940  0.00  0.00     0.000 O
BRANCH 40 44
ATOM     41  C1  A00 X   3      45.266  30.714  22.0530  0.00  0.00     0.000 C
ATOM     42  C2  A00 X   3      44.981  32.207  21.7800  0.00  0.00     0.000 C
ATOM     43  C3  A00 X   3      46.295  32.980  21.4970  0.00  0.00     0.000 C
ATOM     44  C4  A00 X   3      47.192  32.340  20.4440  0.00  0.00     0.000 C
ATOM     45  C5  A00 X   3      47.436  30.844  20.7900  0.00  0.00     0.000 C
ATOM     46  O5  A00 X   3      46.171  30.157  21.0590  0.00  0.00     0.000 O
ATOM     47   O  A00 X   3      46.163  34.388  21.3160  0.00  0.00     0.000 O
ATOM     49  HD  A00 X   3      46.762  34.252  20.7060  0.00  0.00     0.000 HD
BRANCH 42 49
ATOM     49   O  A00 X   3      44.080  32.267  20.6520  0.00  0.00     0.000 O
ATOM     50   O  A00 X   3      43.073  33.988  19.3290  0.00  0.00     0.000 OA
ATOM     51   O  A00 X   3      43.196  34.275  21.6730  0.00  0.00     0.000 OA
ATOM     52   O  A00 X   3      41.762  32.603  20.8160  0.00  0.00     0.000 OA
ATOM     53   S  A00 X   3      42.957  33.343  20.5990  0.00  0.00     0.000 S
ENDBRANCH 42 49
BRANCH 45 54
ATOM     54   C  A00 X   3      48.462  30.682  21.9180  0.00  0.00     0.000 C
ATOM     55   O  A00 X   3      48.698  31.601  22.6760  0.00  0.00     0.000 OA
ATOM     56   O  A00 X   3      49.060  29.629  22.0730  0.00  0.00     0.000 OA
ENDBRANCH 45 54
BRANCH 41 57
ATOM     57  O4  A00 X   4      45.683  30.491  23.4180  0.00  0.00     0.000 O
BRANCH 57 61
ATOM     58  C1  A00 X   4      45.484  27.075  26.0510  0.00  0.00     0.000 C
ATOM     59  C2  A00 X   4      46.588  27.111  24.9650  0.00  0.00     0.000 C
ATOM     60  C3  A00 X   4      46.789  28.505  24.3380  0.00  0.00     0.000 C
ATOM     61  C4  A00 X   4      45.447  29.147  23.9250  0.00  0.00     0.000 C
ATOM     62  C5  A00 X   4      44.578  29.203  25.2070  0.00  0.00     0.000 C
ATOM     63  O5  A00 X   4      44.325  27.852  25.6710  0.00  0.00     0.000 O
BRANCH 59 66
ATOM     64   N  A00 X   4      46.243  26.226  23.8370  0.00  0.00     0.000 N
ATOM     66  HD  A00 X   4      45.403  26.091  23.6780  0.00  0.00     0.000 HD
ATOM     66   O  A00 X   4      47.081  24.390  25.1520  0.00  0.00     0.000 OA
ATOM     67   S  A00 X   4      46.907  24.772  23.7850  0.00  0.00     0.000 S
ATOM     68   O  A00 X   4      45.896  24.052  23.0670  0.00  0.00     0.000 OA
ATOM     69   O  A00 X   4      48.084  25.058  23.0150  0.00  0.00     0.000 OA
ENDBRANCH 59 66
BRANCH 62 70
ATOM     70   C  A00 X   4      43.220  29.921  25.0190  0.00  0.00     0.000 C
ATOM     71   O  A00 X   4      40.088  28.558  23.8210  0.00  0.00     0.000 OA
ATOM     72   O  A00 X   4      41.253  30.505  23.1940  0.00  0.00     0.000 OA
ATOM     73   O  A00 X   4      42.199  28.944  24.7610  0.00  0.00     0.000 O
ATOM     74   O  A00 X   4      42.048  28.330  22.4360  0.00  0.00     0.000 OA
ATOM     75   S  A00 X   4      41.368  29.084  23.4390  0.00  0.00     0.000 S
ENDBRANCH 62 70
ENDBRANCH 57 61
ENDBRANCH 41 57
ENDBRANCH 40 44
ENDBRANCH 20 40
ENDBRANCH 19 23
ENDBRANCH 1 19
TORSDOF 14
ENDMDL
MODEL 81
REMARK VINA RESULT:      -0.2     40.581     45.972
ROOT
ATOM      1  C1  A00 X   1      17.427  28.259  43.1680  0.00  0.00     0.000 C
ATOM      2  C2  A00 X   1      16.886  27.377  42.0110  0.00  0.00     0.000 C
ATOM      3  C3  A00 X   1      15.441  27.707  41.5130  0.00  0.00     0.000 C
ATOM      4  C4  A00 X   1      14.597  28.604  42.4550  0.00  0.00     0.000 C
ATOM      5  C5  A00 X   1      15.097  28.556  43.8990  0.00  0.00     0.000 C
ATOM      6  O5  A00 X   1      16.442  29.083  43.8400  0.00  0.00     0.000 O
ATOM      7   O  A00 X   1      14.719  26.487  41.3630  0.00  0.00     0.000 O
ATOM      9  HD  A00 X   1      14.178  27.061  41.7220  0.00  0.00     0.000 HD
ATOM      9   O  A00 X   1      14.569  29.957  42.0000  0.00  0.00     0.000 O
ATOM     11  HD  A00 X   1      14.029  30.531  42.3580  0.00  0.00     0.000 HD
ENDROOT
BRANCH 2 11
ATOM     11   O  A00 X   1      17.802  27.495  40.9050  0.00  0.00     0.000 O
ATOM     12   O  A00 X   1      17.276  26.641  38.7230  0.00  0.00     0.000 OA
ATOM     13   O  A00 X   1      17.499  25.093  40.5850  0.00  0.00     0.000 OA
ATOM     14   O  A00 X   1      19.400  26.249  39.7450  0.00  0.00     0.000 OA
ATOM     15   S  A00 X   1      17.975  26.280  39.9300  0.00  0.00     0.000 S
ENDBRANCH 2 11
BRANCH 5 16
ATOM     16   C  A00 X   1      15.007  27.181  44.5700  0.00  0.00     0.000 C
ATOM     17   O  A00 X   1      14.285  26.340  44.0750  0.00  0.00     0.000 OA
ATOM     18   O  A00 X   1      15.634  26.902  45.5720  0.00  0.00     0.000 OA
ENDBRANCH 5 16
BRANCH 1 19
ATOM     19  O4  A00 X   2      18.226  27.511  44.1180  0.00  0.00     0.000 O
BRANCH 19 23
ATOM     20  C1  A00 X   2      21.167  30.597  44.5500  0.00  0.00     0.000 C
ATOM     21  C2  A00 X   2      21.474  29.452  43.5560  0.00  0.00     0.000 C
ATOM     22  C3  A00 X   2      20.188  28.683  43.1890  0.00  0.00     0.000 C
ATOM     23  C4  A00 X   2      19.465  28.193  44.4640  0.00  0.00     0.000 C
ATOM     24  C5  A00 X   2      19.233  29.425  45.3810  0.00  0.00     0.000 C
ATOM     25  O5  A00 X   2      20.519  30.011  45.7100  0.00  0.00     0.000 O
ATOM     26   O  A00 X   2      20.514  27.677  42.2140  0.00  0.00     0.000 O
ATOM     28  HD  A00 X   2      21.175  27.368  42.6800  0.00  0.00     0.000 HD
BRANCH 21 30
ATOM     28   N  A00 X   2      22.890  29.561  43.9230  0.00  0.00     0.000 N
ATOM     30  HD  A00 X   2      22.856  29.104  43.1880  0.00  0.00     0.000 HD
ATOM     30   O  A00 X   2      24.172  29.005  42.0510  0.00  0.00     0.000 OA
ATOM     31   S  A00 X   2      23.906  28.495  43.3500  0.00  0.00     0.000 S
ATOM     32   O  A00 X   2      25.009  28.554  44.2590  0.00  0.00     0.000 OA
ATOM     33   O  A00 X   2      23.267  27.215  43.4260  0.00  0.00     0.000 OA
ENDBRANCH 21 30
BRANCH 24 34
ATOM     34   C  A00 X   2      18.323  29.247  46.6190  0.00  0.00     0.000 C
ATOM     35   O  A00 X   2      19.442  29.693  50.0550  0.00  0.00     0.000 OA
ATOM     36   O  A00 X   2      19.101  29.136  47.8270  0.00  0.00     0.000 O
ATOM     37   O  A00 X   2      19.645  31.344  48.3740  0.00  0.00     0.000 OA
ATOM     38   S  A00 X   2      18.854  30.269  48.8900  0.00  0.00     0.000 S
ATOM     39   O  A00 X   2      17.437  30.460  48.9570  0.00  0.00     0.000 OA
ENDBRANCH 24 34
BRANCH 20 40
ATOM     40  O4  A00 X   3      20.245  31.463  43.8720  0.00  0.00     0.000 O
BRANCH 40 44
ATOM     41  C1  A00 X   3      17.236  33.479  43.9420  0.00  0.00     0.000 C
ATOM     42  C2  A00 X   3      18.140  33.289  42.7040  0.00  0.00     0.000 C
ATOM     43  C3  A00 X   3      19.624  33.575  43.0510  0.00  0.00     0.000 C
ATOM     44  C4  A00 X   3      20.138  32.843  44.2840  0.00  0.00     0.000 C
ATOM     45  C5  A00 X   3      19.181  33.086  45.4850  0.00  0.00     0.000 C
ATOM     46  O5  A00 X   3      17.792  32.814  45.1100  0.00  0.00     0.000 O
ATOM     47   O  A00 X   3      20.541  33.514  41.9600  0.00  0.00     0.000 O
ATOM     49  HD  A00 X   3      21.050  33.144  42.5550  0.00  0.00     0.000 HD
BRANCH 42 49
ATOM     49   O  A00 X   3      17.956  31.930  42.2510  0.00  0.00     0.000 O
ATOM     50   O  A00 X   3      18.849  30.548  40.5130  0.00  0.00     0.000 OA
ATOM     51   O  A00 X   3      18.318  32.798  40.0210  0.00  0.00     0.000 OA
ATOM     52   O  A00 X   3      16.551  31.297  40.4790  0.00  0.00     0.000 OA
ATOM     53   S  A00 X   3      17.916  31.608  40.7280  0.00  0.00     0.000 S
ENDBRANCH 42 49
BRANCH 45 54
ATOM     54   C  A00 X   3      19.380  34.478  46.0960  0.00  0.00     0.000 C
ATOM     55   O  A00 X   3      18.767  34.811  47.0890  0.00  0.00     0.000 OA
ATOM     56   O  A00 X   3      20.157  35.276  45.5950  0.00  0.00     0.000 OA
ENDBRANCH 45 54
BRANCH 41 57
ATOM     57  O4  A00 X   4      16.912  34.871  44.1570  0.00  0.00     0.000 O
BRANCH 57 61
ATOM     58  C1  A00 X   4      13.399  36.874  45.6700  0.00  0.00     0.000 C
ATOM     59  C2  A00 X   4      14.170  35.916  46.6120  0.00  0.00     0.000 C
ATOM     60  C3  A00 X   4      15.577  35.549  46.0990  0.00  0.00     0.000 C
ATOM     61  C4  A00 X   4      15.553  35.125  44.6150  0.00  0.00     0.000 C
ATOM     62  C5  A00 X   4      14.938  36.312  43.8320  0.00  0.00     0.000 C
ATOM     63  O5  A00 X   4      13.573  36.521  44.2780  0.00  0.00     0.000 O
BRANCH 59 66
ATOM     64   N  A00 X   4      13.447  34.637  46.7320  0.00  0.00     0.000 N
ATOM     66  HD  A00 X   4      12.951  34.395  46.0650  0.00  0.00     0.000 HD
ATOM     66   O  A00 X   4      12.050  35.697  48.3830  0.00  0.00     0.000 OA
ATOM     67   S  A00 X   4      12.535  34.401  48.0250  0.00  0.00     0.000 S
ATOM     68   O  A00 X   4      11.556  33.501  47.4890  0.00  0.00     0.000 OA
ATOM     69   O  A00 X   4      13.490  33.779  48.8980  0.00  0.00     0.000 OA
ENDBRANCH 59 66
BRANCH 62 70
ATOM     70   C  A00 X   4      14.929  36.120  42.2970  0.00  0.00     0.000 C
ATOM     71   O  A00 X   4      12.925  33.849  40.3130  0.00  0.00     0.000 OA
ATOM     72   O  A00 X   4      15.242  34.271  40.2900  0.00  0.00     0.000 OA
ATOM     73   O  A00 X   4      13.810  35.298  41.9270  0.00  0.00     0.000 O
ATOM     74   O  A00 X   4      14.278  32.940  42.0900  0.00  0.00     0.000 OA
ATOM     75   S  A00 X   4      14.100  33.980  41.1290  0.00  0.00     0.000 S
ENDBRANCH 62 70
ENDBRANCH 57 61
ENDBRANCH 41 57
ENDBRANCH 40 44
ENDBRANCH 20 40
ENDBRANCH 19 23
ENDBRANCH 1 19
TORSDOF 14
ENDMDL
MODEL 82
REMARK VINA RESULT:      -0.2     46.523     51.976
ROOT
ATOM      1  C1  A00 X   1      19.202  32.907  46.7250  0.00  0.00     0.000 C
ATOM      2  C2  A00 X   1      18.326  32.659  45.4680  0.00  0.00     0.000 C
ATOM      3  C3  A00 X   1      17.078  33.588  45.3050  0.00  0.00     0.000 C
ATOM      4  C4  A00 X   1      16.662  34.377  46.5730  0.00  0.00     0.000 C
ATOM      5  C5  A00 X   1      17.175  33.721  47.8550  0.00  0.00     0.000 C
ATOM      6  O5  A00 X   1      18.615  33.762  47.7370  0.00  0.00     0.000 O
ATOM      7   O  A00 X   1      15.956  32.787  44.9410  0.00  0.00     0.000 O
ATOM      9  HD  A00 X   1      15.678  33.367  45.5200  0.00  0.00     0.000 HD
ATOM      9   O  A00 X   1      17.106  35.732  46.5130  0.00  0.00     0.000 O
ATOM     11  HD  A00 X   1      16.828  36.313  47.0930  0.00  0.00     0.000 HD
ENDROOT
BRANCH 2 11
ATOM     11   O  A00 X   1      19.171  32.801  44.3090  0.00  0.00     0.000 O
ATOM     12   O  A00 X   1      18.283  32.773  42.0780  0.00  0.00     0.000 OA
ATOM     13   O  A00 X   1      18.098  30.779  43.4580  0.00  0.00     0.000 OA
ATOM     14   O  A00 X   1      20.222  31.509  42.6730  0.00  0.00     0.000 OA
ATOM     15   S  A00 X   1      18.893  31.905  43.0530  0.00  0.00     0.000 S
ENDBRANCH 2 11
BRANCH 5 16
ATOM     16   C  A00 X   1      16.622  32.320  48.1320  0.00  0.00     0.000 C
ATOM     17   O  A00 X   1      17.139  31.653  49.0050  0.00  0.00     0.000 OA
ATOM     18   O  A00 X   1      15.683  31.856  47.5160  0.00  0.00     0.000 OA
ENDBRANCH 5 16
BRANCH 1 19
ATOM     19  O4  A00 X   2      19.717  31.682  47.3010  0.00  0.00     0.000 O
BRANCH 19 23
ATOM     20  C1  A00 X   2      23.555  33.364  48.1970  0.00  0.00     0.000 C
ATOM     21  C2  A00 X   2      23.431  32.510  46.9120  0.00  0.00     0.000 C
ATOM     22  C3  A00 X   2      21.953  32.348  46.5000  0.00  0.00     0.000 C
ATOM     23  C4  A00 X   2      21.120  31.788  47.6750  0.00  0.00     0.000 C
ATOM     24  C5  A00 X   2      21.343  32.717  48.9000  0.00  0.00     0.000 C
ATOM     25  O5  A00 X   2      22.757  32.725  49.2290  0.00  0.00     0.000 O
ATOM     26   O  A00 X   2      21.896  31.608  45.2690  0.00  0.00     0.000 O
ATOM     28  HD  A00 X   2      22.413  30.979  45.5640  0.00  0.00     0.000 HD
BRANCH 21 30
ATOM     28   N  A00 X   2      24.801  32.039  47.1390  0.00  0.00     0.000 N
ATOM     30  HD  A00 X   2      24.601  31.844  46.3190  0.00  0.00     0.000 HD
ATOM     30   O  A00 X   2      25.786  31.636  45.0590  0.00  0.00     0.000 OA
ATOM     31   S  A00 X   2      25.377  30.903  46.2040  0.00  0.00     0.000 S
ATOM     32   O  A00 X   2      26.444  30.340  46.9720  0.00  0.00     0.000 OA
ATOM     33   O  A00 X   2      24.334  29.938  46.0180  0.00  0.00     0.000 OA
ENDBRANCH 21 30
BRANCH 24 34
ATOM     34   C  A00 X   2      20.443  32.510  50.1410  0.00  0.00     0.000 C
ATOM     35   O  A00 X   2      20.189  29.376  51.9780  0.00  0.00     0.000 OA
ATOM     36   O  A00 X   2      20.273  31.109  50.4350  0.00  0.00     0.000 O
ATOM     37   O  A00 X   2      22.224  30.513  51.5800  0.00  0.00     0.000 OA
ATOM     38   S  A00 X   2      20.822  30.646  51.8340  0.00  0.00     0.000 S
ATOM     39   O  A00 X   2      20.411  31.639  52.7800  0.00  0.00     0.000 OA
ENDBRANCH 24 34
BRANCH 20 40
ATOM     40  O4  A00 X   3      22.985  34.640  47.8710  0.00  0.00     0.000 O
BRANCH 40 44
ATOM     41  C1  A00 X   3      20.735  37.274  48.9320  0.00  0.00     0.000 C
ATOM     42  C2  A00 X   3      21.485  37.248  47.5820  0.00  0.00     0.000 C
ATOM     43  C3  A00 X   3      22.999  36.988  47.7940  0.00  0.00     0.000 C
ATOM     44  C4  A00 X   3      23.319  35.790  48.6780  0.00  0.00     0.000 C
ATOM     45  C5  A00 X   3      22.533  35.891  50.0160  0.00  0.00     0.000 C
ATOM     46  O5  A00 X   3      21.112  36.146  49.7690  0.00  0.00     0.000 O
ATOM     47   O  A00 X   3      23.807  37.029  46.6190  0.00  0.00     0.000 O
ATOM     49  HD  A00 X   3      24.205  36.364  47.0060  0.00  0.00     0.000 HD
BRANCH 42 49
ATOM     49   O  A00 X   3      20.878  36.210  46.7810  0.00  0.00     0.000 O
ATOM     50   O  A00 X   3      21.257  35.241  44.6250  0.00  0.00     0.000 OA
ATOM     51   O  A00 X   3      21.435  37.586  44.8700  0.00  0.00     0.000 OA
ATOM     52   O  A00 X   3      19.302  36.590  45.0820  0.00  0.00     0.000 OA
ATOM     53   S  A00 X   3      20.703  36.403  45.2470  0.00  0.00     0.000 S
ENDBRANCH 42 49
BRANCH 45 54
ATOM     54   C  A00 X   3      23.170  36.904  50.9730  0.00  0.00     0.000 C
ATOM     55   O  A00 X   3      22.865  36.922  52.1480  0.00  0.00     0.000 OA
ATOM     56   O  A00 X   3      23.994  37.712  50.5720  0.00  0.00     0.000 OA
ENDBRANCH 45 54
BRANCH 41 57
ATOM     57  O4  A00 X   4      20.857  38.557  49.5860  0.00  0.00     0.000 O
BRANCH 57 61
ATOM     58  C1  A00 X   4      18.308  40.750  52.2930  0.00  0.00     0.000 C
ATOM     59  C2  A00 X   4      19.157  39.584  52.8560  0.00  0.00     0.000 C
ATOM     60  C3  A00 X   4      20.275  39.120  51.9000  0.00  0.00     0.000 C
ATOM     61  C4  A00 X   4      19.751  38.912  50.4630  0.00  0.00     0.000 C
ATOM     62  C5  A00 X   4      19.132  40.262  50.0250  0.00  0.00     0.000 C
ATOM     63  O5  A00 X   4      18.009  40.575  50.8890  0.00  0.00     0.000 O
BRANCH 59 66
ATOM     64   N  A00 X   4      18.276  38.419  53.0540  0.00  0.00     0.000 N
ATOM     66  HD  A00 X   4      17.571  38.361  52.5540  0.00  0.00     0.000 HD
ATOM     66   O  A00 X   4      17.641  39.385  55.1660  0.00  0.00     0.000 OA
ATOM     67   S  A00 X   4      17.752  38.109  54.5330  0.00  0.00     0.000 S
ATOM     68   O  A00 X   4      16.510  37.457  54.2360  0.00  0.00     0.000 OA
ATOM     69   O  A00 X   4      18.787  37.224  54.9880  0.00  0.00     0.000 OA
ENDBRANCH 59 66
BRANCH 62 70
ATOM     70   C  A00 X   4      18.644  40.287  48.5570  0.00  0.00     0.000 C
ATOM     71   O  A00 X   4      15.347  39.549  47.2560  0.00  0.00     0.000 OA
ATOM     72   O  A00 X   4      17.469  38.781  46.5840  0.00  0.00     0.000 OA
ATOM     73   O  A00 X   4      17.212  40.171  48.5300  0.00  0.00     0.000 O
ATOM     74   O  A00 X   4      16.451  37.886  48.6090  0.00  0.00     0.000 OA
ATOM     75   S  A00 X   4      16.588  38.988  47.7120  0.00  0.00     0.000 S
ENDBRANCH 62 70
ENDBRANCH 57 61
ENDBRANCH 41 57
ENDBRANCH 40 44
ENDBRANCH 20 40
ENDBRANCH 19 23
ENDBRANCH 1 19
TORSDOF 14
ENDMDL
MODEL 83
REMARK VINA RESULT:      -0.1     36.168     41.982
ROOT
ATOM      1  C1  A00 X   1      39.557  35.350  21.5010  0.00  0.00     0.000 C
ATOM      2  C2  A00 X   1      40.742  34.461  21.9630  0.00  0.00     0.000 C
ATOM      3  C3  A00 X   1      41.333  34.781  23.3750  0.00  0.00     0.000 C
ATOM      4  C4  A00 X   1      40.924  36.151  23.9760  0.00  0.00     0.000 C
ATOM      5  C5  A00 X   1      40.488  37.146  22.9000  0.00  0.00     0.000 C
ATOM      6  O5  A00 X   1      39.324  36.543  22.2920  0.00  0.00     0.000 O
ATOM      7   O  A00 X   1      42.756  34.787  23.2850  0.00  0.00     0.000 O
ATOM      9  HD  A00 X   1      42.529  35.454  23.7890  0.00  0.00     0.000 HD
ATOM      9   O  A00 X   1      39.888  36.007  24.9470  0.00  0.00     0.000 O
ATOM     11  HD  A00 X   1      39.662  36.673  25.4520  0.00  0.00     0.000 HD
ENDROOT
BRANCH 2 11
ATOM     11   O  A00 X   1      40.296  33.091  21.9400  0.00  0.00     0.000 O
ATOM     12   O  A00 X   1      41.780  31.264  22.4180  0.00  0.00     0.000 OA
ATOM     13   O  A00 X   1      42.190  32.651  20.4620  0.00  0.00     0.000 OA
ATOM     14   O  A00 X   1      40.294  31.217  20.5470  0.00  0.00     0.000 OA
ATOM     15   S  A00 X   1      41.228  32.000  21.3090  0.00  0.00     0.000 S
ENDBRANCH 2 11
BRANCH 5 16
ATOM     16   C  A00 X   1      41.577  37.529  21.8930  0.00  0.00     0.000 C
ATOM     17   O  A00 X   1      41.258  38.152  20.9010  0.00  0.00     0.000 OA
ATOM     18   O  A00 X   1      42.746  37.238  22.0540  0.00  0.00     0.000 OA
ENDBRANCH 5 16
BRANCH 1 19
ATOM     19  O4  A00 X   2      39.602  35.656  20.0860  0.00  0.00     0.000 O
BRANCH 19 23
ATOM     20  C1  A00 X   2      35.350  35.430  19.5970  0.00  0.00     0.000 C
ATOM     21  C2  A00 X   2      36.183  34.192  19.1850  0.00  0.00     0.000 C
ATOM     22  C3  A00 X   2      37.594  34.249  19.8070  0.00  0.00     0.000 C
ATOM     23  C4  A00 X   2      38.290  35.583  19.4570  0.00  0.00     0.000 C
ATOM     24  C5  A00 X   2      37.351  36.738  19.9000  0.00  0.00     0.000 C
ATOM     25  O5  A00 X   2      36.090  36.613  19.1920  0.00  0.00     0.000 O
ATOM     26   O  A00 X   2      38.303  33.048  19.4530  0.00  0.00     0.000 O
ATOM     28  HD  A00 X   2      38.115  33.126  18.6110  0.00  0.00     0.000 HD
BRANCH 21 30
ATOM     28   N  A00 X   2      35.223  33.952  18.1030  0.00  0.00     0.000 N
ATOM     30  HD  A00 X   2      35.681  33.223  18.1990  0.00  0.00     0.000 HD
ATOM     30   O  A00 X   2      35.095  31.647  17.7430  0.00  0.00     0.000 OA
ATOM     31   S  A00 X   2      35.532  32.810  17.0550  0.00  0.00     0.000 S
ATOM     32   O  A00 X   2      34.743  33.171  15.9180  0.00  0.00     0.000 OA
ATOM     33   O  A00 X   2      36.927  32.891  16.7390  0.00  0.00     0.000 OA
ENDBRANCH 21 30
BRANCH 24 34
ATOM     34   C  A00 X   2      37.911  38.180  19.8720  0.00  0.00     0.000 C
ATOM     35   O  A00 X   2      39.226  39.800  16.8880  0.00  0.00     0.000 OA
ATOM     36   O  A00 X   2      38.672  38.422  18.6710  0.00  0.00     0.000 O
ATOM     37   O  A00 X   2      37.057  38.869  17.0390  0.00  0.00     0.000 OA
ATOM     38   S  A00 X   2      38.106  39.551  17.7340  0.00  0.00     0.000 S
ATOM     39   O  A00 X   2      37.737  40.639  18.5890  0.00  0.00     0.000 OA
ENDBRANCH 24 34
BRANCH 20 40
ATOM     40  O4  A00 X   3      35.266  35.383  21.0280  0.00  0.00     0.000 O
BRANCH 40 44
ATOM     41  C1  A00 X   3      35.535  37.251  24.1210  0.00  0.00     0.000 C
ATOM     42  C2  A00 X   3      35.265  35.734  24.0300  0.00  0.00     0.000 C
ATOM     43  C3  A00 X   3      34.091  35.435  23.0620  0.00  0.00     0.000 C
ATOM     44  C4  A00 X   3      34.209  36.104  21.6980  0.00  0.00     0.000 C
ATOM     45  C5  A00 X   3      34.474  37.626  21.8720  0.00  0.00     0.000 C
ATOM     46  O5  A00 X   3      35.582  37.860  22.8010  0.00  0.00     0.000 O
ATOM     47   O  A00 X   3      33.695  34.069  22.9650  0.00  0.00     0.000 O
ATOM     49  HD  A00 X   3      33.605  34.271  22.1280  0.00  0.00     0.000 HD
BRANCH 42 49
ATOM     49   O  A00 X   3      36.489  35.112  23.5820  0.00  0.00     0.000 O
ATOM     50   O  A00 X   3      37.203  32.898  23.0160  0.00  0.00     0.000 OA
ATOM     51   O  A00 X   3      35.812  33.202  24.9040  0.00  0.00     0.000 OA
ATOM     52   O  A00 X   3      38.025  34.028  24.9890  0.00  0.00     0.000 OA
ATOM     53   S  A00 X   3      36.920  33.727  24.1450  0.00  0.00     0.000 S
ENDBRANCH 42 49
BRANCH 45 54
ATOM     54   C  A00 X   3      33.197  38.384  22.2530  0.00  0.00     0.000 C
ATOM     55   O  A00 X   3      33.130  39.589  22.1190  0.00  0.00     0.000 OA
ATOM     56   O  A00 X   3      32.227  37.791  22.6980  0.00  0.00     0.000 OA
ENDBRANCH 45 54
BRANCH 41 57
ATOM     57  O4  A00 X   4      34.623  37.902  25.0350  0.00  0.00     0.000 O
BRANCH 57 61
ATOM     58  C1  A00 X   4      34.919  41.446  27.4830  0.00  0.00     0.000 C
ATOM     59  C2  A00 X   4      34.659  41.613  25.9650  0.00  0.00     0.000 C
ATOM     60  C3  A00 X   4      34.219  40.308  25.2690  0.00  0.00     0.000 C
ATOM     61  C4  A00 X   4      35.130  39.121  25.6490  0.00  0.00     0.000 C
ATOM     62  C5  A00 X   4      35.075  39.006  27.1930  0.00  0.00     0.000 C
ATOM     63  O5  A00 X   4      35.618  40.216  27.7810  0.00  0.00     0.000 O
BRANCH 59 66
ATOM     64   N  A00 X   4      35.905  42.023  25.2920  0.00  0.00     0.000 N
ATOM     66  HD  A00 X   4      36.654  41.783  25.6570  0.00  0.00     0.000 HD
ATOM     66   O  A00 X   4      35.409  44.280  25.9690  0.00  0.00     0.000 OA
ATOM     67   S  A00 X   4      36.101  43.571  24.9390  0.00  0.00     0.000 S
ATOM     68   O  A00 X   4      37.531  43.666  24.9780  0.00  0.00     0.000 OA
ATOM     69   O  A00 X   4      35.545  43.601  23.6160  0.00  0.00     0.000 OA
ENDBRANCH 59 66
BRANCH 62 70
ATOM     70   C  A00 X   4      35.845  37.792  27.7640  0.00  0.00     0.000 C
ATOM     71   O  A00 X   4      39.305  37.600  28.8130  0.00  0.00     0.000 OA
ATOM     72   O  A00 X   4      38.049  36.194  27.4030  0.00  0.00     0.000 OA
ATOM     73   O  A00 X   4      37.115  38.232  28.2730  0.00  0.00     0.000 O
ATOM     74   O  A00 X   4      38.820  38.352  26.5740  0.00  0.00     0.000 OA
ATOM     75   S  A00 X   4      38.409  37.564  27.6920  0.00  0.00     0.000 S
ENDBRANCH 62 70
ENDBRANCH 57 61
ENDBRANCH 41 57
ENDBRANCH 40 44
ENDBRANCH 20 40
ENDBRANCH 19 23
ENDBRANCH 1 19
TORSDOF 14
ENDMDL
MODEL 84
REMARK VINA RESULT:      -0.1     51.244     57.343
ROOT
ATOM      1  C1  A00 X   1      37.343  34.166  48.8070  0.00  0.00     0.000 C
ATOM      2  C2  A00 X   1      36.742  33.643  50.1380  0.00  0.00     0.000 C
ATOM      3  C3  A00 X   1      37.360  34.229  51.4500  0.00  0.00     0.000 C
ATOM      4  C4  A00 X   1      38.716  34.962  51.2800  0.00  0.00     0.000 C
ATOM      5  C5  A00 X   1      39.455  34.523  50.0160  0.00  0.00     0.000 C
ATOM      6  O5  A00 X   1      38.583  34.907  48.9290  0.00  0.00     0.000 O
ATOM      7   O  A00 X   1      37.590  33.160  52.3650  0.00  0.00     0.000 O
ATOM      9  HD  A00 X   1      38.277  33.686  52.4100  0.00  0.00     0.000 HD
ATOM      9   O  A00 X   1      38.545  36.379  51.2710  0.00  0.00     0.000 O
ATOM     11  HD  A00 X   1      39.232  36.905  51.3160  0.00  0.00     0.000 HD
ENDROOT
BRANCH 2 11
ATOM     11   O  A00 X   1      35.328  33.922  50.1210  0.00  0.00     0.000 O
ATOM     12   O  A00 X   1      33.865  33.181  51.8740  0.00  0.00     0.000 OA
ATOM     13   O  A00 X   1      34.997  31.531  50.4920  0.00  0.00     0.000 OA
ATOM     14   O  A00 X   1      33.296  32.913  49.5680  0.00  0.00     0.000 OA
ATOM     15   S  A00 X   1      34.328  32.800  50.5640  0.00  0.00     0.000 S
ENDBRANCH 2 11
BRANCH 5 16
ATOM     16   C  A00 X   1      39.862  33.046  49.9830  0.00  0.00     0.000 C
ATOM     17   O  A00 X   1      40.272  32.579  48.9400  0.00  0.00     0.000 OA
ATOM     18   O  A00 X   1      39.796  32.330  50.9620  0.00  0.00     0.000 OA
ENDBRANCH 5 16
BRANCH 1 19
ATOM     19  O4  A00 X   2      37.440  33.137  47.7920  0.00  0.00     0.000 O
BRANCH 19 23
ATOM     20  C1  A00 X   2      36.440  35.793  44.5800  0.00  0.00     0.000 C
ATOM     21  C2  A00 X   2      35.312  34.893  45.1410  0.00  0.00     0.000 C
ATOM     22  C3  A00 X   2      35.692  34.336  46.5290  0.00  0.00     0.000 C
ATOM     23  C4  A00 X   2      37.060  33.618  46.4710  0.00  0.00     0.000 C
ATOM     24  C5  A00 X   2      38.094  34.614  45.8770  0.00  0.00     0.000 C
ATOM     25  O5  A00 X   2      37.658  35.003  44.5490  0.00  0.00     0.000 O
ATOM     26   O  A00 X   2      34.589  33.567  47.0360  0.00  0.00     0.000 O
ATOM     28  HD  A00 X   2      34.511  33.105  46.3070  0.00  0.00     0.000 HD
BRANCH 21 30
ATOM     28   N  A00 X   2      34.761  34.803  43.7860  0.00  0.00     0.000 N
ATOM     30  HD  A00 X   2      34.140  34.535  44.3270  0.00  0.00     0.000 HD
ATOM     30   O  A00 X   2      32.439  34.603  43.9570  0.00  0.00     0.000 OA
ATOM     31   S  A00 X   2      33.547  33.826  43.5240  0.00  0.00     0.000 S
ATOM     32   O  A00 X   2      33.603  33.586  42.1150  0.00  0.00     0.000 OA
ATOM     33   O  A00 X   2      33.813  32.617  44.2450  0.00  0.00     0.000 OA
ENDBRANCH 21 30
BRANCH 24 34
ATOM     34   C  A00 X   2      39.589  34.221  45.9250  0.00  0.00     0.000 C
ATOM     35   O  A00 X   2      40.956  31.207  44.4060  0.00  0.00     0.000 OA
ATOM     36   O  A00 X   2      39.778  32.838  45.5630  0.00  0.00     0.000 O
ATOM     37   O  A00 X   2      39.708  32.833  43.2250  0.00  0.00     0.000 OA
ATOM     38   S  A00 X   2      40.649  32.594  44.2770  0.00  0.00     0.000 S
ATOM     39   O  A00 X   2      41.773  33.476  44.3750  0.00  0.00     0.000 OA
ENDBRANCH 24 34
BRANCH 20 40
ATOM     40  O4  A00 X   3      36.587  36.864  45.5240  0.00  0.00     0.000 O
BRANCH 40 44
ATOM     41  C1  A00 X   3      38.905  38.888  47.4360  0.00  0.00     0.000 C
ATOM     42  C2  A00 X   3      37.367  38.991  47.5230  0.00  0.00     0.000 C
ATOM     43  C3  A00 X   3      36.739  39.133  46.1130  0.00  0.00     0.000 C
ATOM     44  C4  A00 X   3      37.212  38.096  45.1020  0.00  0.00     0.000 C
ATOM     45  C5  A00 X   3      38.765  38.054  45.0690  0.00  0.00     0.000 C
ATOM     46  O5  A00 X   3      39.314  37.930  46.4210  0.00  0.00     0.000 O
ATOM     47   O  A00 X   3      35.326  39.324  46.0760  0.00  0.00     0.000 O
ATOM     49  HD  A00 X   3      35.386  38.799  45.3900  0.00  0.00     0.000 HD
BRANCH 42 49
ATOM     49   O  A00 X   3      36.900  37.799  48.1920  0.00  0.00     0.000 O
ATOM     50   O  A00 X   3      34.777  36.862  48.7800  0.00  0.00     0.000 OA
ATOM     51   O  A00 X   3      35.118  39.184  49.0650  0.00  0.00     0.000 OA
ATOM     52   O  A00 X   3      36.305  37.691  50.4610  0.00  0.00     0.000 OA
ATOM     53   S  A00 X   3      35.703  37.872  49.1850  0.00  0.00     0.000 S
ENDBRANCH 42 49
BRANCH 45 54
ATOM     54   C  A00 X   3      39.348  39.238  44.2870  0.00  0.00     0.000 C
ATOM     55   O  A00 X   3      40.492  39.208  43.8810  0.00  0.00     0.000 OA
ATOM     56   O  A00 X   3      38.673  40.231  44.0610  0.00  0.00     0.000 OA
ENDBRANCH 45 54
BRANCH 41 57
ATOM     57  O4  A00 X   4      39.521  40.188  47.2990  0.00  0.00     0.000 O
BRANCH 57 61
ATOM     58  C1  A00 X   4      43.381  41.764  48.4190  0.00  0.00     0.000 C
ATOM     59  C2  A00 X   4      43.281  40.877  47.1530  0.00  0.00     0.000 C
ATOM     60  C3  A00 X   4      41.836  40.676  46.6550  0.00  0.00     0.000 C
ATOM     61  C4  A00 X   4      40.883  40.283  47.8050  0.00  0.00     0.000 C
ATOM     62  C5  A00 X   4      40.985  41.412  48.8610  0.00  0.00     0.000 C
ATOM     63  O5  A00 X   4      42.340  41.462  49.3760  0.00  0.00     0.000 O
BRANCH 59 66
ATOM     64   N  A00 X   4      43.790  39.523  47.4410  0.00  0.00     0.000 N
ATOM     66  HD  A00 X   4      43.731  39.240  48.2570  0.00  0.00     0.000 HD
ATOM     66   O  A00 X   4      46.009  40.390  47.0870  0.00  0.00     0.000 OA
ATOM     67   S  A00 X   4      45.282  39.163  46.9910  0.00  0.00     0.000 S
ATOM     68   O  A00 X   4      45.615  38.170  47.9700  0.00  0.00     0.000 OA
ATOM     69   O  A00 X   4      45.030  38.635  45.6800  0.00  0.00     0.000 OA
ENDBRANCH 59 66
BRANCH 62 70
ATOM     70   C  A00 X   4      40.011  41.253  50.0530  0.00  0.00     0.000 C
ATOM     71   O  A00 X   4      40.555  39.559  53.2060  0.00  0.00     0.000 OA
ATOM     72   O  A00 X   4      38.772  39.415  51.6740  0.00  0.00     0.000 OA
ATOM     73   O  A00 X   4      40.727  40.728  51.1830  0.00  0.00     0.000 O
ATOM     74   O  A00 X   4      40.891  38.325  51.1620  0.00  0.00     0.000 OA
ATOM     75   S  A00 X   4      40.211  39.392  51.8220  0.00  0.00     0.000 S
ENDBRANCH 62 70
ENDBRANCH 57 61
ENDBRANCH 41 57
ENDBRANCH 40 44
ENDBRANCH 20 40
ENDBRANCH 19 23
ENDBRANCH 1 19
TORSDOF 14
ENDMDL
MODEL 85
REMARK VINA RESULT:      -0.1     72.649     77.541
ROOT
ATOM      1  C1  A00 X   1      40.226  63.665  48.1380  0.00  0.00     0.000 C
ATOM      2  C2  A00 X   1      39.522  62.392  48.6790  0.00  0.00     0.000 C
ATOM      3  C3  A00 X   1      38.461  62.619  49.8060  0.00  0.00     0.000 C
ATOM      4  C4  A00 X   1      38.504  64.008  50.4940  0.00  0.00     0.000 C
ATOM      5  C5  A00 X   1      39.868  64.683  50.3480  0.00  0.00     0.000 C
ATOM      6  O5  A00 X   1      40.036  64.867  48.9250  0.00  0.00     0.000 O
ATOM      7   O  A00 X   1      38.669  61.652  50.8320  0.00  0.00     0.000 O
ATOM      9  HD  A00 X   1      38.499  62.406  51.2230  0.00  0.00     0.000 HD
ATOM      9   O  A00 X   1      37.483  64.871  49.9920  0.00  0.00     0.000 O
ATOM     11  HD  A00 X   1      37.313  65.625  50.3820  0.00  0.00     0.000 HD
ENDROOT
BRANCH 2 11
ATOM     11   O  A00 X   1      38.890  61.734  47.5640  0.00  0.00     0.000 O
ATOM     12   O  A00 X   1      37.781  59.617  47.8020  0.00  0.00     0.000 OA
ATOM     13   O  A00 X   1      40.179  59.755  48.1880  0.00  0.00     0.000 OA
ATOM     14   O  A00 X   1      39.292  60.047  46.0000  0.00  0.00     0.000 OA
ATOM     15   S  A00 X   1      39.048  60.182  47.4110  0.00  0.00     0.000 S
ENDBRANCH 2 11
BRANCH 5 16
ATOM     16   C  A00 X   1      41.032  63.940  51.0120  0.00  0.00     0.000 C
ATOM     17   O  A00 X   1      42.165  64.301  50.7700  0.00  0.00     0.000 OA
ATOM     18   O  A00 X   1      40.861  63.010  51.7740  0.00  0.00     0.000 OA
ENDBRANCH 5 16
BRANCH 1 19
ATOM     19  O4  A00 X   2      41.627  63.447  47.8370  0.00  0.00     0.000 O
BRANCH 19 23
ATOM     20  C1  A00 X   2      41.588  65.984  44.3840  0.00  0.00     0.000 C
ATOM     21  C2  A00 X   2      41.472  64.459  44.1510  0.00  0.00     0.000 C
ATOM     22  C3  A00 X   2      41.068  63.733  45.4520  0.00  0.00     0.000 C
ATOM     23  C4  A00 X   2      42.039  64.092  46.5990  0.00  0.00     0.000 C
ATOM     24  C5  A00 X   2      42.081  65.641  46.7180  0.00  0.00     0.000 C
ATOM     25  O5  A00 X   2      42.544  66.194  45.4580  0.00  0.00     0.000 O
ATOM     26   O  A00 X   2      40.906  62.333  45.1680  0.00  0.00     0.000 O
ATOM     28  HD  A00 X   2      41.673  62.274  44.7710  0.00  0.00     0.000 HD
BRANCH 21 30
ATOM     28   N  A00 X   2      42.241  64.627  42.9150  0.00  0.00     0.000 N
ATOM     30  HD  A00 X   2      41.870  63.846  42.8740  0.00  0.00     0.000 HD
ATOM     30   O  A00 X   2      41.516  63.019  41.3820  0.00  0.00     0.000 OA
ATOM     31   S  A00 X   2      42.688  63.337  42.1180  0.00  0.00     0.000 S
ATOM     32   O  A00 X   2      43.792  63.791  41.3300  0.00  0.00     0.000 OA
ATOM     33   O  A00 X   2      43.129  62.375  43.0840  0.00  0.00     0.000 OA
ENDBRANCH 21 30
BRANCH 24 34
ATOM     34   C  A00 X   2      42.802  66.255  47.9410  0.00  0.00     0.000 C
ATOM     35   O  A00 X   2      46.307  65.681  48.7430  0.00  0.00     0.000 OA
ATOM     36   O  A00 X   2      44.052  65.585  48.2010  0.00  0.00     0.000 O
ATOM     37   O  A00 X   2      45.548  66.530  46.6700  0.00  0.00     0.000 OA
ATOM     38   S  A00 X   2      45.334  66.489  48.0850  0.00  0.00     0.000 S
ATOM     39   O  A00 X   2      45.022  67.721  48.7440  0.00  0.00     0.000 OA
ENDBRANCH 24 34
BRANCH 20 40
ATOM     40  O4  A00 X   3      40.287  66.413  44.8100  0.00  0.00     0.000 O
BRANCH 40 44
ATOM     41  C1  A00 X   3      38.405  68.399  47.1840  0.00  0.00     0.000 C
ATOM     42  C2  A00 X   3      37.778  67.505  46.0920  0.00  0.00     0.000 C
ATOM     43  C3  A00 X   3      38.399  67.807  44.7040  0.00  0.00     0.000 C
ATOM     44  C4  A00 X   3      39.922  67.803  44.6770  0.00  0.00     0.000 C
ATOM     45  C5  A00 X   3      40.476  68.727  45.7980  0.00  0.00     0.000 C
ATOM     46  O5  A00 X   3      39.856  68.414  47.0870  0.00  0.00     0.000 O
ATOM     47   O  A00 X   3      37.834  67.100  43.6020  0.00  0.00     0.000 O
ATOM     49  HD  A00 X   3      38.661  67.062  43.3470  0.00  0.00     0.000 HD
BRANCH 42 49
ATOM     49   O  A00 X   3      38.005  66.134  46.4850  0.00  0.00     0.000 O
ATOM     50   O  A00 X   3      37.581  63.971  45.5520  0.00  0.00     0.000 OA
ATOM     51   O  A00 X   3      35.915  65.639  45.3700  0.00  0.00     0.000 OA
ATOM     52   O  A00 X   3      36.401  64.759  47.5100  0.00  0.00     0.000 OA
ATOM     53   S  A00 X   3      36.921  65.050  46.2180  0.00  0.00     0.000 S
ENDBRANCH 42 49
BRANCH 45 54
ATOM     54   C  A00 X   3      40.366  70.208  45.4200  0.00  0.00     0.000 C
ATOM     55   O  A00 X   3      39.614  70.567  44.5370  0.00  0.00     0.000 OA
ATOM     56   O  A00 X   3      41.033  71.053  45.9970  0.00  0.00     0.000 OA
ENDBRANCH 45 54
BRANCH 41 57
ATOM     57  O4  A00 X   4      37.805  69.713  47.2080  0.00  0.00     0.000 O
BRANCH 57 61
ATOM     58  C1  A00 X   4      37.258  72.658  50.3170  0.00  0.00     0.000 C
ATOM     59  C2  A00 X   4      38.659  72.513  49.6720  0.00  0.00     0.000 C
ATOM     60  C3  A00 X   4      38.649  71.708  48.3570  0.00  0.00     0.000 C
ATOM     61  C4  A00 X   4      37.854  70.392  48.4950  0.00  0.00     0.000 C
ATOM     62  C5  A00 X   4      36.427  70.791  48.9460  0.00  0.00     0.000 C
ATOM     63  O5  A00 X   4      36.498  71.430  50.2460  0.00  0.00     0.000 O
BRANCH 59 66
ATOM     64   N  A00 X   4      39.549  71.773  50.5860  0.00  0.00     0.000 N
ATOM     66  HD  A00 X   4      39.182  71.214  51.1360  0.00  0.00     0.000 HD
ATOM     66   O  A00 X   4      39.925  73.853  51.7410  0.00  0.00     0.000 OA
ATOM     67   S  A00 X   4      40.579  72.609  51.4800  0.00  0.00     0.000 S
ATOM     68   O  A00 X   4      40.712  71.733  52.6070  0.00  0.00     0.000 OA
ATOM     69   O  A00 X   4      41.719  72.622  50.6080  0.00  0.00     0.000 OA
ENDBRANCH 59 66
BRANCH 62 70
ATOM     70   C  A00 X   4      35.438  69.604  49.0360  0.00  0.00     0.000 C
ATOM     71   O  A00 X   4      34.734  67.455  51.8630  0.00  0.00     0.000 OA
ATOM     72   O  A00 X   4      35.230  66.929  49.6220  0.00  0.00     0.000 OA
ATOM     73   O  A00 X   4      35.303  69.201  50.4080  0.00  0.00     0.000 O
ATOM     74   O  A00 X   4      37.016  67.659  51.1100  0.00  0.00     0.000 OA
ATOM     75   S  A00 X   4      35.630  67.711  50.7710  0.00  0.00     0.000 S
ENDBRANCH 62 70
ENDBRANCH 57 61
ENDBRANCH 41 57
ENDBRANCH 40 44
ENDBRANCH 20 40
ENDBRANCH 19 23
ENDBRANCH 1 19
TORSDOF 14
ENDMDL
MODEL 86
REMARK VINA RESULT:      -0.1     64.034     69.498
ROOT
ATOM      1  C1  A00 X   1      59.706  47.806  39.1190  0.00  0.00     0.000 C
ATOM      2  C2  A00 X   1      60.465  47.726  37.7680  0.00  0.00     0.000 C
ATOM      3  C3  A00 X   1      59.600  47.367  36.5150  0.00  0.00     0.000 C
ATOM      4  C4  A00 X   1      58.196  46.782  36.8170  0.00  0.00     0.000 C
ATOM      5  C5  A00 X   1      58.116  46.164  38.2130  0.00  0.00     0.000 C
ATOM      6  O5  A00 X   1      58.362  47.265  39.1160  0.00  0.00     0.000 O
ATOM      7   O  A00 X   1      60.291  46.384  35.7480  0.00  0.00     0.000 O
ATOM      9  HD  A00 X   1      59.455  46.158  35.7580  0.00  0.00     0.000 HD
ATOM      9   O  A00 X   1      57.176  47.769  36.6680  0.00  0.00     0.000 O
ATOM     11  HD  A00 X   1      56.340  47.544  36.6770  0.00  0.00     0.000 HD
ENDROOT
BRANCH 2 11
ATOM     11   O  A00 X   1      61.104  48.999  37.5470  0.00  0.00     0.000 O
ATOM     12   O  A00 X   1      62.205  49.525  35.4790  0.00  0.00     0.000 OA
ATOM     13   O  A00 X   1      63.075  47.727  36.8670  0.00  0.00     0.000 OA
ATOM     14   O  A00 X   1      63.218  49.987  37.5940  0.00  0.00     0.000 OA
ATOM     15   S  A00 X   1      62.484  49.035  36.8050  0.00  0.00     0.000 S
ENDBRANCH 2 11
BRANCH 5 16
ATOM     16   C  A00 X   1      59.040  44.964  38.4430  0.00  0.00     0.000 C
ATOM     17   O  A00 X   1      59.193  44.558  39.5770  0.00  0.00     0.000 OA
ATOM     18   O  A00 X   1      59.618  44.401  37.5340  0.00  0.00     0.000 OA
ENDBRANCH 5 16
BRANCH 1 19
ATOM     19  O4  A00 X   2      60.481  47.290  40.2290  0.00  0.00     0.000 O
BRANCH 19 23
ATOM     20  C1  A00 X   2      59.167  50.324  42.9550  0.00  0.00     0.000 C
ATOM     21  C2  A00 X   2      60.545  50.521  42.2770  0.00  0.00     0.000 C
ATOM     22  C3  A00 X   2      60.682  49.612  41.0380  0.00  0.00     0.000 C
ATOM     23  C4  A00 X   2      60.401  48.139  41.4100  0.00  0.00     0.000 C
ATOM     24  C5  A00 X   2      59.007  48.080  42.0930  0.00  0.00     0.000 C
ATOM     25  O5  A00 X   2      59.033  48.915  43.2800  0.00  0.00     0.000 O
ATOM     26   O  A00 X   2      61.946  49.880  40.4060  0.00  0.00     0.000 O
ATOM     28  HD  A00 X   2      62.389  49.800  41.1460  0.00  0.00     0.000 HD
BRANCH 21 30
ATOM     28   N  A00 X   2      61.020  51.155  43.5110  0.00  0.00     0.000 N
ATOM     30  HD  A00 X   2      61.589  51.357  42.8900  0.00  0.00     0.000 HD
ATOM     30   O  A00 X   2      62.607  52.770  42.9340  0.00  0.00     0.000 OA
ATOM     31   S  A00 X   2      62.551  51.533  43.6290  0.00  0.00     0.000 S
ATOM     32   O  A00 X   2      62.770  51.622  45.0390  0.00  0.00     0.000 OA
ATOM     33   O  A00 X   2      63.299  50.443  43.0770  0.00  0.00     0.000 OA
ENDBRANCH 21 30
BRANCH 24 34
ATOM     34   C  A00 X   2      58.387  46.688  42.3570  0.00  0.00     0.000 C
ATOM     35   O  A00 X   2      59.980  44.086  44.3450  0.00  0.00     0.000 OA
ATOM     36   O  A00 X   2      59.372  45.763  42.8590  0.00  0.00     0.000 O
ATOM     37   O  A00 X   2      59.540  46.271  45.1360  0.00  0.00     0.000 OA
ATOM     38   S  A00 X   2      59.091  45.200  44.3010  0.00  0.00     0.000 S
ATOM     39   O  A00 X   2      57.698  44.867  44.3410  0.00  0.00     0.000 OA
ENDBRANCH 24 34
BRANCH 20 40
ATOM     40  O4  A00 X   3      58.193  50.683  41.9640  0.00  0.00     0.000 O
BRANCH 40 44
ATOM     41  C1  A00 X   3      55.087  49.790  40.3280  0.00  0.00     0.000 C
ATOM     42  C2  A00 X   3      55.955  51.013  39.9600  0.00  0.00     0.000 C
ATOM     43  C3  A00 X   3      56.296  51.851  41.2190  0.00  0.00     0.000 C
ATOM     44  C4  A00 X   3      56.860  51.046  42.3830  0.00  0.00     0.000 C
ATOM     45  C5  A00 X   3      55.931  49.839  42.6960  0.00  0.00     0.000 C
ATOM     46  O5  A00 X   3      55.628  49.083  41.4790  0.00  0.00     0.000 O
ATOM     47   O  A00 X   3      57.024  53.055  40.9880  0.00  0.00     0.000 O
ATOM     49  HD  A00 X   3      57.428  52.818  41.7160  0.00  0.00     0.000 HD
BRANCH 42 49
ATOM     49   O  A00 X   3      57.149  50.507  39.3240  0.00  0.00     0.000 O
ATOM     50   O  A00 X   3      59.174  51.439  38.4510  0.00  0.00     0.000 OA
ATOM     51   O  A00 X   3      57.132  52.554  38.0330  0.00  0.00     0.000 OA
ATOM     52   O  A00 X   3      57.503  50.460  37.0030  0.00  0.00     0.000 OA
ATOM     53   S  A00 X   3      57.791  51.275  38.1320  0.00  0.00     0.000 S
ENDBRANCH 42 49
BRANCH 45 54
ATOM     54   C  A00 X   3      54.677  50.273  43.4640  0.00  0.00     0.000 C
ATOM     55   O  A00 X   3      54.017  49.462  44.0810  0.00  0.00     0.000 OA
ATOM     56   O  A00 X   3      54.318  51.441  43.4680  0.00  0.00     0.000 OA
ENDBRANCH 45 54
BRANCH 41 57
ATOM     57  O4  A00 X   4      53.692  50.146  40.4610  0.00  0.00     0.000 O
BRANCH 57 61
ATOM     58  C1  A00 X   4      50.016  47.938  39.9650  0.00  0.00     0.000 C
ATOM     59  C2  A00 X   4      50.832  47.737  41.2670  0.00  0.00     0.000 C
ATOM     60  C3  A00 X   4      51.907  48.820  41.4910  0.00  0.00     0.000 C
ATOM     61  C4  A00 X   4      52.752  49.061  40.2220  0.00  0.00     0.000 C
ATOM     62  C5  A00 X   4      51.755  49.452  39.1030  0.00  0.00     0.000 C
ATOM     63  O5  A00 X   4      50.853  48.342  38.8580  0.00  0.00     0.000 O
BRANCH 59 66
ATOM     64   N  A00 X   4      51.561  46.458  41.1990  0.00  0.00     0.000 N
ATOM     66  HD  A00 X   4      51.774  46.159  40.4150  0.00  0.00     0.000 HD
ATOM     66   O  A00 X   4      49.529  45.377  41.9070  0.00  0.00     0.000 OA
ATOM     67   S  A00 X   4      50.945  45.194  41.9620  0.00  0.00     0.000 S
ATOM     68   O  A00 X   4      51.462  44.128  41.1550  0.00  0.00     0.000 OA
ATOM     69   O  A00 X   4      51.588  45.331  43.2380  0.00  0.00     0.000 OA
ENDBRANCH 59 66
BRANCH 62 70
ATOM     70   C  A00 X   4      52.428  49.844  37.7660  0.00  0.00     0.000 C
ATOM     71   O  A00 X   4      53.376  47.708  35.0000  0.00  0.00     0.000 OA
ATOM     72   O  A00 X   4      54.595  49.363  36.1480  0.00  0.00     0.000 OA
ATOM     73   O  A00 X   4      52.392  48.721  36.8690  0.00  0.00     0.000 O
ATOM     74   O  A00 X   4      54.227  47.195  37.1970  0.00  0.00     0.000 OA
ATOM     75   S  A00 X   4      53.754  48.196  36.2970  0.00  0.00     0.000 S
ENDBRANCH 62 70
ENDBRANCH 57 61
ENDBRANCH 41 57
ENDBRANCH 40 44
ENDBRANCH 20 40
ENDBRANCH 19 23
ENDBRANCH 1 19
TORSDOF 14
ENDMDL
MODEL 87
REMARK VINA RESULT:      -0.1     42.814     48.544
ROOT
ATOM      1  C1  A00 X   1      53.120  34.284   8.7780  0.00  0.00     0.000 C
ATOM      2  C2  A00 X   1      52.555  35.622   8.2320  0.00  0.00     0.000 C
ATOM      3  C3  A00 X   1      53.422  36.343   7.1470  0.00  0.00     0.000 C
ATOM      4  C4  A00 X   1      54.884  35.842   7.0180  0.00  0.00     0.000 C
ATOM      5  C5  A00 X   1      55.371  35.148   8.2900  0.00  0.00     0.000 C
ATOM      6  O5  A00 X   1      54.501  34.003   8.4390  0.00  0.00     0.000 O
ATOM      7   O  A00 X   1      53.497  37.730   7.4680  0.00  0.00     0.000 O
ATOM      9  HD  A00 X   1      54.285  37.486   7.2060  0.00  0.00     0.000 HD
ATOM      9   O  A00 X   1      55.038  34.966   5.9020  0.00  0.00     0.000 O
ATOM     11  HD  A00 X   1      55.826  34.722   5.6390  0.00  0.00     0.000 HD
ENDROOT
BRANCH 2 11
ATOM     11   O  A00 X   1      51.248  35.357   7.6880  0.00  0.00     0.000 O
ATOM     12   O  A00 X   1      49.830  37.116   6.8740  0.00  0.00     0.000 OA
ATOM     13   O  A00 X   1      50.419  37.057   9.2340  0.00  0.00     0.000 OA
ATOM     14   O  A00 X   1      48.996  35.392   8.3050  0.00  0.00     0.000 OA
ATOM     15   S  A00 X   1      50.066  36.320   8.0520  0.00  0.00     0.000 S
ENDBRANCH 2 11
BRANCH 5 16
ATOM     16   C  A00 X   1      55.427  36.041   9.5340  0.00  0.00     0.000 C
ATOM     17   O  A00 X   1      55.404  37.245   9.3860  0.00  0.00     0.000 OA
ATOM     18   O  A00 X   1      55.488  35.587  10.6590  0.00  0.00     0.000 OA
ENDBRANCH 5 16
BRANCH 1 19
ATOM     19  O4  A00 X   2      52.878  34.108  10.1950  0.00  0.00     0.000 O
BRANCH 19 23
ATOM     20  C1  A00 X   2      52.231  29.884   9.8670  0.00  0.00     0.000 C
ATOM     21  C2  A00 X   2      50.982  30.796   9.9300  0.00  0.00     0.000 C
ATOM     22  C3  A00 X   2      51.352  32.259   9.6110  0.00  0.00     0.000 C
ATOM     23  C4  A00 X   2      52.495  32.743  10.5310  0.00  0.00     0.000 C
ATOM     24  C5  A00 X   2      53.674  31.742  10.3920  0.00  0.00     0.000 C
ATOM     25  O5  A00 X   2      53.215  30.423  10.7890  0.00  0.00     0.000 O
ATOM     26   O  A00 X   2      50.152  33.050   9.6130  0.00  0.00     0.000 O
ATOM     28  HD  A00 X   2      49.895  32.748  10.3830  0.00  0.00     0.000 HD
BRANCH 21 30
ATOM     28   N  A00 X   2      50.294  29.737  10.6760  0.00  0.00     0.000 N
ATOM     30  HD  A00 X   2      49.684  30.286  10.3990  0.00  0.00     0.000 HD
ATOM     30   O  A00 X   2      48.020  29.833  10.1470  0.00  0.00     0.000 OA
ATOM     31   S  A00 X   2      48.862  30.038  11.2730  0.00  0.00     0.000 S
ATOM     32   O  A00 X   2      48.720  29.070  12.3160  0.00  0.00     0.000 OA
ATOM     33   O  A00 X   2      48.901  31.360  11.8220  0.00  0.00     0.000 OA
ENDBRANCH 21 30
BRANCH 24 34
ATOM     34   C  A00 X   2      55.029  32.121  11.0350  0.00  0.00     0.000 C
ATOM     35   O  A00 X   2      56.556  30.309  13.7980  0.00  0.00     0.000 OA
ATOM     36   O  A00 X   2      55.206  31.466  12.3060  0.00  0.00     0.000 O
ATOM     37   O  A00 X   2      55.917  29.307  11.7540  0.00  0.00     0.000 OA
ATOM     38   S  A00 X   2      56.430  30.482  12.3890  0.00  0.00     0.000 S
ATOM     39   O  A00 X   2      57.529  31.150  11.7590  0.00  0.00     0.000 OA
ENDBRANCH 24 34
BRANCH 20 40
ATOM     40  O4  A00 X   3      52.723  29.992   8.5240  0.00  0.00     0.000 O
BRANCH 40 44
ATOM     41  C1  A00 X   3      55.625  30.430   6.3990  0.00  0.00     0.000 C
ATOM     42  C2  A00 X   3      54.170  30.330   5.8920  0.00  0.00     0.000 C
ATOM     43  C3  A00 X   3      53.459  29.086   6.4850  0.00  0.00     0.000 C
ATOM     44  C4  A00 X   3      53.575  28.951   7.9980  0.00  0.00     0.000 C
ATOM     45  C5  A00 X   3      55.065  29.057   8.4290  0.00  0.00     0.000 C
ATOM     46  O5  A00 X   3      55.698  30.238   7.8390  0.00  0.00     0.000 O
ATOM     47   O  A00 X   3      52.134  28.844   6.0170  0.00  0.00     0.000 O
ATOM     49  HD  A00 X   3      52.002  28.626   6.8450  0.00  0.00     0.000 HD
BRANCH 42 49
ATOM     49   O  A00 X   3      53.503  31.552   6.2770  0.00  0.00     0.000 O
ATOM     50   O  A00 X   3      51.286  32.442   6.1150  0.00  0.00     0.000 OA
ATOM     51   O  A00 X   3      52.186  31.276   4.2650  0.00  0.00     0.000 OA
ATOM     52   O  A00 X   3      53.120  33.369   4.8400  0.00  0.00     0.000 OA
ATOM     53   S  A00 X   3      52.458  32.210   5.3290  0.00  0.00     0.000 S
ENDBRANCH 42 49
BRANCH 45 54
ATOM     54   C  A00 X   3      55.830  27.758   8.1470  0.00  0.00     0.000 C
ATOM     55   O  A00 X   3      55.397  26.943   7.3580  0.00  0.00     0.000 OA
ATOM     56   O  A00 X   3      56.887  27.520   8.7110  0.00  0.00     0.000 OA
ENDBRANCH 45 54
BRANCH 41 57
ATOM     57  O4  A00 X   4      56.512  29.572   5.6470  0.00  0.00     0.000 O
BRANCH 57 61
ATOM     58  C1  A00 X   4      60.731  29.744   4.7470  0.00  0.00     0.000 C
ATOM     59  C2  A00 X   4      60.292  29.274   6.1570  0.00  0.00     0.000 C
ATOM     60  C3  A00 X   4      58.796  28.911   6.2450  0.00  0.00     0.000 C
ATOM     61  C4  A00 X   4      57.903  30.000   5.6130  0.00  0.00     0.000 C
ATOM     62  C5  A00 X   4      58.380  30.157   4.1470  0.00  0.00     0.000 C
ATOM     63  O5  A00 X   4      59.755  30.620   4.1400  0.00  0.00     0.000 O
BRANCH 59 66
ATOM     64   N  A00 X   4      60.489  30.343   7.1510  0.00  0.00     0.000 N
ATOM     66  HD  A00 X   4      60.446  31.162   6.8720  0.00  0.00     0.000 HD
ATOM     66   O  A00 X   4      62.804  29.687   7.2500  0.00  0.00     0.000 OA
ATOM     67   S  A00 X   4      61.800  30.294   8.0670  0.00  0.00     0.000 S
ATOM     68   O  A00 X   4      61.982  31.691   8.3330  0.00  0.00     0.000 OA
ATOM     69   O  A00 X   4      61.301  29.543   9.1830  0.00  0.00     0.000 OA
ENDBRANCH 59 66
BRANCH 62 70
ATOM     70   C  A00 X   4      57.527  31.137   3.3070  0.00  0.00     0.000 C
ATOM     71   O  A00 X   4      57.949  34.707   2.8760  0.00  0.00     0.000 OA
ATOM     72   O  A00 X   4      56.039  33.443   3.4210  0.00  0.00     0.000 OA
ATOM     73   O  A00 X   4      58.199  32.404   3.2260  0.00  0.00     0.000 O
ATOM     74   O  A00 X   4      57.748  33.832   5.1140  0.00  0.00     0.000 OA
ATOM     75   S  A00 X   4      57.432  33.675   3.7300  0.00  0.00     0.000 S
ENDBRANCH 62 70
ENDBRANCH 57 61
ENDBRANCH 41 57
ENDBRANCH 40 44
ENDBRANCH 20 40
ENDBRANCH 19 23
ENDBRANCH 1 19
TORSDOF 14
ENDMDL
MODEL 88
REMARK VINA RESULT:      -0.1     66.044     71.128
ROOT
ATOM      1  C1  A00 X   1      60.597  47.866  40.5110  0.00  0.00     0.000 C
ATOM      2  C2  A00 X   1      61.428  47.563  39.2360  0.00  0.00     0.000 C
ATOM      3  C3  A00 X   1      60.612  47.364  37.9160  0.00  0.00     0.000 C
ATOM      4  C4  A00 X   1      59.091  47.127  38.0990  0.00  0.00     0.000 C
ATOM      5  C5  A00 X   1      58.753  46.597  39.4920  0.00  0.00     0.000 C
ATOM      6  O5  A00 X   1      59.169  47.647  40.3950  0.00  0.00     0.000 O
ATOM      7   O  A00 X   1      61.121  46.220  37.2330  0.00  0.00     0.000 O
ATOM      9  HD  A00 X   1      60.257  46.192  37.1700  0.00  0.00     0.000 HD
ATOM      9   O  A00 X   1      58.343  48.315  37.8400  0.00  0.00     0.000 O
ATOM     11  HD  A00 X   1      57.480  48.287  37.7770  0.00  0.00     0.000 HD
ENDROOT
BRANCH 2 11
ATOM     11   O  A00 X   1      62.360  48.647  39.0520  0.00  0.00     0.000 O
ATOM     12   O  A00 X   1      63.724  48.829  37.0850  0.00  0.00     0.000 OA
ATOM     13   O  A00 X   1      64.035  46.934  38.5770  0.00  0.00     0.000 OA
ATOM     14   O  A00 X   1      64.634  49.127  39.2750  0.00  0.00     0.000 OA
ATOM     15   S  A00 X   1      63.769  48.339  38.4390  0.00  0.00     0.000 S
ENDBRANCH 2 11
BRANCH 5 16
ATOM     16   C  A00 X   1      59.352  45.227  39.8270  0.00  0.00     0.000 C
ATOM     17   O  A00 X   1      59.310  44.841  40.9770  0.00  0.00     0.000 OA
ATOM     18   O  A00 X   1      59.858  44.514  38.9850  0.00  0.00     0.000 OA
ENDBRANCH 5 16
BRANCH 1 19
ATOM     19  O4  A00 X   2      61.134  47.229  41.6960  0.00  0.00     0.000 O
BRANCH 19 23
ATOM     20  C1  A00 X   2      60.331  50.585  44.2370  0.00  0.00     0.000 C
ATOM     21  C2  A00 X   2      61.769  50.435  43.6840  0.00  0.00     0.000 C
ATOM     22  C3  A00 X   2      61.797  49.473  42.4780  0.00  0.00     0.000 C
ATOM     23  C4  A00 X   2      61.153  48.118  42.8490  0.00  0.00     0.000 C
ATOM     24  C5  A00 X   2      59.731  48.405  43.4040  0.00  0.00     0.000 C
ATOM     25  O5  A00 X   2      59.848  49.257  44.5730  0.00  0.00     0.000 O
ATOM     26   O  A00 X   2      63.137  49.421  41.9600  0.00  0.00     0.000 O
ATOM     28  HD  A00 X   2      63.486  49.270  42.7380  0.00  0.00     0.000 HD
BRANCH 21 30
ATOM     28   N  A00 X   2      62.272  50.991  44.9440  0.00  0.00     0.000 N
ATOM     30  HD  A00 X   2      62.922  51.033  44.3740  0.00  0.00     0.000 HD
ATOM     30   O  A00 X   2      64.231  52.178  44.4860  0.00  0.00     0.000 OA
ATOM     31   S  A00 X   2      63.832  51.013  45.1940  0.00  0.00     0.000 S
ATOM     32   O  A00 X   2      63.946  51.104  46.6170  0.00  0.00     0.000 OA
ATOM     33   O  A00 X   2      64.354  49.762  44.7320  0.00  0.00     0.000 OA
ENDBRANCH 21 30
BRANCH 24 34
ATOM     34   C  A00 X   2      58.786  47.202  43.6350  0.00  0.00     0.000 C
ATOM     35   O  A00 X   2      59.562  44.383  45.8050  0.00  0.00     0.000 OA
ATOM     36   O  A00 X   2      59.485  46.096  44.2410  0.00  0.00     0.000 O
ATOM     37   O  A00 X   2      59.574  46.639  46.5140  0.00  0.00     0.000 OA
ATOM     38   S  A00 X   2      58.961  45.668  45.6600  0.00  0.00     0.000 S
ATOM     39   O  A00 X   2      57.531  45.663  45.5800  0.00  0.00     0.000 OA
ENDBRANCH 24 34
BRANCH 20 40
ATOM     40  O4  A00 X   3      59.553  51.118  43.1560  0.00  0.00     0.000 O
BRANCH 40 44
ATOM     41  C1  A00 X   3      56.474  50.898  41.2600  0.00  0.00     0.000 C
ATOM     42  C2  A00 X   3      57.629  51.874  40.9520  0.00  0.00     0.000 C
ATOM     43  C3  A00 X   3      58.046  52.660  42.2210  0.00  0.00     0.000 C
ATOM     44  C4  A00 X   3      58.309  51.791  43.4450  0.00  0.00     0.000 C
ATOM     45  C5  A00 X   3      57.103  50.842  43.6930  0.00  0.00     0.000 C
ATOM     46  O5  A00 X   3      56.738  50.130  42.4670  0.00  0.00     0.000 O
ATOM     47   O  A00 X   3      59.050  53.656  42.0360  0.00  0.00     0.000 O
ATOM     49  HD  A00 X   3      59.325  53.361  42.8020  0.00  0.00     0.000 HD
BRANCH 42 49
ATOM     49   O  A00 X   3      58.724  51.086  40.4350  0.00  0.00     0.000 O
ATOM     50   O  A00 X   3      60.975  51.496  39.7330  0.00  0.00     0.000 OA
ATOM     51   O  A00 X   3      59.288  53.032  39.1120  0.00  0.00     0.000 OA
ATOM     52   O  A00 X   3      59.251  50.870  38.1570  0.00  0.00     0.000 OA
ATOM     53   S  A00 X   3      59.623  51.641  39.2930  0.00  0.00     0.000 S
ENDBRANCH 42 49
BRANCH 45 54
ATOM     54   C  A00 X   3      55.923  51.580  44.3370  0.00  0.00     0.000 C
ATOM     55   O  A00 X   3      55.046  50.965  44.9080  0.00  0.00     0.000 OA
ATOM     56   O  A00 X   3      55.844  52.797  44.2860  0.00  0.00     0.000 OA
ENDBRANCH 45 54
BRANCH 41 57
ATOM     57  O4  A00 X   4      55.193  51.568  41.2590  0.00  0.00     0.000 O
BRANCH 57 61
ATOM     58  C1  A00 X   4      51.162  50.239  40.4720  0.00  0.00     0.000 C
ATOM     59  C2  A00 X   4      51.796  49.909  41.8460  0.00  0.00     0.000 C
ATOM     60  C3  A00 X   4      53.070  50.725  42.1470  0.00  0.00     0.000 C
ATOM     61  C4  A00 X   4      54.051  50.718  40.9560  0.00  0.00     0.000 C
ATOM     62  C5  A00 X   4      53.269  51.282  39.7440  0.00  0.00     0.000 C
ATOM     63  O5  A00 X   4      52.160  50.399  39.4380  0.00  0.00     0.000 O
BRANCH 59 66
ATOM     64   N  A00 X   4      52.213  48.495  41.8680  0.00  0.00     0.000 N
ATOM     66  HD  A00 X   4      52.417  48.126  41.1120  0.00  0.00     0.000 HD
ATOM     66   O  A00 X   4      49.934  47.935  42.4080  0.00  0.00     0.000 OA
ATOM     67   S  A00 X   4      51.260  47.436  42.5950  0.00  0.00     0.000 S
ATOM     68   O  A00 X   4      51.582  46.249  41.8580  0.00  0.00     0.000 OA
ATOM     69   O  A00 X   4      51.808  47.471  43.9220  0.00  0.00     0.000 OA
ENDBRANCH 59 66
BRANCH 62 70
ATOM     70   C  A00 X   4      54.124  51.458  38.4660  0.00  0.00     0.000 C
ATOM     71   O  A00 X   4      54.785  49.055  35.8400  0.00  0.00     0.000 OA
ATOM     72   O  A00 X   4      56.251  50.434  37.0620  0.00  0.00     0.000 OA
ATOM     73   O  A00 X   4      53.907  50.338  37.5920  0.00  0.00     0.000 O
ATOM     74   O  A00 X   4      55.307  48.449  38.1150  0.00  0.00     0.000 OA
ATOM     75   S  A00 X   4      55.155  49.495  37.1560  0.00  0.00     0.000 S
ENDBRANCH 62 70
ENDBRANCH 57 61
ENDBRANCH 41 57
ENDBRANCH 40 44
ENDBRANCH 20 40
ENDBRANCH 19 23
ENDBRANCH 1 19
TORSDOF 14
ENDMDL
MODEL 89
REMARK VINA RESULT:      -0.1     69.743     74.210
ROOT
ATOM      1  C1  A00 X   1      47.832  20.648  70.3870  0.00  0.00     0.000 C
ATOM      2  C2  A00 X   1      46.615  20.049  71.1410  0.00  0.00     0.000 C
ATOM      3  C3  A00 X   1      45.766  21.056  71.9850  0.00  0.00     0.000 C
ATOM      4  C4  A00 X   1      46.436  22.426  72.2640  0.00  0.00     0.000 C
ATOM      5  C5  A00 X   1      47.959  22.357  72.1510  0.00  0.00     0.000 C
ATOM      6  O5  A00 X   1      48.209  21.992  70.7750  0.00  0.00     0.000 O
ATOM      7   O  A00 X   1      45.494  20.472  73.2560  0.00  0.00     0.000 O
ATOM      9  HD  A00 X   1      45.686  21.305  73.3940  0.00  0.00     0.000 HD
ATOM      9   O  A00 X   1      45.934  23.440  71.3940  0.00  0.00     0.000 O
ATOM     11  HD  A00 X   1      46.126  24.273  71.5310  0.00  0.00     0.000 HD
ENDROOT
BRANCH 2 11
ATOM     11   O  A00 X   1      45.762  19.418  70.1660  0.00  0.00     0.000 O
ATOM     12   O  A00 X   1      43.599  18.548  70.7430  0.00  0.00     0.000 OA
ATOM     13   O  A00 X   1      45.585  17.557  71.7370  0.00  0.00     0.000 OA
ATOM     14   O  A00 X   1      45.142  17.296  69.4140  0.00  0.00     0.000 OA
ATOM     15   S  A00 X   1      44.968  18.130  70.5730  0.00  0.00     0.000 S
ENDBRANCH 2 11
BRANCH 5 16
ATOM     16   C  A00 X   1      48.642  21.432  73.1640  0.00  0.00     0.000 C
ATOM     17   O  A00 X   1      49.814  21.159  73.0030  0.00  0.00     0.000 OA
ATOM     18   O  A00 X   1      48.057  20.970  74.1220  0.00  0.00     0.000 OA
ENDBRANCH 5 16
BRANCH 1 19
ATOM     19  O4  A00 X   2      48.977  19.760  70.3770  0.00  0.00     0.000 O
BRANCH 19 23
ATOM     20  C1  A00 X   2      50.054  20.705  66.3380  0.00  0.00     0.000 C
ATOM     21  C2  A00 X   2      49.244  19.408  66.5760  0.00  0.00     0.000 C
ATOM     22  C3  A00 X   2      48.573  19.427  67.9660  0.00  0.00     0.000 C
ATOM     23  C4  A00 X   2      49.620  19.693  69.0710  0.00  0.00     0.000 C
ATOM     24  C5  A00 X   2      50.371  21.003  68.7080  0.00  0.00     0.000 C
ATOM     25  O5  A00 X   2      51.016  20.829  67.4190  0.00  0.00     0.000 O
ATOM     26   O  A00 X   2      47.781  18.236  68.1110  0.00  0.00     0.000 O
ATOM     28  HD  A00 X   2      48.428  17.715  67.8670  0.00  0.00     0.000 HD
BRANCH 21 30
ATOM     28   N  A00 X   2      49.985  18.788  65.4730  0.00  0.00     0.000 N
ATOM     30  HD  A00 X   2      49.295  18.287  65.6250  0.00  0.00     0.000 HD
ATOM     30   O  A00 X   2      48.576  17.243  64.4290  0.00  0.00     0.000 OA
ATOM     31   S  A00 X   2      49.775  17.247  65.1910  0.00  0.00     0.000 S
ATOM     32   O  A00 X   2      50.951  16.872  64.4670  0.00  0.00     0.000 OA
ATOM     33   O  A00 X   2      49.740  16.584  66.4600  0.00  0.00     0.000 OA
ENDBRANCH 21 30
BRANCH 24 34
ATOM     34   C  A00 X   2      51.314  21.617  69.7690  0.00  0.00     0.000 C
ATOM     35   O  A00 X   2      54.148  19.865  71.2390  0.00  0.00     0.000 OA
ATOM     36   O  A00 X   2      52.106  20.600  70.4160  0.00  0.00     0.000 O
ATOM     37   O  A00 X   2      53.848  20.175  68.9140  0.00  0.00     0.000 OA
ATOM     38   S  A00 X   2      53.660  20.733  70.2180  0.00  0.00     0.000 S
ATOM     39   O  A00 X   2      53.974  22.119  70.3980  0.00  0.00     0.000 OA
ENDBRANCH 24 34
BRANCH 20 40
ATOM     40  O4  A00 X   3      49.102  21.776  66.4170  0.00  0.00     0.000 O
BRANCH 40 44
ATOM     41  C1  A00 X   3      48.370  25.059  67.7620  0.00  0.00     0.000 C
ATOM     42  C2  A00 X   3      47.392  24.217  66.9150  0.00  0.00     0.000 C
ATOM     43  C3  A00 X   3      48.069  23.726  65.6090  0.00  0.00     0.000 C
ATOM     44  C4  A00 X   3      49.419  23.049  65.8130  0.00  0.00     0.000 C
ATOM     45  C5  A00 X   3      50.347  23.957  66.6680  0.00  0.00     0.000 C
ATOM     46  O5  A00 X   3      49.663  24.405  67.8830  0.00  0.00     0.000 O
ATOM     47   O  A00 X   3      47.232  23.009  64.7050  0.00  0.00     0.000 O
ATOM     49  HD  A00 X   3      47.946  22.530  64.6000  0.00  0.00     0.000 HD
BRANCH 42 49
ATOM     49   O  A00 X   3      46.965  23.110  67.7370  0.00  0.00     0.000 O
ATOM     50   O  A00 X   3      45.576  21.180  67.4590  0.00  0.00     0.000 OA
ATOM     51   O  A00 X   3      44.868  23.238  66.5360  0.00  0.00     0.000 OA
ATOM     52   O  A00 X   3      44.920  23.017  68.8880  0.00  0.00     0.000 OA
ATOM     53   S  A00 X   3      45.499  22.593  67.6600  0.00  0.00     0.000 S
ENDBRANCH 42 49
BRANCH 45 54
ATOM     54   C  A00 X   3      50.929  25.111  65.8430  0.00  0.00     0.000 C
ATOM     55   O  A00 X   3      51.924  25.698  66.2150  0.00  0.00     0.000 OA
ATOM     56   O  A00 X   3      50.402  25.461  64.7980  0.00  0.00     0.000 OA
ENDBRANCH 45 54
BRANCH 41 57
ATOM     57  O4  A00 X   4      48.444  26.424  67.2930  0.00  0.00     0.000 O
BRANCH 57 61
ATOM     58  C1  A00 X   4      49.383  30.168  69.2280  0.00  0.00     0.000 C
ATOM     59  C2  A00 X   4      50.546  29.216  68.8520  0.00  0.00     0.000 C
ATOM     60  C3  A00 X   4      50.135  28.105  67.8640  0.00  0.00     0.000 C
ATOM     61  C4  A00 X   4      48.831  27.403  68.2990  0.00  0.00     0.000 C
ATOM     62  C5  A00 X   4      47.755  28.512  68.4100  0.00  0.00     0.000 C
ATOM     63  O5  A00 X   4      48.145  29.453  69.4430  0.00  0.00     0.000 O
BRANCH 59 66
ATOM     64   N  A00 X   4      51.024  28.519  70.0600  0.00  0.00     0.000 N
ATOM     66  HD  A00 X   4      50.457  28.398  70.7030  0.00  0.00     0.000 HD
ATOM     66   O  A00 X   4      52.337  30.477  70.5480  0.00  0.00     0.000 OA
ATOM     67   S  A00 X   4      52.345  29.066  70.7770  0.00  0.00     0.000 S
ATOM     68   O  A00 X   4      52.093  28.659  72.1280  0.00  0.00     0.000 OA
ATOM     69   O  A00 X   4      53.342  28.284  70.1030  0.00  0.00     0.000 OA
ENDBRANCH 59 66
BRANCH 62 70
ATOM     70   C  A00 X   4      46.336  27.987  68.7330  0.00  0.00     0.000 C
ATOM     71   O  A00 X   4      44.817  27.423  71.9700  0.00  0.00     0.000 OA
ATOM     72   O  A00 X   4      44.946  26.034  70.0730  0.00  0.00     0.000 OA
ATOM     73   O  A00 X   4      46.075  28.157  70.1360  0.00  0.00     0.000 O
ATOM     74   O  A00 X   4      46.914  26.340  71.4770  0.00  0.00     0.000 OA
ATOM     75   S  A00 X   4      45.696  26.885  70.9700  0.00  0.00     0.000 S
ENDBRANCH 62 70
ENDBRANCH 57 61
ENDBRANCH 41 57
ENDBRANCH 40 44
ENDBRANCH 20 40
ENDBRANCH 19 23
ENDBRANCH 1 19
TORSDOF 14
ENDMDL
MODEL 90
REMARK VINA RESULT:      -0.1     58.743     64.141
ROOT
ATOM      1  C1  A00 X   1      40.094  64.126  25.7530  0.00  0.00     0.000 C
ATOM      2  C2  A00 X   1      40.025  65.674  25.6670  0.00  0.00     0.000 C
ATOM      3  C3  A00 X   1      38.619  66.314  25.9140  0.00  0.00     0.000 C
ATOM      4  C4  A00 X   1      37.418  65.336  25.8460  0.00  0.00     0.000 C
ATOM      5  C5  A00 X   1      37.741  64.080  25.0370  0.00  0.00     0.000 C
ATOM      6  O5  A00 X   1      38.816  63.442  25.7630  0.00  0.00     0.000 O
ATOM      7   O  A00 X   1      38.388  67.308  24.9180  0.00  0.00     0.000 O
ATOM      9  HD  A00 X   1      37.646  66.875  25.0230  0.00  0.00     0.000 HD
ATOM      9   O  A00 X   1      36.971  64.968  27.1500  0.00  0.00     0.000 O
ATOM     11  HD  A00 X   1      36.228  64.534  27.2550  0.00  0.00     0.000 HD
ENDROOT
BRANCH 2 11
ATOM     11   O  A00 X   1      40.958  66.208  26.6270  0.00  0.00     0.000 O
ATOM     12   O  A00 X   1      41.401  68.562  26.7940  0.00  0.00     0.000 OA
ATOM     13   O  A00 X   1      41.992  67.382  24.7510  0.00  0.00     0.000 OA
ATOM     14   O  A00 X   1      43.166  66.952  26.7740  0.00  0.00     0.000 OA
ATOM     15   S  A00 X   1      41.921  67.364  26.1860  0.00  0.00     0.000 S
ENDBRANCH 2 11
BRANCH 5 16
ATOM     16   C  A00 X   1      38.062  64.326  23.5590  0.00  0.00     0.000 C
ATOM     17   O  A00 X   1      37.742  65.387  23.0640  0.00  0.00     0.000 OA
ATOM     18   O  A00 X   1      38.629  63.502  22.8690  0.00  0.00     0.000 OA
ENDBRANCH 5 16
BRANCH 1 19
ATOM     19  O4  A00 X   2      40.993  63.549  24.7750  0.00  0.00     0.000 O
BRANCH 19 23
ATOM     20  C1  A00 X   2      42.346  60.443  27.3990  0.00  0.00     0.000 C
ATOM     21  C2  A00 X   2      43.235  61.703  27.2660  0.00  0.00     0.000 C
ATOM     22  C3  A00 X   2      42.437  62.876  26.6590  0.00  0.00     0.000 C
ATOM     23  C4  A00 X   2      41.787  62.457  25.3210  0.00  0.00     0.000 C
ATOM     24  C5  A00 X   2      40.943  61.179  25.5840  0.00  0.00     0.000 C
ATOM     25  O5  A00 X   2      41.819  60.135  26.0810  0.00  0.00     0.000 O
ATOM     26   O  A00 X   2      43.283  64.038  26.6200  0.00  0.00     0.000 O
ATOM     28  HD  A00 X   2      43.933  63.614  26.2360  0.00  0.00     0.000 HD
BRANCH 21 30
ATOM     28   N  A00 X   2      44.412  60.844  27.4190  0.00  0.00     0.000 N
ATOM     30  HD  A00 X   2      44.678  61.658  27.5490  0.00  0.00     0.000 HD
ATOM     30   O  A00 X   2      46.079  62.078  28.4940  0.00  0.00     0.000 OA
ATOM     31   S  A00 X   2      45.846  61.480  27.2270  0.00  0.00     0.000 S
ATOM     32   O  A00 X   2      46.679  60.356  26.9270  0.00  0.00     0.000 OA
ATOM     33   O  A00 X   2      45.772  62.359  26.0980  0.00  0.00     0.000 OA
ENDBRANCH 21 30
BRANCH 24 34
ATOM     34   C  A00 X   2      40.004  60.686  24.4570  0.00  0.00     0.000 C
ATOM     35   O  A00 X   2      40.348  57.474  22.7760  0.00  0.00     0.000 OA
ATOM     36   O  A00 X   2      40.579  59.568  23.7510  0.00  0.00     0.000 O
ATOM     37   O  A00 X   2      40.135  57.724  25.1190  0.00  0.00     0.000 OA
ATOM     38   S  A00 X   2      39.759  58.229  23.8330  0.00  0.00     0.000 S
ATOM     39   O  A00 X   2      38.385  58.582  23.6350  0.00  0.00     0.000 OA
ENDBRANCH 24 34
BRANCH 20 40
ATOM     40  O4  A00 X   3      41.269  60.817  28.2700  0.00  0.00     0.000 O
BRANCH 40 44
ATOM     41  C1  A00 X   3      37.714  60.717  28.9570  0.00  0.00     0.000 C
ATOM     42  C2  A00 X   3      38.758  61.452  29.8260  0.00  0.00     0.000 C
ATOM     43  C3  A00 X   3      39.940  60.515  30.1840  0.00  0.00     0.000 C
ATOM     44  C4  A00 X   3      40.557  59.791  28.9940  0.00  0.00     0.000 C
ATOM     45  C5  A00 X   3      39.448  59.074  28.1740  0.00  0.00     0.000 C
ATOM     46  O5  A00 X   3      38.348  59.991  27.8680  0.00  0.00     0.000 O
ATOM     47   O  A00 X   3      40.926  61.063  31.0580  0.00  0.00     0.000 O
ATOM     49  HD  A00 X   3      41.466  60.632  30.5360  0.00  0.00     0.000 HD
BRANCH 42 49
ATOM     49   O  A00 X   3      39.203  62.600  29.0710  0.00  0.00     0.000 O
ATOM     50   O  A00 X   3      40.820  64.342  29.3600  0.00  0.00     0.000 OA
ATOM     51   O  A00 X   3      39.507  63.685  31.2130  0.00  0.00     0.000 OA
ATOM     52   O  A00 X   3      38.446  64.796  29.4170  0.00  0.00     0.000 OA
ATOM     53   S  A00 X   3      39.519  63.942  29.7940  0.00  0.00     0.000 S
ENDBRANCH 42 49
BRANCH 45 54
ATOM     54   C  A00 X   3      38.983  57.782  28.8570  0.00  0.00     0.000 C
ATOM     55   O  A00 X   3      38.433  56.908  28.2190  0.00  0.00     0.000 OA
ATOM     56   O  A00 X   3      39.156  57.610  30.0540  0.00  0.00     0.000 OA
ENDBRANCH 45 54
BRANCH 41 57
ATOM     57  O4  A00 X   4      36.824  59.910  29.7610  0.00  0.00     0.000 O
BRANCH 57 61
ATOM     58  C1  A00 X   4      32.791  58.484  29.1780  0.00  0.00     0.000 C
ATOM     59  C2  A00 X   4      33.947  57.756  28.4480  0.00  0.00     0.000 C
ATOM     60  C3  A00 X   4      35.343  58.110  29.0010  0.00  0.00     0.000 C
ATOM     61  C4  A00 X   4      35.527  59.635  29.1590  0.00  0.00     0.000 C
ATOM     62  C5  A00 X   4      34.389  60.117  30.0940  0.00  0.00     0.000 C
ATOM     63  O5  A00 X   4      33.110  59.866  29.4570  0.00  0.00     0.000 O
BRANCH 59 66
ATOM     64   N  A00 X   4      33.990  58.134  27.0240  0.00  0.00     0.000 N
ATOM     66  HD  A00 X   4      33.693  58.918  26.8090  0.00  0.00     0.000 HD
ATOM     66   O  A00 X   4      32.243  56.520  26.6470  0.00  0.00     0.000 OA
ATOM     67   S  A00 X   4      33.330  57.142  25.9570  0.00  0.00     0.000 S
ATOM     68   O  A00 X   4      32.958  58.073  24.9330  0.00  0.00     0.000 OA
ATOM     69   O  A00 X   4      34.467  56.329  25.6290  0.00  0.00     0.000 OA
ENDBRANCH 59 66
BRANCH 62 70
ATOM     70   C  A00 X   4      34.469  61.617  30.4650  0.00  0.00     0.000 C
ATOM     71   O  A00 X   4      33.208  64.470  28.6270  0.00  0.00     0.000 OA
ATOM     72   O  A00 X   4      35.321  64.076  29.5880  0.00  0.00     0.000 OA
ATOM     73   O  A00 X   4      33.625  62.370  29.5780  0.00  0.00     0.000 O
ATOM     74   O  A00 X   4      34.716  62.955  27.5110  0.00  0.00     0.000 OA
ATOM     75   S  A00 X   4      34.283  63.525  28.7460  0.00  0.00     0.000 S
ENDBRANCH 62 70
ENDBRANCH 57 61
ENDBRANCH 41 57
ENDBRANCH 40 44
ENDBRANCH 20 40
ENDBRANCH 19 23
ENDBRANCH 1 19
TORSDOF 14
ENDMDL
MODEL 91
REMARK VINA RESULT:      -0.1     56.275     59.648
ROOT
ATOM      1  C1  A00 X   1      23.393  54.687  38.9160  0.00  0.00     0.000 C
ATOM      2  C2  A00 X   1      23.168  53.254  39.4690  0.00  0.00     0.000 C
ATOM      3  C3  A00 X   1      21.707  52.908  39.9060  0.00  0.00     0.000 C
ATOM      4  C4  A00 X   1      20.756  54.120  40.0820  0.00  0.00     0.000 C
ATOM      5  C5  A00 X   1      21.520  55.421  40.3300  0.00  0.00     0.000 C
ATOM      6  O5  A00 X   1      22.305  55.620  39.1330  0.00  0.00     0.000 O
ATOM      7   O  A00 X   1      21.752  52.243  41.1670  0.00  0.00     0.000 O
ATOM      9  HD  A00 X   1      21.087  52.797  41.1940  0.00  0.00     0.000 HD
ATOM      9   O  A00 X   1      19.894  54.275  38.9550  0.00  0.00     0.000 O
ATOM     11  HD  A00 X   1      19.229  54.829  38.9820  0.00  0.00     0.000 HD
ENDROOT
BRANCH 2 11
ATOM     11   O  A00 X   1      23.588  52.322  38.4540  0.00  0.00     0.000 O
ATOM     12   O  A00 X   1      23.254  49.955  38.6880  0.00  0.00     0.000 OA
ATOM     13   O  A00 X   1      24.725  51.109  40.2440  0.00  0.00     0.000 OA
ATOM     14   O  A00 X   1      25.342  50.862  37.9610  0.00  0.00     0.000 OA
ATOM     15   S  A00 X   1      24.254  50.972  38.8940  0.00  0.00     0.000 S
ENDBRANCH 2 11
BRANCH 5 16
ATOM     16   C  A00 X   1      22.348  55.450  41.6190  0.00  0.00     0.000 C
ATOM     17   O  A00 X   1      22.091  54.648  42.4930  0.00  0.00     0.000 OA
ATOM     18   O  A00 X   1      23.253  56.241  41.7940  0.00  0.00     0.000 OA
ENDBRANCH 5 16
BRANCH 1 19
ATOM     19  O4  A00 X   2      24.663  55.253  39.3220  0.00  0.00     0.000 O
BRANCH 19 23
ATOM     20  C1  A00 X   2      25.307  57.240  35.5800  0.00  0.00     0.000 C
ATOM     21  C2  A00 X   2      26.056  55.907  35.8200  0.00  0.00     0.000 C
ATOM     22  C3  A00 X   2      25.412  55.114  36.9760  0.00  0.00     0.000 C
ATOM     23  C4  A00 X   2      25.318  55.986  38.2480  0.00  0.00     0.000 C
ATOM     24  C5  A00 X   2      24.566  57.293  37.8730  0.00  0.00     0.000 C
ATOM     25  O5  A00 X   2      25.310  57.977  36.8320  0.00  0.00     0.000 O
ATOM     26   O  A00 X   2      26.098  53.858  37.1130  0.00  0.00     0.000 O
ATOM     28  HD  A00 X   2      26.880  54.229  37.1270  0.00  0.00     0.000 HD
BRANCH 21 30
ATOM     28   N  A00 X   2      27.185  56.446  35.0550  0.00  0.00     0.000 N
ATOM     30  HD  A00 X   2      27.305  55.590  35.1090  0.00  0.00     0.000 HD
ATOM     30   O  A00 X   2      28.236  54.670  33.9600  0.00  0.00     0.000 OA
ATOM     31   S  A00 X   2      28.524  55.608  34.9860  0.00  0.00     0.000 S
ATOM     32   O  A00 X   2      29.517  56.582  34.6540  0.00  0.00     0.000 OA
ATOM     33   O  A00 X   2      28.762  55.082  36.2980  0.00  0.00     0.000 OA
ENDBRANCH 21 30
BRANCH 24 34
ATOM     34   C  A00 X   2      24.137  58.238  39.0200  0.00  0.00     0.000 C
ATOM     35   O  A00 X   2      26.441  59.693  41.4340  0.00  0.00     0.000 OA
ATOM     36   O  A00 X   2      25.179  58.367  40.0080  0.00  0.00     0.000 O
ATOM     37   O  A00 X   2      26.660  59.927  39.0910  0.00  0.00     0.000 OA
ATOM     38   S  A00 X   2      25.752  59.819  40.1920  0.00  0.00     0.000 S
ATOM     39   O  A00 X   2      24.624  60.701  40.2100  0.00  0.00     0.000 OA
ENDBRANCH 24 34
BRANCH 20 40
ATOM     40  O4  A00 X   3      23.961  56.873  35.2430  0.00  0.00     0.000 O
BRANCH 40 44
ATOM     41  C1  A00 X   3      20.416  57.502  35.6440  0.00  0.00     0.000 C
ATOM     42  C2  A00 X   3      21.017  56.363  34.7920  0.00  0.00     0.000 C
ATOM     43  C3  A00 X   3      22.094  56.908  33.8180  0.00  0.00     0.000 C
ATOM     44  C4  A00 X   3      23.152  57.787  34.4720  0.00  0.00     0.000 C
ATOM     45  C5  A00 X   3      22.472  58.909  35.3050  0.00  0.00     0.000 C
ATOM     46  O5  A00 X   3      21.457  58.351  36.2020  0.00  0.00     0.000 O
ATOM     47   O  A00 X   3      22.657  55.956  32.9180  0.00  0.00     0.000 O
ATOM     49  HD  A00 X   3      23.385  56.394  33.0880  0.00  0.00     0.000 HD
BRANCH 42 49
ATOM     49   O  A00 X   3      21.575  55.397  35.7090  0.00  0.00     0.000 O
ATOM     50   O  A00 X   3      22.756  53.322  35.5340  0.00  0.00     0.000 OA
ATOM     51   O  A00 X   3      20.933  53.724  34.0820  0.00  0.00     0.000 OA
ATOM     52   O  A00 X   3      20.495  53.425  36.3850  0.00  0.00     0.000 OA
ATOM     53   S  A00 X   3      21.441  53.873  35.4230  0.00  0.00     0.000 S
ENDBRANCH 42 49
BRANCH 45 54
ATOM     54   C  A00 X   3      21.935  60.033  34.4120  0.00  0.00     0.000 C
ATOM     55   O  A00 X   3      21.864  59.887  33.2090  0.00  0.00     0.000 OA
ATOM     56   O  A00 X   3      21.571  61.095  34.8940  0.00  0.00     0.000 OA
ENDBRANCH 45 54
BRANCH 41 57
ATOM     57  O4  A00 X   4      19.392  58.224  34.9250  0.00  0.00     0.000 O
BRANCH 57 61
ATOM     58  C1  A00 X   4      15.784  60.242  36.1700  0.00  0.00     0.000 C
ATOM     59  C2  A00 X   4      17.147  60.788  36.6640  0.00  0.00     0.000 C
ATOM     60  C3  A00 X   4      18.353  60.227  35.8830  0.00  0.00     0.000 C
ATOM     61  C4  A00 X   4      18.279  58.692  35.7380  0.00  0.00     0.000 C
ATOM     62  C5  A00 X   4      16.934  58.386  35.0340  0.00  0.00     0.000 C
ATOM     63  O5  A00 X   4      15.841  58.827  35.8790  0.00  0.00     0.000 O
BRANCH 59 66
ATOM     64   N  A00 X   4      17.441  60.452  38.0680  0.00  0.00     0.000 N
ATOM     66  HD  A00 X   4      17.112  59.714  38.3810  0.00  0.00     0.000 HD
ATOM     66   O  A00 X   4      15.995  62.270  38.7020  0.00  0.00     0.000 OA
ATOM     67   S  A00 X   4      17.127  61.547  39.1910  0.00  0.00     0.000 S
ATOM     68   O  A00 X   4      16.876  60.696  40.3180  0.00  0.00     0.000 OA
ATOM     69   O  A00 X   4      18.388  62.230  39.2390  0.00  0.00     0.000 OA
ENDBRANCH 59 66
BRANCH 62 70
ATOM     70   C  A00 X   4      16.723  56.890  34.6980  0.00  0.00     0.000 C
ATOM     71   O  A00 X   4      16.174  54.119  36.9620  0.00  0.00     0.000 OA
ATOM     72   O  A00 X   4      17.674  54.356  35.1630  0.00  0.00     0.000 OA
ATOM     73   O  A00 X   4      16.297  56.193  35.8800  0.00  0.00     0.000 O
ATOM     74   O  A00 X   4      18.134  55.489  37.2710  0.00  0.00     0.000 OA
ATOM     75   S  A00 X   4      17.159  54.976  36.3640  0.00  0.00     0.000 S
ENDBRANCH 62 70
ENDBRANCH 57 61
ENDBRANCH 41 57
ENDBRANCH 40 44
ENDBRANCH 20 40
ENDBRANCH 19 23
ENDBRANCH 1 19
TORSDOF 14
ENDMDL
MODEL 92
REMARK VINA RESULT:      -0.1     45.697     50.835
ROOT
ATOM      1  C1  A00 X   1      11.381  39.616  40.1640  0.00  0.00     0.000 C
ATOM      2  C2  A00 X   1      10.531  38.788  39.1640  0.00  0.00     0.000 C
ATOM      3  C3  A00 X   1       9.633  37.669  39.7870  0.00  0.00     0.000 C
ATOM      4  C4  A00 X   1       9.970  37.279  41.2500  0.00  0.00     0.000 C
ATOM      5  C5  A00 X   1      11.406  37.640  41.6270  0.00  0.00     0.000 C
ATOM      6  O5  A00 X   1      11.467  39.079  41.5070  0.00  0.00     0.000 O
ATOM      7   O  A00 X   1       9.775  36.483  39.0090  0.00  0.00     0.000 O
ATOM      9  HD  A00 X   1       9.770  36.243  39.8420  0.00  0.00     0.000 HD
ATOM      9   O  A00 X   1       9.063  37.882  42.1720  0.00  0.00     0.000 O
ATOM     11  HD  A00 X   1       9.057  37.642  43.0050  0.00  0.00     0.000 HD
ENDROOT
BRANCH 2 11
ATOM     11   O  A00 X   1       9.696  39.707  38.4330  0.00  0.00     0.000 O
ATOM     12   O  A00 X   1       8.293  38.984  36.6230  0.00  0.00     0.000 OA
ATOM     13   O  A00 X   1      10.708  38.791  36.4080  0.00  0.00     0.000 OA
ATOM     14   O  A00 X   1       9.669  40.930  36.4450  0.00  0.00     0.000 OA
ATOM     15   S  A00 X   1       9.589  39.561  36.8760  0.00  0.00     0.000 S
ENDBRANCH 2 11
BRANCH 5 16
ATOM     16   C  A00 X   1      12.489  36.911  40.8250  0.00  0.00     0.000 C
ATOM     17   O  A00 X   1      12.182  35.912  40.2080  0.00  0.00     0.000 OA
ATOM     18   O  A00 X   1      13.639  37.301  40.7790  0.00  0.00     0.000 OA
ENDBRANCH 5 16
BRANCH 1 19
ATOM     19  O4  A00 X   2      12.691  39.951  39.6440  0.00  0.00     0.000 O
BRANCH 19 23
ATOM     20  C1  A00 X   2      12.773  43.817  41.4920  0.00  0.00     0.000 C
ATOM     21  C2  A00 X   2      12.356  43.745  40.0030  0.00  0.00     0.000 C
ATOM     22  C3  A00 X   2      11.958  42.307  39.6130  0.00  0.00     0.000 C
ATOM     23  C4  A00 X   2      13.089  41.314  39.9670  0.00  0.00     0.000 C
ATOM     24  C5  A00 X   2      13.426  41.497  41.4730  0.00  0.00     0.000 C
ATOM     25  O5  A00 X   2      13.853  42.866  41.6930  0.00  0.00     0.000 O
ATOM     26   O  A00 X   2      11.515  42.306  38.2450  0.00  0.00     0.000 O
ATOM     28  HD  A00 X   2      12.214  42.732  37.9650  0.00  0.00     0.000 HD
BRANCH 21 30
ATOM     28   N  A00 X   2      13.017  45.037  39.7940  0.00  0.00     0.000 N
ATOM     30  HD  A00 X   2      12.505  44.903  39.1080  0.00  0.00     0.000 HD
ATOM     30   O  A00 X   2      11.859  46.184  38.1200  0.00  0.00     0.000 OA
ATOM     31   S  A00 X   2      13.137  45.599  38.3210  0.00  0.00     0.000 S
ATOM     32   O  A00 X   2      14.221  46.528  38.4000  0.00  0.00     0.000 OA
ATOM     33   O  A00 X   2      13.487  44.496  37.4760  0.00  0.00     0.000 OA
ENDBRANCH 21 30
BRANCH 24 34
ATOM     34   C  A00 X   2      14.366  40.464  42.1360  0.00  0.00     0.000 C
ATOM     35   O  A00 X   2      17.618  41.280  43.5550  0.00  0.00     0.000 OA
ATOM     36   O  A00 X   2      15.701  40.989  42.2800  0.00  0.00     0.000 O
ATOM     37   O  A00 X   2      15.597  42.329  44.1940  0.00  0.00     0.000 OA
ATOM     38   S  A00 X   2      16.217  41.114  43.7600  0.00  0.00     0.000 S
ATOM     39   O  A00 X   2      15.840  39.903  44.4240  0.00  0.00     0.000 OA
ENDBRANCH 24 34
BRANCH 20 40
ATOM     40  O4  A00 X   3      11.621  43.399  42.2380  0.00  0.00     0.000 O
BRANCH 40 44
ATOM     41  C1  A00 X   3      10.307  41.414  44.9690  0.00  0.00     0.000 C
ATOM     42  C2  A00 X   3       9.449  42.261  44.0050  0.00  0.00     0.000 C
ATOM     43  C3  A00 X   3       9.994  43.709  43.9040  0.00  0.00     0.000 C
ATOM     44  C4  A00 X   3      11.487  43.806  43.6170  0.00  0.00     0.000 C
ATOM     45  C5  A00 X   3      12.281  42.933  44.6290  0.00  0.00     0.000 C
ATOM     46  O5  A00 X   3      11.727  41.579  44.6990  0.00  0.00     0.000 O
ATOM     47   O  A00 X   3       9.227  44.609  43.1060  0.00  0.00     0.000 O
ATOM     49  HD  A00 X   3      10.012  44.888  42.8670  0.00  0.00     0.000 HD
BRANCH 42 49
ATOM     49   O  A00 X   3       9.474  41.597  42.7220  0.00  0.00     0.000 O
ATOM     50   O  A00 X   3       8.621  42.034  40.5290  0.00  0.00     0.000 OA
ATOM     51   O  A00 X   3       7.249  42.492  42.3990  0.00  0.00     0.000 OA
ATOM     52   O  A00 X   3       7.748  40.238  41.8930  0.00  0.00     0.000 OA
ATOM     53   S  A00 X   3       8.206  41.582  41.8200  0.00  0.00     0.000 S
ENDBRANCH 42 49
BRANCH 45 54
ATOM     54   C  A00 X   3      12.391  43.612  46.0000  0.00  0.00     0.000 C
ATOM     55   O  A00 X   3      11.620  44.494  46.3170  0.00  0.00     0.000 OA
ATOM     56   O  A00 X   3      13.256  43.278  46.7950  0.00  0.00     0.000 OA
ENDBRANCH 45 54
BRANCH 41 57
ATOM     57  O4  A00 X   4       9.942  41.641  46.3490  0.00  0.00     0.000 O
BRANCH 57 61
ATOM     58  C1  A00 X   4      10.251  39.239  49.9230  0.00  0.00     0.000 C
ATOM     59  C2  A00 X   4      11.521  39.953  49.3980  0.00  0.00     0.000 C
ATOM     60  C3  A00 X   4      11.223  41.048  48.3530  0.00  0.00     0.000 C
ATOM     61  C4  A00 X   4      10.255  40.549  47.2590  0.00  0.00     0.000 C
ATOM     62  C5  A00 X   4       8.974  40.078  47.9930  0.00  0.00     0.000 C
ATOM     63  O5  A00 X   4       9.305  38.966  48.8640  0.00  0.00     0.000 O
BRANCH 59 66
ATOM     64   N  A00 X   4      12.405  38.992  48.7150  0.00  0.00     0.000 N
ATOM     66  HD  A00 X   4      12.036  38.301  48.3460  0.00  0.00     0.000 HD
ATOM     66   O  A00 X   4      13.227  38.357  50.8870  0.00  0.00     0.000 OA
ATOM     67   S  A00 X   4      13.653  38.404  49.5240  0.00  0.00     0.000 S
ATOM     68   O  A00 X   4      13.803  37.131  48.8800  0.00  0.00     0.000 OA
ATOM     69   O  A00 X   4      14.660  39.364  49.1700  0.00  0.00     0.000 OA
ENDBRANCH 59 66
BRANCH 62 70
ATOM     70   C  A00 X   4       7.830  39.639  47.0480  0.00  0.00     0.000 C
ATOM     71   O  A00 X   4       7.265  36.398  45.5360  0.00  0.00     0.000 OA
ATOM     72   O  A00 X   4       7.280  38.553  44.5860  0.00  0.00     0.000 OA
ATOM     73   O  A00 X   4       7.864  38.210  46.8940  0.00  0.00     0.000 O
ATOM     74   O  A00 X   4       9.388  37.483  45.1760  0.00  0.00     0.000 OA
ATOM     75   S  A00 X   4       7.994  37.632  45.4420  0.00  0.00     0.000 S
ENDBRANCH 62 70
ENDBRANCH 57 61
ENDBRANCH 41 57
ENDBRANCH 40 44
ENDBRANCH 20 40
ENDBRANCH 19 23
ENDBRANCH 1 19
TORSDOF 14
ENDMDL
MODEL 93
REMARK VINA RESULT:      -0.1     53.784     59.722
ROOT
ATOM      1  C1  A00 X   1      55.158  46.732  28.8190  0.00  0.00     0.000 C
ATOM      2  C2  A00 X   1      56.201  47.808  28.4150  0.00  0.00     0.000 C
ATOM      3  C3  A00 X   1      56.001  48.465  27.0090  0.00  0.00     0.000 C
ATOM      4  C4  A00 X   1      55.032  47.721  26.0550  0.00  0.00     0.000 C
ATOM      5  C5  A00 X   1      54.878  46.246  26.4240  0.00  0.00     0.000 C
ATOM      6  O5  A00 X   1      54.302  46.258  27.7500  0.00  0.00     0.000 O
ATOM      7   O  A00 X   1      57.262  48.517  26.3460  0.00  0.00     0.000 O
ATOM      9  HD  A00 X   1      56.673  48.283  25.7560  0.00  0.00     0.000 HD
ATOM      9   O  A00 X   1      53.750  48.347  26.0220  0.00  0.00     0.000 O
ATOM     11  HD  A00 X   1      53.160  48.112  25.4320  0.00  0.00     0.000 HD
ENDROOT
BRANCH 2 11
ATOM     11   O  A00 X   1      56.181  48.838  29.4220  0.00  0.00     0.000 O
ATOM     12   O  A00 X   1      57.734  50.669  29.3970  0.00  0.00     0.000 OA
ATOM     13   O  A00 X   1      58.568  48.405  29.7070  0.00  0.00     0.000 OA
ATOM     14   O  A00 X   1      57.262  49.450  31.3980  0.00  0.00     0.000 OA
ATOM     15   S  A00 X   1      57.541  49.370  29.9900  0.00  0.00     0.000 S
ENDBRANCH 2 11
BRANCH 5 16
ATOM     16   C  A00 X   1      56.160  45.414  26.3210  0.00  0.00     0.000 C
ATOM     17   O  A00 X   1      57.090  45.857  25.6790  0.00  0.00     0.000 OA
ATOM     18   O  A00 X   1      56.282  44.333  26.8620  0.00  0.00     0.000 OA
ENDBRANCH 5 16
BRANCH 1 19
ATOM     19  O4  A00 X   2      55.744  45.630  29.5540  0.00  0.00     0.000 O
BRANCH 19 23
ATOM     20  C1  A00 X   2      52.351  45.147  32.1260  0.00  0.00     0.000 C
ATOM     21  C2  A00 X   2      53.558  45.943  32.6780  0.00  0.00     0.000 C
ATOM     22  C3  A00 X   2      54.487  46.398  31.5330  0.00  0.00     0.000 C
ATOM     23  C4  A00 X   2      54.909  45.192  30.6640  0.00  0.00     0.000 C
ATOM     24  C5  A00 X   2      53.617  44.472  30.1900  0.00  0.00     0.000 C
ATOM     25  O5  A00 X   2      52.873  44.032  31.3560  0.00  0.00     0.000 O
ATOM     26   O  A00 X   2      55.552  47.188  32.0890  0.00  0.00     0.000 O
ATOM     28  HD  A00 X   2      55.742  46.597  32.6920  0.00  0.00     0.000 HD
BRANCH 21 30
ATOM     28   N  A00 X   2      53.267  45.390  34.0050  0.00  0.00     0.000 N
ATOM     30  HD  A00 X   2      53.801  46.062  34.1240  0.00  0.00     0.000 HD
ATOM     30   O  A00 X   2      53.889  46.976  35.6050  0.00  0.00     0.000 OA
ATOM     31   S  A00 X   2      54.280  45.677  35.1840  0.00  0.00     0.000 S
ATOM     32   O  A00 X   2      54.011  44.632  36.1230  0.00  0.00     0.000 OA
ATOM     33   O  A00 X   2      55.602  45.539  34.6500  0.00  0.00     0.000 OA
ENDBRANCH 21 30
BRANCH 24 34
ATOM     34   C  A00 X   2      53.754  43.366  29.1170  0.00  0.00     0.000 C
ATOM     35   O  A00 X   2      55.799  40.380  29.5130  0.00  0.00     0.000 OA
ATOM     36   O  A00 X   2      54.879  42.508  29.3920  0.00  0.00     0.000 O
ATOM     37   O  A00 X   2      54.093  41.023  31.0190  0.00  0.00     0.000 OA
ATOM     38   S  A00 X   2      54.522  40.999  29.6540  0.00  0.00     0.000 S
ATOM     39   O  A00 X   2      53.557  40.632  28.6620  0.00  0.00     0.000 OA
ENDBRANCH 24 34
BRANCH 20 40
ATOM     40  O4  A00 X   3      51.658  46.051  31.2520  0.00  0.00     0.000 O
BRANCH 40 44
ATOM     41  C1  A00 X   3      50.054  46.491  28.0340  0.00  0.00     0.000 C
ATOM     42  C2  A00 X   3      50.243  47.608  29.0840  0.00  0.00     0.000 C
ATOM     43  C3  A00 X   3      49.734  47.153  30.4760  0.00  0.00     0.000 C
ATOM     44  C4  A00 X   3      50.271  45.804  30.9360  0.00  0.00     0.000 C
ATOM     45  C5  A00 X   3      50.040  44.734  29.8320  0.00  0.00     0.000 C
ATOM     46  O5  A00 X   3      50.525  45.210  28.5340  0.00  0.00     0.000 O
ATOM     47   O  A00 X   3      49.779  48.137  31.5070  0.00  0.00     0.000 O
ATOM     49  HD  A00 X   3      50.021  47.459  31.9890  0.00  0.00     0.000 HD
BRANCH 42 49
ATOM     49   O  A00 X   3      51.651  47.926  29.1140  0.00  0.00     0.000 O
ATOM     50   O  A00 X   3      53.072  49.381  30.3770  0.00  0.00     0.000 OA
ATOM     51   O  A00 X   3      50.963  50.180  29.6660  0.00  0.00     0.000 OA
ATOM     52   O  A00 X   3      52.623  49.771  28.0330  0.00  0.00     0.000 OA
ATOM     53   S  A00 X   3      52.121  49.397  29.3110  0.00  0.00     0.000 S
ENDBRANCH 42 49
BRANCH 45 54
ATOM     54   C  A00 X   3      48.582  44.262  29.7950  0.00  0.00     0.000 C
ATOM     55   O  A00 X   3      47.706  44.918  30.3200  0.00  0.00     0.000 OA
ATOM     56   O  A00 X   3      48.276  43.219  29.2380  0.00  0.00     0.000 OA
ENDBRANCH 45 54
BRANCH 41 57
ATOM     57  O4  A00 X   4      48.702  46.461  27.5240  0.00  0.00     0.000 O
BRANCH 57 61
ATOM     58  C1  A00 X   4      46.984  45.187  23.7740  0.00  0.00     0.000 C
ATOM     59  C2  A00 X   4      47.390  44.107  24.8090  0.00  0.00     0.000 C
ATOM     60  C3  A00 X   4      47.646  44.674  26.2200  0.00  0.00     0.000 C
ATOM     61  C4  A00 X   4      48.560  45.917  26.1810  0.00  0.00     0.000 C
ATOM     62  C5  A00 X   4      47.859  46.945  25.2580  0.00  0.00     0.000 C
ATOM     63  O5  A00 X   4      47.763  46.396  23.9190  0.00  0.00     0.000 O
BRANCH 59 66
ATOM     64   N  A00 X   4      48.656  43.474  24.3990  0.00  0.00     0.000 N
ATOM     66  HD  A00 X   4      49.202  43.946  23.9200  0.00  0.00     0.000 HD
ATOM     66   O  A00 X   4      47.363  42.071  22.9300  0.00  0.00     0.000 OA
ATOM     67   S  A00 X   4      48.590  42.055  23.6630  0.00  0.00     0.000 S
ATOM     68   O  A00 X   4      49.783  42.120  22.8700  0.00  0.00     0.000 OA
ATOM     69   O  A00 X   4      48.683  41.178  24.7960  0.00  0.00     0.000 OA
ENDBRANCH 59 66
BRANCH 62 70
ATOM     70   C  A00 X   4      48.575  48.314  25.1780  0.00  0.00     0.000 C
ATOM     71   O  A00 X   4      51.149  49.389  22.8700  0.00  0.00     0.000 OA
ATOM     72   O  A00 X   4      51.034  49.538  25.2170  0.00  0.00     0.000 OA
ATOM     73   O  A00 X   4      49.339  48.380  23.9630  0.00  0.00     0.000 O
ATOM     74   O  A00 X   4      51.527  47.393  24.1700  0.00  0.00     0.000 OA
ATOM     75   S  A00 X   4      50.877  48.661  24.0780  0.00  0.00     0.000 S
ENDBRANCH 62 70
ENDBRANCH 57 61
ENDBRANCH 41 57
ENDBRANCH 40 44
ENDBRANCH 20 40
ENDBRANCH 19 23
ENDBRANCH 1 19
TORSDOF 14
ENDMDL
MODEL 94
REMARK VINA RESULT:      -0.1     59.760     64.473
ROOT
ATOM      1  C1  A00 X   1      39.464  64.855  24.9950  0.00  0.00     0.000 C
ATOM      2  C2  A00 X   1      40.087  66.271  25.1290  0.00  0.00     0.000 C
ATOM      3  C3  A00 X   1      39.077  67.464  25.1760  0.00  0.00     0.000 C
ATOM      4  C4  A00 X   1      37.632  67.135  24.7210  0.00  0.00     0.000 C
ATOM      5  C5  A00 X   1      37.577  65.904  23.8170  0.00  0.00     0.000 C
ATOM      6  O5  A00 X   1      38.059  64.820  24.6430  0.00  0.00     0.000 O
ATOM      7   O  A00 X   1      39.548  68.497  24.3140  0.00  0.00     0.000 O
ATOM      9  HD  A00 X   1      38.691  68.440  24.2000  0.00  0.00     0.000 HD
ATOM      9   O  A00 X   1      36.761  66.953  25.8380  0.00  0.00     0.000 O
ATOM     11  HD  A00 X   1      35.905  66.896  25.7240  0.00  0.00     0.000 HD
ENDROOT
BRANCH 2 11
ATOM     11   O  A00 X   1      40.888  66.286  26.3270  0.00  0.00     0.000 O
ATOM     12   O  A00 X   1      41.882  68.305  27.1640  0.00  0.00     0.000 OA
ATOM     13   O  A00 X   1      42.586  67.440  25.0030  0.00  0.00     0.000 OA
ATOM     14   O  A00 X   1      43.123  66.269  27.0030  0.00  0.00     0.000 OA
ATOM     15   S  A00 X   1      42.193  67.154  26.3550  0.00  0.00     0.000 S
ENDBRANCH 2 11
BRANCH 5 16
ATOM     16   C  A00 X   1      38.328  66.042  22.4890  0.00  0.00     0.000 C
ATOM     17   O  A00 X   1      38.620  67.154  22.0990  0.00  0.00     0.000 OA
ATOM     18   O  A00 X   1      38.647  65.081  21.8170  0.00  0.00     0.000 OA
ENDBRANCH 5 16
BRANCH 1 19
ATOM     19  O4  A00 X   2      40.243  63.978  24.1460  0.00  0.00     0.000 O
BRANCH 19 23
ATOM     20  C1  A00 X   2      39.619  60.532  26.6160  0.00  0.00     0.000 C
ATOM     21  C2  A00 X   2      40.949  61.304  26.7900  0.00  0.00     0.000 C
ATOM     22  C3  A00 X   2      40.848  62.717  26.1780  0.00  0.00     0.000 C
ATOM     23  C4  A00 X   2      40.386  62.641  24.7060  0.00  0.00     0.000 C
ATOM     24  C5  A00 X   2      39.061  61.832  24.6650  0.00  0.00     0.000 C
ATOM     25  O5  A00 X   2      39.308  60.504  25.1970  0.00  0.00     0.000 O
ATOM     26   O  A00 X   2      42.080  63.415  26.4250  0.00  0.00     0.000 O
ATOM     28  HD  A00 X   2      42.567  62.766  26.1240  0.00  0.00     0.000 HD
BRANCH 21 30
ATOM     28   N  A00 X   2      41.614  60.025  27.0600  0.00  0.00     0.000 N
ATOM     30  HD  A00 X   2      42.152  60.649  27.3270  0.00  0.00     0.000 HD
ATOM     30   O  A00 X   2      43.365  60.418  28.5560  0.00  0.00     0.000 OA
ATOM     31   S  A00 X   2      43.187  60.005  27.2090  0.00  0.00     0.000 S
ATOM     32   O  A00 X   2      43.535  58.643  26.9440  0.00  0.00     0.000 OA
ATOM     33   O  A00 X   2      43.720  60.861  26.1920  0.00  0.00     0.000 OA
ENDBRANCH 21 30
BRANCH 24 34
ATOM     34   C  A00 X   2      38.268  61.804  23.3370  0.00  0.00     0.000 C
ATOM     35   O  A00 X   2      39.623  60.614  20.1740  0.00  0.00     0.000 OA
ATOM     36   O  A00 X   2      39.146  61.627  22.2080  0.00  0.00     0.000 O
ATOM     37   O  A00 X   2      39.574  59.328  22.1580  0.00  0.00     0.000 OA
ATOM     38   S  A00 X   2      38.905  60.318  21.3700  0.00  0.00     0.000 S
ATOM     39   O  A00 X   2      37.488  60.193  21.2120  0.00  0.00     0.000 OA
ENDBRANCH 24 34
BRANCH 20 40
ATOM     40  O4  A00 X   3      38.628  61.305  27.3090  0.00  0.00     0.000 O
BRANCH 40 44
ATOM     41  C1  A00 X   3      35.297  62.726  27.2020  0.00  0.00     0.000 C
ATOM     42  C2  A00 X   3      36.302  62.923  28.3590  0.00  0.00     0.000 C
ATOM     43  C3  A00 X   3      36.866  61.562  28.8420  0.00  0.00     0.000 C
ATOM     44  C4  A00 X   3      37.403  60.669  27.7300  0.00  0.00     0.000 C
ATOM     45  C5  A00 X   3      36.336  60.515  26.6100  0.00  0.00     0.000 C
ATOM     46  O5  A00 X   3      35.824  61.822  26.1920  0.00  0.00     0.000 O
ATOM     47   O  A00 X   3      37.740  61.614  29.9670  0.00  0.00     0.000 O
ATOM     49  HD  A00 X   3      38.166  61.005  29.5230  0.00  0.00     0.000 HD
BRANCH 42 49
ATOM     49   O  A00 X   3      37.351  63.784  27.8660  0.00  0.00     0.000 O
ATOM     50   O  A00 X   3      39.409  64.667  28.7120  0.00  0.00     0.000 OA
ATOM     51   O  A00 X   3      37.524  64.601  30.1380  0.00  0.00     0.000 OA
ATOM     52   O  A00 X   3      37.496  66.087  28.3010  0.00  0.00     0.000 OA
ATOM     53   S  A00 X   3      37.994  64.852  28.7980  0.00  0.00     0.000 S
ENDBRANCH 42 49
BRANCH 45 54
ATOM     54   C  A00 X   3      35.229  59.533  27.0110  0.00  0.00     0.000 C
ATOM     55   O  A00 X   3      34.520  59.021  26.1680  0.00  0.00     0.000 OA
ATOM     56   O  A00 X   3      35.039  59.250  28.1840  0.00  0.00     0.000 OA
ENDBRANCH 45 54
BRANCH 41 57
ATOM     57  O4  A00 X   4      33.987  62.362  27.6900  0.00  0.00     0.000 O
BRANCH 57 61
ATOM     58  C1  A00 X   4      29.999  62.880  26.1190  0.00  0.00     0.000 C
ATOM     59  C2  A00 X   4      30.888  61.757  25.5290  0.00  0.00     0.000 C
ATOM     60  C3  A00 X   4      32.125  61.434  26.3920  0.00  0.00     0.000 C
ATOM     61  C4  A00 X   4      32.880  62.714  26.8110  0.00  0.00     0.000 C
ATOM     62  C5  A00 X   4      31.856  63.597  27.5660  0.00  0.00     0.000 C
ATOM     63  O5  A00 X   4      30.785  63.966  26.6600  0.00  0.00     0.000 O
BRANCH 59 66
ATOM     64   N  A00 X   4      31.421  62.165  24.2170  0.00  0.00     0.000 N
ATOM     66  HD  A00 X   4      31.528  63.012  24.0740  0.00  0.00     0.000 HD
ATOM     66   O  A00 X   4      29.316  61.486  23.2630  0.00  0.00     0.000 OA
ATOM     67   S  A00 X   4      30.692  61.620  22.9010  0.00  0.00     0.000 S
ATOM     68   O  A00 X   4      30.989  62.681  21.9830  0.00  0.00     0.000 OA
ATOM     69   O  A00 X   4      31.445  60.418  22.6740  0.00  0.00     0.000 OA
ENDBRANCH 59 66
BRANCH 62 70
ATOM     70   C  A00 X   4      32.459  64.890  28.1660  0.00  0.00     0.000 C
ATOM     71   O  A00 X   4      32.866  68.132  26.6060  0.00  0.00     0.000 OA
ATOM     72   O  A00 X   4      34.393  66.808  27.8140  0.00  0.00     0.000 OA
ATOM     73   O  A00 X   4      32.194  65.992  27.2830  0.00  0.00     0.000 O
ATOM     74   O  A00 X   4      33.825  66.203  25.5230  0.00  0.00     0.000 OA
ATOM     75   S  A00 X   4      33.417  66.813  26.7470  0.00  0.00     0.000 S
ENDBRANCH 62 70
ENDBRANCH 57 61
ENDBRANCH 41 57
ENDBRANCH 40 44
ENDBRANCH 20 40
ENDBRANCH 19 23
ENDBRANCH 1 19
TORSDOF 14
ENDMDL
MODEL 95
REMARK VINA RESULT:      -0.1     34.044     39.973
ROOT
ATOM      1  C1  A00 X   1      43.665  28.241  11.3510  0.00  0.00     0.000 C
ATOM      2  C2  A00 X   1      42.719  28.654  10.1920  0.00  0.00     0.000 C
ATOM      3  C3  A00 X   1      43.296  29.686   9.1680  0.00  0.00     0.000 C
ATOM      4  C4  A00 X   1      44.572  30.439   9.6240  0.00  0.00     0.000 C
ATOM      5  C5  A00 X   1      44.721  30.453  11.1460  0.00  0.00     0.000 C
ATOM      6  O5  A00 X   1      44.848  29.061  11.5150  0.00  0.00     0.000 O
ATOM      7   O  A00 X   1      42.307  30.682   8.9150  0.00  0.00     0.000 O
ATOM      9  HD  A00 X   1      43.069  31.089   8.9810  0.00  0.00     0.000 HD
ATOM      9   O  A00 X   1      45.746  29.885   9.0300  0.00  0.00     0.000 O
ATOM     11  HD  A00 X   1      46.507  30.292   9.0970  0.00  0.00     0.000 HD
ENDROOT
BRANCH 2 11
ATOM     11   O  A00 X   1      42.340  27.456   9.4870  0.00  0.00     0.000 O
ATOM     12   O  A00 X   1      41.078  27.528   7.4450  0.00  0.00     0.000 OA
ATOM     13   O  A00 X   1      40.063  28.342   9.5010  0.00  0.00     0.000 OA
ATOM     14   O  A00 X   1      40.515  26.024   9.2150  0.00  0.00     0.000 OA
ATOM     15   S  A00 X   1      40.903  27.364   8.8660  0.00  0.00     0.000 S
ENDBRANCH 2 11
BRANCH 5 16
ATOM     16   C  A00 X   1      43.606  31.187  11.8990  0.00  0.00     0.000 C
ATOM     17   O  A00 X   1      42.898  31.956  11.2830  0.00  0.00     0.000 OA
ATOM     18   O  A00 X   1      43.403  31.022  13.0850  0.00  0.00     0.000 OA
ENDBRANCH 5 16
BRANCH 1 19
ATOM     19  O4  A00 X   2      42.968  28.062  12.6080  0.00  0.00     0.000 O
BRANCH 19 23
ATOM     20  C1  A00 X   2      45.269  24.629  13.7390  0.00  0.00     0.000 C
ATOM     21  C2  A00 X   2      43.871  24.380  13.1240  0.00  0.00     0.000 C
ATOM     22  C3  A00 X   2      43.364  25.637  12.3860  0.00  0.00     0.000 C
ATOM     23  C4  A00 X   2      43.399  26.868  13.3210  0.00  0.00     0.000 C
ATOM     24  C5  A00 X   2      44.841  26.996  13.8820  0.00  0.00     0.000 C
ATOM     25  O5  A00 X   2      45.168  25.785  14.6120  0.00  0.00     0.000 O
ATOM     26   O  A00 X   2      42.097  25.335  11.7770  0.00  0.00     0.000 O
ATOM     28  HD  A00 X   2      41.767  25.008  12.5080  0.00  0.00     0.000 HD
BRANCH 21 30
ATOM     28   N  A00 X   2      43.729  23.219  14.0080  0.00  0.00     0.000 N
ATOM     30  HD  A00 X   2      43.123  23.142  13.3940  0.00  0.00     0.000 HD
ATOM     30   O  A00 X   2      42.428  21.621  12.9060  0.00  0.00     0.000 OA
ATOM     31   S  A00 X   2      42.343  22.461  14.0480  0.00  0.00     0.000 S
ATOM     32   O  A00 X   2      42.368  21.777  15.3040  0.00  0.00     0.000 OA
ATOM     33   O  A00 X   2      41.315  23.459  14.0460  0.00  0.00     0.000 OA
ENDBRANCH 21 30
BRANCH 24 34
ATOM     34   C  A00 X   2      45.204  28.280  14.6640  0.00  0.00     0.000 C
ATOM     35   O  A00 X   2      43.445  29.423  17.6400  0.00  0.00     0.000 OA
ATOM     36   O  A00 X   2      44.142  28.664  15.5600  0.00  0.00     0.000 O
ATOM     37   O  A00 X   2      44.427  27.282  17.4260  0.00  0.00     0.000 OA
ATOM     38   S  A00 X   2      44.521  28.669  17.0870  0.00  0.00     0.000 S
ATOM     39   O  A00 X   2      45.808  29.290  17.1820  0.00  0.00     0.000 OA
ENDBRANCH 24 34
BRANCH 20 40
ATOM     40  O4  A00 X   3      46.129  24.938  12.6320  0.00  0.00     0.000 O
BRANCH 40 44
ATOM     41  C1  A00 X   3      48.688  27.146  11.3270  0.00  0.00     0.000 C
ATOM     42  C2  A00 X   3      48.046  25.982  10.5420  0.00  0.00     0.000 C
ATOM     43  C3  A00 X   3      48.088  24.668  11.3630  0.00  0.00     0.000 C
ATOM     44  C4  A00 X   3      47.558  24.792  12.7860  0.00  0.00     0.000 C
ATOM     45  C5  A00 X   3      48.254  25.978  13.5110  0.00  0.00     0.000 C
ATOM     46  O5  A00 X   3      48.199  27.194  12.6960  0.00  0.00     0.000 O
ATOM     47   O  A00 X   3      47.598  23.503  10.7000  0.00  0.00     0.000 O
ATOM     49  HD  A00 X   3      47.273  23.332  11.4840  0.00  0.00     0.000 HD
BRANCH 42 49
ATOM     49   O  A00 X   3      46.688  26.373  10.2410  0.00  0.00     0.000 O
ATOM     50   O  A00 X   3      44.792  25.373   9.1760  0.00  0.00     0.000 OA
ATOM     51   O  A00 X   3      46.932  25.067   8.2180  0.00  0.00     0.000 OA
ATOM     52   O  A00 X   3      45.976  27.228   8.1730  0.00  0.00     0.000 OA
ATOM     53   S  A00 X   3      46.044  25.994   8.8760  0.00  0.00     0.000 S
ENDBRANCH 42 49
BRANCH 45 54
ATOM     54   C  A00 X   3      49.675  25.615  13.9580  0.00  0.00     0.000 C
ATOM     55   O  A00 X   3      50.242  26.268  14.8090  0.00  0.00     0.000 OA
ATOM     56   O  A00 X   3      50.261  24.663  13.4650  0.00  0.00     0.000 OA
ENDBRANCH 45 54
BRANCH 41 57
ATOM     57  O4  A00 X   4      50.130  27.131  11.2190  0.00  0.00     0.000 O
BRANCH 57 61
ATOM     58  C1  A00 X   4      53.140  30.219  11.4200  0.00  0.00     0.000 C
ATOM     59  C2  A00 X   4      52.521  29.699  12.7420  0.00  0.00     0.000 C
ATOM     60  C3  A00 X   4      51.744  28.377  12.5790  0.00  0.00     0.000 C
ATOM     61  C4  A00 X   4      50.774  28.427  11.3790  0.00  0.00     0.000 C
ATOM     62  C5  A00 X   4      51.637  28.753  10.1350  0.00  0.00     0.000 C
ATOM     63  O5  A00 X   4      52.238  30.063  10.3020  0.00  0.00     0.000 O
BRANCH 59 66
ATOM     64   N  A00 X   4      51.540  30.666  13.2680  0.00  0.00     0.000 N
ATOM     66  HD  A00 X   4      51.132  31.173  12.6960  0.00  0.00     0.000 HD
ATOM     66   O  A00 X   4      53.394  31.891  14.1960  0.00  0.00     0.000 OA
ATOM     67   S  A00 X   4      52.004  31.657  14.4340  0.00  0.00     0.000 S
ATOM     68   O  A00 X   4      51.139  32.773  14.1840  0.00  0.00     0.000 OA
ATOM     69   O  A00 X   4      51.643  30.880  15.5860  0.00  0.00     0.000 OA
ENDBRANCH 59 66
BRANCH 62 70
ATOM     70   C  A00 X   4      50.854  28.738   8.8010  0.00  0.00     0.000 C
ATOM     71   O  A00 X   4      49.178  31.478   7.1310  0.00  0.00     0.000 OA
ATOM     72   O  A00 X   4      48.427  29.306   7.6460  0.00  0.00     0.000 OA
ATOM     73   O  A00 X   4      50.574  30.089   8.3990  0.00  0.00     0.000 O
ATOM     74   O  A00 X   4      48.578  30.979   9.4120  0.00  0.00     0.000 OA
ATOM     75   S  A00 X   4      49.076  30.490   8.1670  0.00  0.00     0.000 S
ENDBRANCH 62 70
ENDBRANCH 57 61
ENDBRANCH 41 57
ENDBRANCH 40 44
ENDBRANCH 20 40
ENDBRANCH 19 23
ENDBRANCH 1 19
TORSDOF 14
ENDMDL
MODEL 96
REMARK VINA RESULT:      -0.1     77.444     81.311
ROOT
ATOM      1  C1  A00 X   1      62.627  66.974  31.7390  0.00  0.00     0.000 C
ATOM      2  C2  A00 X   1      61.761  66.920  33.0260  0.00  0.00     0.000 C
ATOM      3  C3  A00 X   1      60.609  67.973  33.1240  0.00  0.00     0.000 C
ATOM      4  C4  A00 X   1      60.698  69.156  32.1260  0.00  0.00     0.000 C
ATOM      5  C5  A00 X   1      62.123  69.378  31.6200  0.00  0.00     0.000 C
ATOM      6  O5  A00 X   1      62.458  68.158  30.9210  0.00  0.00     0.000 O
ATOM      7   O  A00 X   1      60.621  68.544  34.4310  0.00  0.00     0.000 O
ATOM      9  HD  A00 X   1      60.476  69.189  33.8720  0.00  0.00     0.000 HD
ATOM      9   O  A00 X   1      59.816  68.972  31.0190  0.00  0.00     0.000 O
ATOM     11  HD  A00 X   1      59.671  69.618  30.4600  0.00  0.00     0.000 HD
ENDROOT
BRANCH 2 11
ATOM     11   O  A00 X   1      61.197  65.597  33.1190  0.00  0.00     0.000 O
ATOM     12   O  A00 X   1      59.575  65.023  34.7940  0.00  0.00     0.000 OA
ATOM     13   O  A00 X   1      61.821  65.654  35.4800  0.00  0.00     0.000 OA
ATOM     14   O  A00 X   1      61.444  63.611  34.3220  0.00  0.00     0.000 OA
ATOM     15   S  A00 X   1      60.991  64.959  34.5360  0.00  0.00     0.000 S
ENDBRANCH 2 11
BRANCH 5 16
ATOM     16   C  A00 X   1      63.140  69.767  32.6970  0.00  0.00     0.000 C
ATOM     17   O  A00 X   1      62.730  70.174  33.7640  0.00  0.00     0.000 OA
ATOM     18   O  A00 X   1      64.339  69.676  32.5250  0.00  0.00     0.000 OA
ENDBRANCH 5 16
BRANCH 1 19
ATOM     19  O4  A00 X   2      64.027  66.702  31.9920  0.00  0.00     0.000 O
BRANCH 19 23
ATOM     20  C1  A00 X   2      64.547  64.419  28.4030  0.00  0.00     0.000 C
ATOM     21  C2  A00 X   2      64.312  63.639  29.7190  0.00  0.00     0.000 C
ATOM     22  C3  A00 X   2      63.723  64.560  30.8070  0.00  0.00     0.000 C
ATOM     23  C4  A00 X   2      64.611  65.810  31.0010  0.00  0.00     0.000 C
ATOM     24  C5  A00 X   2      64.785  66.489  29.6150  0.00  0.00     0.000 C
ATOM     25  O5  A00 X   2      65.412  65.545  28.7080  0.00  0.00     0.000 O
ATOM     26   O  A00 X   2      63.460  63.776  31.9830  0.00  0.00     0.000 O
ATOM     28  HD  A00 X   2      64.252  63.426  31.9880  0.00  0.00     0.000 HD
BRANCH 21 30
ATOM     28   N  A00 X   2      65.209  62.593  29.2170  0.00  0.00     0.000 N
ATOM     30  HD  A00 X   2      64.770  62.250  29.8800  0.00  0.00     0.000 HD
ATOM     30   O  A00 X   2      64.483  60.542  30.0680  0.00  0.00     0.000 OA
ATOM     31   S  A00 X   2      65.605  61.405  30.1820  0.00  0.00     0.000 S
ATOM     32   O  A00 X   2      66.817  60.899  29.6160  0.00  0.00     0.000 OA
ATOM     33   O  A00 X   2      65.857  61.974  31.4720  0.00  0.00     0.000 OA
ENDBRANCH 21 30
BRANCH 24 34
ATOM     34   C  A00 X   2      65.442  67.888  29.5700  0.00  0.00     0.000 C
ATOM     35   O  A00 X   2      68.773  68.621  30.8450  0.00  0.00     0.000 OA
ATOM     36   O  A00 X   2      66.584  67.958  30.4460  0.00  0.00     0.000 O
ATOM     37   O  A00 X   2      68.313  66.955  29.2300  0.00  0.00     0.000 OA
ATOM     38   S  A00 X   2      67.958  68.246  29.7360  0.00  0.00     0.000 S
ATOM     39   O  A00 X   2      67.711  69.287  28.7850  0.00  0.00     0.000 OA
ENDBRANCH 24 34
BRANCH 20 40
ATOM     40  O4  A00 X   3      63.256  64.901  28.0030  0.00  0.00     0.000 O
BRANCH 40 44
ATOM     41  C1  A00 X   3      61.339  67.725  26.7900  0.00  0.00     0.000 C
ATOM     42  C2  A00 X   3      60.744  66.346  27.1470  0.00  0.00     0.000 C
ATOM     43  C3  A00 X   3      61.525  65.206  26.4440  0.00  0.00     0.000 C
ATOM     44  C4  A00 X   3      63.036  65.269  26.6240  0.00  0.00     0.000 C
ATOM     45  C5  A00 X   3      63.559  66.682  26.2410  0.00  0.00     0.000 C
ATOM     46  O5  A00 X   3      62.787  67.726  26.9180  0.00  0.00     0.000 O
ATOM     47   O  A00 X   3      61.009  63.889  26.6330  0.00  0.00     0.000 O
ATOM     49  HD  A00 X   3      61.850  63.688  26.6770  0.00  0.00     0.000 HD
BRANCH 42 49
ATOM     49   O  A00 X   3      60.804  66.219  28.5840  0.00  0.00     0.000 O
ATOM     50   O  A00 X   3      60.268  64.534  30.1980  0.00  0.00     0.000 OA
ATOM     51   O  A00 X   3      58.791  64.890  28.3880  0.00  0.00     0.000 OA
ATOM     52   O  A00 X   3      58.988  66.578  30.0290  0.00  0.00     0.000 OA
ATOM     53   S  A00 X   3      59.653  65.514  29.3600  0.00  0.00     0.000 S
ENDBRANCH 42 49
BRANCH 45 54
ATOM     54   C  A00 X   3      63.624  66.871  24.7200  0.00  0.00     0.000 C
ATOM     55   O  A00 X   3      62.993  66.145  23.9790  0.00  0.00     0.000 OA
ATOM     56   O  A00 X   3      64.312  67.752  24.2280  0.00  0.00     0.000 OA
ENDBRANCH 45 54
BRANCH 41 57
ATOM     57  O4  A00 X   4      60.862  68.197  25.5090  0.00  0.00     0.000 O
BRANCH 57 61
ATOM     58  C1  A00 X   4      60.313  72.134  23.8250  0.00  0.00     0.000 C
ATOM     59  C2  A00 X   4      61.746  71.549  23.8910  0.00  0.00     0.000 C
ATOM     60  C3  A00 X   4      61.779  70.032  24.1660  0.00  0.00     0.000 C
ATOM     61  C4  A00 X   4      60.860  69.643  25.3450  0.00  0.00     0.000 C
ATOM     62  C5  A00 X   4      59.441  70.138  24.9730  0.00  0.00     0.000 C
ATOM     63  O5  A00 X   4      59.456  71.584  24.8520  0.00  0.00     0.000 O
BRANCH 59 66
ATOM     64   N  A00 X   4      62.559  72.132  24.9730  0.00  0.00     0.000 N
ATOM     66  HD  A00 X   4      62.143  72.406  25.6820  0.00  0.00     0.000 HD
ATOM     66   O  A00 X   4      62.942  74.022  23.5310  0.00  0.00     0.000 OA
ATOM     67   S  A00 X   4      63.566  73.320  24.6080  0.00  0.00     0.000 S
ATOM     68   O  A00 X   4      63.607  74.018  25.8590  0.00  0.00     0.000 OA
ATOM     69   O  A00 X   4      64.752  72.565  24.3170  0.00  0.00     0.000 OA
ENDBRANCH 59 66
BRANCH 62 70
ATOM     70   C  A00 X   4      58.346  69.742  25.9910  0.00  0.00     0.000 C
ATOM     71   O  A00 X   4      57.248  71.529  28.9430  0.00  0.00     0.000 OA
ATOM     72   O  A00 X   4      57.857  69.273  28.6530  0.00  0.00     0.000 OA
ATOM     73   O  A00 X   4      58.075  70.857  26.8560  0.00  0.00     0.000 O
ATOM     74   O  A00 X   4      59.588  70.987  28.7270  0.00  0.00     0.000 OA
ATOM     75   S  A00 X   4      58.241  70.644  28.4010  0.00  0.00     0.000 S
ENDBRANCH 62 70
ENDBRANCH 57 61
ENDBRANCH 41 57
ENDBRANCH 40 44
ENDBRANCH 20 40
ENDBRANCH 19 23
ENDBRANCH 1 19
TORSDOF 14
ENDMDL
MODEL 97
REMARK VINA RESULT:      -0.1     60.930     66.070
ROOT
ATOM      1  C1  A00 X   1      12.478  53.939  48.6640  0.00  0.00     0.000 C
ATOM      2  C2  A00 X   1      13.270  54.159  47.3480  0.00  0.00     0.000 C
ATOM      3  C3  A00 X   1      14.458  55.175  47.4230  0.00  0.00     0.000 C
ATOM      4  C4  A00 X   1      14.472  56.097  48.6690  0.00  0.00     0.000 C
ATOM      5  C5  A00 X   1      13.086  56.235  49.3000  0.00  0.00     0.000 C
ATOM      6  O5  A00 X   1      12.739  54.896  49.7190  0.00  0.00     0.000 O
ATOM      7   O  A00 X   1      14.399  56.032  46.2850  0.00  0.00     0.000 O
ATOM      9  HD  A00 X   1      14.601  56.526  46.9670  0.00  0.00     0.000 HD
ATOM      9   O  A00 X   1      15.403  55.638  49.6480  0.00  0.00     0.000 O
ATOM     11  HD  A00 X   1      15.605  56.132  50.3300  0.00  0.00     0.000 HD
ENDROOT
BRANCH 2 11
ATOM     11   O  A00 X   1      13.774  52.879  46.9190  0.00  0.00     0.000 O
ATOM     12   O  A00 X   1      15.294  52.666  45.0720  0.00  0.00     0.000 OA
ATOM     13   O  A00 X   1      13.047  53.507  44.6730  0.00  0.00     0.000 OA
ATOM     14   O  A00 X   1      13.390  51.239  45.3020  0.00  0.00     0.000 OA
ATOM     15   S  A00 X   1      13.889  52.585  45.3840  0.00  0.00     0.000 S
ENDBRANCH 2 11
BRANCH 5 16
ATOM     16   C  A00 X   1      12.029  56.890  48.4050  0.00  0.00     0.000 C
ATOM     17   O  A00 X   1      10.866  56.842  48.7480  0.00  0.00     0.000 OA
ATOM     18   O  A00 X   1      12.314  57.461  47.3710  0.00  0.00     0.000 OA
ENDBRANCH 5 16
BRANCH 1 19
ATOM     19  O4  A00 X   2      11.056  53.772  48.4410  0.00  0.00     0.000 O
BRANCH 19 23
ATOM     20  C1  A00 X   2      10.631  50.733  51.4330  0.00  0.00     0.000 C
ATOM     21  C2  A00 X   2      10.788  50.272  49.9630  0.00  0.00     0.000 C
ATOM     22  C3  A00 X   2      11.354  51.410  49.0880  0.00  0.00     0.000 C
ATOM     23  C4  A00 X   2      10.492  52.684  49.2290  0.00  0.00     0.000 C
ATOM     24  C5  A00 X   2      10.396  53.029  50.7400  0.00  0.00     0.000 C
ATOM     25  O5  A00 X   2       9.783  51.912  51.4360  0.00  0.00     0.000 O
ATOM     26   O  A00 X   2      11.545  50.913  47.7530  0.00  0.00     0.000 O
ATOM     28  HD  A00 X   2      10.744  50.587  47.7050  0.00  0.00     0.000 HD
BRANCH 21 30
ATOM     28   N  A00 X   2       9.888  49.152  50.2580  0.00  0.00     0.000 N
ATOM     30  HD  A00 X   2      10.286  48.964  49.5120  0.00  0.00     0.000 HD
ATOM     30   O  A00 X   2      10.519  47.342  48.9230  0.00  0.00     0.000 OA
ATOM     31   S  A00 X   2       9.416  48.225  49.0690  0.00  0.00     0.000 S
ATOM     32   O  A00 X   2       8.220  47.619  49.5650  0.00  0.00     0.000 OA
ATOM     33   O  A00 X   2       9.118  49.079  47.9580  0.00  0.00     0.000 OA
ENDBRANCH 21 30
BRANCH 24 34
ATOM     34   C  A00 X   2       9.779  54.391  51.1370  0.00  0.00     0.000 C
ATOM     35   O  A00 X   2       6.707  54.758  53.0560  0.00  0.00     0.000 OA
ATOM     36   O  A00 X   2       8.412  54.239  51.5690  0.00  0.00     0.000 O
ATOM     37   O  A00 X   2       8.581  53.514  53.7870  0.00  0.00     0.000 OA
ATOM     38   S  A00 X   2       8.130  54.660  53.0580  0.00  0.00     0.000 S
ATOM     39   O  A00 X   2       8.823  55.896  53.2680  0.00  0.00     0.000 OA
ENDBRANCH 24 34
BRANCH 20 40
ATOM     40  O4  A00 X   3      11.950  51.088  51.8710  0.00  0.00     0.000 O
BRANCH 40 44
ATOM     41  C1  A00 X   3      14.031  53.474  53.6320  0.00  0.00     0.000 C
ATOM     42  C2  A00 X   3      14.554  52.209  52.9180  0.00  0.00     0.000 C
ATOM     43  C3  A00 X   3      13.760  50.953  53.3620  0.00  0.00     0.000 C
ATOM     44  C4  A00 X   3      12.246  51.100  53.2840  0.00  0.00     0.000 C
ATOM     45  C5  A00 X   3      11.798  52.389  54.0270  0.00  0.00     0.000 C
ATOM     46  O5  A00 X   3      12.579  53.546  53.5850  0.00  0.00     0.000 O
ATOM     47   O  A00 X   3      14.214  49.710  52.8300  0.00  0.00     0.000 O
ATOM     49  HD  A00 X   3      13.365  49.548  52.7830  0.00  0.00     0.000 HD
BRANCH 42 49
ATOM     49   O  A00 X   3      14.424  52.441  51.4980  0.00  0.00     0.000 O
ATOM     50   O  A00 X   3      14.811  51.187  49.4960  0.00  0.00     0.000 OA
ATOM     51   O  A00 X   3      16.382  51.039  51.2560  0.00  0.00     0.000 OA
ATOM     52   O  A00 X   3      16.188  53.084  50.0880  0.00  0.00     0.000 OA
ATOM     53   S  A00 X   3      15.507  51.911  50.5130  0.00  0.00     0.000 S
ENDBRANCH 42 49
BRANCH 45 54
ATOM     54   C  A00 X   3      11.809  52.200  55.5490  0.00  0.00     0.000 C
ATOM     55   O  A00 X   3      12.471  51.319  56.0580  0.00  0.00     0.000 OA
ATOM     56   O  A00 X   3      11.151  52.929  56.2750  0.00  0.00     0.000 OA
ENDBRANCH 45 54
BRANCH 41 57
ATOM     57  O4  A00 X   4      14.582  53.603  54.9620  0.00  0.00     0.000 O
BRANCH 57 61
ATOM     58  C1  A00 X   4      15.241  56.975  57.5760  0.00  0.00     0.000 C
ATOM     59  C2  A00 X   4      13.806  56.404  57.4490  0.00  0.00     0.000 C
ATOM     60  C3  A00 X   4      13.755  55.011  56.7900  0.00  0.00     0.000 C
ATOM     61  C4  A00 X   4      14.596  54.957  55.4970  0.00  0.00     0.000 C
ATOM     62  C5  A00 X   4      16.037  55.360  55.8970  0.00  0.00     0.000 C
ATOM     63  O5  A00 X   4      16.030  56.724  56.3910  0.00  0.00     0.000 O
BRANCH 59 66
ATOM     64   N  A00 X   4      12.502  56.307  58.1280  0.00  0.00     0.000 N
ATOM     66  HD  A00 X   4      11.806  56.145  57.6380  0.00  0.00     0.000 HD
ATOM     66   O  A00 X   4      12.637  58.680  58.5130  0.00  0.00     0.000 OA
ATOM     67   S  A00 X   4      12.055  57.507  59.0870  0.00  0.00     0.000 S
ATOM     68   O  A00 X   4      10.629  57.409  58.9770  0.00  0.00     0.000 OA
ATOM     69   O  A00 X   4      12.582  57.041  60.3380  0.00  0.00     0.000 OA
ENDBRANCH 59 66
BRANCH 62 70
ATOM     70   C  A00 X   4      17.065  55.260  54.7450  0.00  0.00     0.000 C
ATOM     71   O  A00 X   4      17.792  57.674  52.1460  0.00  0.00     0.000 OA
ATOM     72   O  A00 X   4      17.354  55.364  52.0160  0.00  0.00     0.000 OA
ATOM     73   O  A00 X   4      17.189  56.541  54.1070  0.00  0.00     0.000 O
ATOM     74   O  A00 X   4      15.518  56.916  52.4120  0.00  0.00     0.000 OA
ATOM     75   S  A00 X   4      16.907  56.624  52.5660  0.00  0.00     0.000 S
ENDBRANCH 62 70
ENDBRANCH 57 61
ENDBRANCH 41 57
ENDBRANCH 40 44
ENDBRANCH 20 40
ENDBRANCH 19 23
ENDBRANCH 1 19
TORSDOF 14
ENDMDL
MODEL 98
REMARK VINA RESULT:      -0.1     73.403     77.849
ROOT
ATOM      1  C1  A00 X   1      57.154  66.831  33.0240  0.00  0.00     0.000 C
ATOM      2  C2  A00 X   1      56.413  66.251  34.2580  0.00  0.00     0.000 C
ATOM      3  C3  A00 X   1      54.857  66.411  34.2630  0.00  0.00     0.000 C
ATOM      4  C4  A00 X   1      54.286  67.431  33.2450  0.00  0.00     0.000 C
ATOM      5  C5  A00 X   1      55.328  68.465  32.8190  0.00  0.00     0.000 C
ATOM      6  O5  A00 X   1      56.365  67.696  32.1690  0.00  0.00     0.000 O
ATOM      7   O  A00 X   1      54.447  66.855  35.5550  0.00  0.00     0.000 O
ATOM      9  HD  A00 X   1      53.981  67.297  34.9730  0.00  0.00     0.000 HD
ATOM      9   O  A00 X   1      53.756  66.777  32.0920  0.00  0.00     0.000 O
ATOM     11  HD  A00 X   1      53.290  67.218  31.5110  0.00  0.00     0.000 HD
ENDROOT
BRANCH 2 11
ATOM     11   O  A00 X   1      56.741  64.851  34.3480  0.00  0.00     0.000 O
ATOM     12   O  A00 X   1      55.637  63.385  35.8970  0.00  0.00     0.000 OA
ATOM     13   O  A00 X   1      56.994  65.214  36.7510  0.00  0.00     0.000 OA
ATOM     14   O  A00 X   1      58.012  63.375  35.6360  0.00  0.00     0.000 OA
ATOM     15   S  A00 X   1      56.829  64.182  35.7640  0.00  0.00     0.000 S
ENDBRANCH 2 11
BRANCH 5 16
ATOM     16   C  A00 X   1      55.846  69.365  33.9450  0.00  0.00     0.000 C
ATOM     17   O  A00 X   1      56.824  70.053  33.7360  0.00  0.00     0.000 OA
ATOM     18   O  A00 X   1      55.311  69.419  35.0340  0.00  0.00     0.000 OA
ENDBRANCH 5 16
BRANCH 1 19
ATOM     19  O4  A00 X   2      58.422  67.441  33.3660  0.00  0.00     0.000 O
BRANCH 19 23
ATOM     20  C1  A00 X   2      60.420  65.981  29.8660  0.00  0.00     0.000 C
ATOM     21  C2  A00 X   2      60.598  65.179  31.1780  0.00  0.00     0.000 C
ATOM     22  C3  A00 X   2      59.509  65.555  32.2040  0.00  0.00     0.000 C
ATOM     23  C4  A00 X   2      59.483  67.082  32.4350  0.00  0.00     0.000 C
ATOM     24  C5  A00 X   2      59.320  67.769  31.0510  0.00  0.00     0.000 C
ATOM     25  O5  A00 X   2      60.440  67.393  30.2080  0.00  0.00     0.000 O
ATOM     26   O  A00 X   2      59.675  64.736  33.3740  0.00  0.00     0.000 O
ATOM     28  HD  A00 X   2      60.520  64.915  33.4410  0.00  0.00     0.000 HD
BRANCH 21 30
ATOM     28   N  A00 X   2      60.475  63.863  31.8120  0.00  0.00     0.000 N
ATOM     30  HD  A00 X   2      61.184  63.836  31.3150  0.00  0.00     0.000 HD
ATOM     30   O  A00 X   2      62.523  62.758  31.5980  0.00  0.00     0.000 OA
ATOM     31   S  A00 X   2      61.187  62.624  31.1350  0.00  0.00     0.000 S
ATOM     32   O  A00 X   2      60.477  61.498  31.6570  0.00  0.00     0.000 OA
ATOM     33   O  A00 X   2      60.975  62.735  29.7220  0.00  0.00     0.000 OA
ENDBRANCH 21 30
BRANCH 24 34
ATOM     34   C  A00 X   2      59.036  69.289  31.0240  0.00  0.00     0.000 C
ATOM     35   O  A00 X   2      61.194  71.795  32.5470  0.00  0.00     0.000 OA
ATOM     36   O  A00 X   2      59.847  69.989  31.9880  0.00  0.00     0.000 O
ATOM     37   O  A00 X   2      61.927  70.219  30.9430  0.00  0.00     0.000 OA
ATOM     38   S  A00 X   2      60.845  71.045  31.3860  0.00  0.00     0.000 S
ATOM     39   O  A00 X   2      60.114  71.771  30.3910  0.00  0.00     0.000 OA
ENDBRANCH 24 34
BRANCH 20 40
ATOM     40  O4  A00 X   3      59.121  65.627  29.3680  0.00  0.00     0.000 O
BRANCH 40 44
ATOM     41  C1  A00 X   3      56.002  66.741  27.9000  0.00  0.00     0.000 C
ATOM     42  C2  A00 X   3      56.321  65.281  28.2860  0.00  0.00     0.000 C
ATOM     43  C3  A00 X   3      57.681  64.833  27.6900  0.00  0.00     0.000 C
ATOM     44  C4  A00 X   3      58.836  65.789  27.9620  0.00  0.00     0.000 C
ATOM     45  C5  A00 X   3      58.442  67.233  27.5440  0.00  0.00     0.000 C
ATOM     46  O5  A00 X   3      57.149  67.609  28.1190  0.00  0.00     0.000 O
ATOM     47   O  A00 X   3      58.040  63.471  27.9100  0.00  0.00     0.000 O
ATOM     49  HD  A00 X   3      58.828  63.812  28.0170  0.00  0.00     0.000 HD
BRANCH 42 49
ATOM     49   O  A00 X   3      56.330  65.216  29.7290  0.00  0.00     0.000 O
ATOM     50   O  A00 X   3      56.785  63.550  31.3860  0.00  0.00     0.000 OA
ATOM     51   O  A00 X   3      55.540  62.944  29.4700  0.00  0.00     0.000 OA
ATOM     52   O  A00 X   3      54.553  64.413  31.0360  0.00  0.00     0.000 OA
ATOM     53   S  A00 X   3      55.774  63.962  30.4630  0.00  0.00     0.000 S
ENDBRANCH 42 49
BRANCH 45 54
ATOM     54   C  A00 X   3      58.503  67.421  26.0230  0.00  0.00     0.000 C
ATOM     55   O  A00 X   3      58.410  68.528  25.5320  0.00  0.00     0.000 OA
ATOM     56   O  A00 X   3      58.644  66.462  25.2800  0.00  0.00     0.000 OA
ENDBRANCH 45 54
BRANCH 41 57
ATOM     57  O4  A00 X   4      55.443  66.832  26.5700  0.00  0.00     0.000 O
BRANCH 57 61
ATOM     58  C1  A00 X   4      52.532  69.469  24.7780  0.00  0.00     0.000 C
ATOM     59  C2  A00 X   4      53.852  70.077  25.3140  0.00  0.00     0.000 C
ATOM     60  C3  A00 X   4      54.945  69.025  25.5930  0.00  0.00     0.000 C
ATOM     61  C4  A00 X   4      54.398  67.832  26.4060  0.00  0.00     0.000 C
ATOM     62  C5  A00 X   4      53.221  67.248  25.5850  0.00  0.00     0.000 C
ATOM     63  O5  A00 X   4      52.178  68.249  25.4680  0.00  0.00     0.000 O
BRANCH 59 66
ATOM     64   N  A00 X   4      53.721  70.791  26.5970  0.00  0.00     0.000 N
ATOM     66  HD  A00 X   4      53.115  70.514  27.1500  0.00  0.00     0.000 HD
ATOM     66   O  A00 X   4      52.833  72.654  25.3550  0.00  0.00     0.000 OA
ATOM     67   S  A00 X   4      53.545  72.381  26.5640  0.00  0.00     0.000 S
ATOM     68   O  A00 X   4      52.805  72.584  27.7750  0.00  0.00     0.000 OA
ATOM     69   O  A00 X   4      54.919  72.790  26.6390  0.00  0.00     0.000 OA
ENDBRANCH 59 66
BRANCH 62 70
ATOM     70   C  A00 X   4      52.605  65.963  26.1890  0.00  0.00     0.000 C
ATOM     71   O  A00 X   4      50.656  65.598  29.2180  0.00  0.00     0.000 OA
ATOM     72   O  A00 X   4      52.520  64.389  28.4380  0.00  0.00     0.000 OA
ATOM     73   O  A00 X   4      51.712  66.321  27.2560  0.00  0.00     0.000 O
ATOM     74   O  A00 X   4      52.835  66.621  29.3660  0.00  0.00     0.000 OA
ATOM     75   S  A00 X   4      51.981  65.710  28.6740  0.00  0.00     0.000 S
ENDBRANCH 62 70
ENDBRANCH 57 61
ENDBRANCH 41 57
ENDBRANCH 40 44
ENDBRANCH 20 40
ENDBRANCH 19 23
ENDBRANCH 1 19
TORSDOF 14
ENDMDL
MODEL 99
REMARK VINA RESULT:      -0.1     69.809     74.610
ROOT
ATOM      1  C1  A00 X   1      22.225  53.165  62.6530  0.00  0.00     0.000 C
ATOM      2  C2  A00 X   1      21.031  52.347  63.2140  0.00  0.00     0.000 C
ATOM      3  C3  A00 X   1      21.244  50.801  63.3180  0.00  0.00     0.000 C
ATOM      4  C4  A00 X   1      22.449  50.238  62.5220  0.00  0.00     0.000 C
ATOM      5  C5  A00 X   1      22.869  51.162  61.3790  0.00  0.00     0.000 C
ATOM      6  O5  A00 X   1      23.277  52.387  62.0280  0.00  0.00     0.000 O
ATOM      7   O  A00 X   1      20.083  50.145  62.8130  0.00  0.00     0.000 O
ATOM      9  HD  A00 X   1      20.772  49.708  62.5200  0.00  0.00     0.000 HD
ATOM      9   O  A00 X   1      23.566  49.988  63.3740  0.00  0.00     0.000 O
ATOM     11  HD  A00 X   1      24.255  49.551  63.0820  0.00  0.00     0.000 HD
ENDROOT
BRANCH 2 11
ATOM     11   O  A00 X   1      20.720  52.867  64.5220  0.00  0.00     0.000 O
ATOM     12   O  A00 X   1      19.119  51.805  65.9630  0.00  0.00     0.000 OA
ATOM     13   O  A00 X   1      18.374  52.753  63.8500  0.00  0.00     0.000 OA
ATOM     14   O  A00 X   1      19.117  54.169  65.6110  0.00  0.00     0.000 OA
ATOM     15   S  A00 X   1      19.227  52.872  65.0000  0.00  0.00     0.000 S
ENDBRANCH 2 11
BRANCH 5 16
ATOM     16   C  A00 X   1      21.811  51.368  60.2900  0.00  0.00     0.000 C
ATOM     17   O  A00 X   1      21.993  52.234  59.4590  0.00  0.00     0.000 OA
ATOM     18   O  A00 X   1      20.803  50.693  60.2250  0.00  0.00     0.000 OA
ENDBRANCH 5 16
BRANCH 1 19
ATOM     19  O4  A00 X   2      21.805  54.262  61.8060  0.00  0.00     0.000 O
BRANCH 19 23
ATOM     20  C1  A00 X   2      24.819  56.946  63.2490  0.00  0.00     0.000 C
ATOM     21  C2  A00 X   2      23.415  57.034  63.8950  0.00  0.00     0.000 C
ATOM     22  C3  A00 X   2      22.594  55.761  63.6000  0.00  0.00     0.000 C
ATOM     23  C4  A00 X   2      22.538  55.491  62.0790  0.00  0.00     0.000 C
ATOM     24  C5  A00 X   2      23.999  55.444  61.5520  0.00  0.00     0.000 C
ATOM     25  O5  A00 X   2      24.635  56.719  61.8260  0.00  0.00     0.000 O
ATOM     26   O  A00 X   2      21.329  55.862  64.2760  0.00  0.00     0.000 O
ATOM     28  HD  A00 X   2      21.168  56.653  63.9650  0.00  0.00     0.000 HD
BRANCH 21 30
ATOM     28   N  A00 X   2      23.606  58.481  64.0290  0.00  0.00     0.000 N
ATOM     30  HD  A00 X   2      22.945  58.266  64.5460  0.00  0.00     0.000 HD
ATOM     30   O  A00 X   2      22.474  59.190  65.9460  0.00  0.00     0.000 OA
ATOM     31   S  A00 X   2      22.396  59.361  64.5390  0.00  0.00     0.000 S
ATOM     32   O  A00 X   2      22.713  60.676  64.0720  0.00  0.00     0.000 OA
ATOM     33   O  A00 X   2      21.215  58.875  63.8890  0.00  0.00     0.000 OA
ENDBRANCH 21 30
BRANCH 24 34
ATOM     34   C  A00 X   2      24.231  54.960  60.1010  0.00  0.00     0.000 C
ATOM     35   O  A00 X   2      22.757  56.530  57.1650  0.00  0.00     0.000 OA
ATOM     36   O  A00 X   2      23.263  55.531  59.1980  0.00  0.00     0.000 O
ATOM     37   O  A00 X   2      24.074  57.680  58.7580  0.00  0.00     0.000 OA
ATOM     38   S  A00 X   2      23.859  56.446  58.0670  0.00  0.00     0.000 S
ATOM     39   O  A00 X   2      25.009  55.761  57.5570  0.00  0.00     0.000 OA
ENDBRANCH 24 34
BRANCH 20 40
ATOM     40  O4  A00 X   3      25.447  55.799  63.8400  0.00  0.00     0.000 O
BRANCH 40 44
ATOM     41  C1  A00 X   3      27.501  52.828  63.5520  0.00  0.00     0.000 C
ATOM     42  C2  A00 X   3      26.866  53.336  64.8650  0.00  0.00     0.000 C
ATOM     43  C3  A00 X   3      27.185  54.836  65.0930  0.00  0.00     0.000 C
ATOM     44  C4  A00 X   3      26.888  55.735  63.8990  0.00  0.00     0.000 C
ATOM     45  C5  A00 X   3      27.563  55.163  62.6210  0.00  0.00     0.000 C
ATOM     46  O5  A00 X   3      27.244  53.744  62.4510  0.00  0.00     0.000 O
ATOM     47   O  A00 X   3      26.721  55.392  66.3210  0.00  0.00     0.000 O
ATOM     49  HD  A00 X   3      26.550  56.075  65.8170  0.00  0.00     0.000 HD
BRANCH 42 49
ATOM     49   O  A00 X   3      25.444  53.108  64.7620  0.00  0.00     0.000 O
ATOM     50   O  A00 X   3      23.498  53.705  66.0230  0.00  0.00     0.000 OA
ATOM     51   O  A00 X   3      25.446  53.032  67.1810  0.00  0.00     0.000 OA
ATOM     52   O  A00 X   3      24.279  51.420  65.9060  0.00  0.00     0.000 OA
ATOM     53   S  A00 X   3      24.603  52.799  66.0350  0.00  0.00     0.000 S
ENDBRANCH 42 49
BRANCH 45 54
ATOM     54   C  A00 X   3      29.070  55.449  62.5980  0.00  0.00     0.000 C
ATOM     55   O  A00 X   3      29.601  56.042  63.5150  0.00  0.00     0.000 OA
ATOM     56   O  A00 X   3      29.761  55.087  61.6580  0.00  0.00     0.000 OA
ENDBRANCH 45 54
BRANCH 41 57
ATOM     57  O4  A00 X   4      28.898  52.499  63.7270  0.00  0.00     0.000 O
BRANCH 57 61
ATOM     58  C1  A00 X   4      31.443  49.457  62.0220  0.00  0.00     0.000 C
ATOM     59  C2  A00 X   4      30.857  50.543  61.0860  0.00  0.00     0.000 C
ATOM     60  C3  A00 X   4      30.276  51.756  61.8400  0.00  0.00     0.000 C
ATOM     61  C4  A00 X   4      29.351  51.323  62.9980  0.00  0.00     0.000 C
ATOM     62  C5  A00 X   4      30.203  50.416  63.9200  0.00  0.00     0.000 C
ATOM     63  O5  A00 X   4      30.610  49.235  63.1830  0.00  0.00     0.000 O
BRANCH 59 66
ATOM     64   N  A00 X   4      29.734  49.987  60.3090  0.00  0.00     0.000 N
ATOM     66  HD  A00 X   4      29.287  49.335  60.6630  0.00  0.00     0.000 HD
ATOM     66   O  A00 X   4      31.367  49.069  58.7960  0.00  0.00     0.000 OA
ATOM     67   S  A00 X   4      30.011  49.523  58.8040  0.00  0.00     0.000 S
ATOM     68   O  A00 X   4      29.017  48.499  58.6620  0.00  0.00     0.000 OA
ATOM     69   O  A00 X   4      29.708  50.738  58.1040  0.00  0.00     0.000 OA
ENDBRANCH 59 66
BRANCH 62 70
ATOM     70   C  A00 X   4      29.476  49.964  65.2090  0.00  0.00     0.000 C
ATOM     71   O  A00 X   4      26.668  47.704  65.5480  0.00  0.00     0.000 OA
ATOM     72   O  A00 X   4      27.029  49.849  66.4510  0.00  0.00     0.000 OA
ATOM     73   O  A00 X   4      28.588  48.878  64.8980  0.00  0.00     0.000 O
ATOM     74   O  A00 X   4      26.439  49.618  64.0980  0.00  0.00     0.000 OA
ATOM     75   S  A00 X   4      27.069  49.050  65.2470  0.00  0.00     0.000 S
ENDBRANCH 62 70
ENDBRANCH 57 61
ENDBRANCH 41 57
ENDBRANCH 40 44
ENDBRANCH 20 40
ENDBRANCH 19 23
ENDBRANCH 1 19
TORSDOF 14
ENDMDL
MODEL 100
REMARK VINA RESULT:      -0.0     56.930     62.672
ROOT
ATOM      1  C1  A00 X   1      45.206  21.035  57.9440  0.00  0.00     0.000 C
ATOM      2  C2  A00 X   1      44.197  20.628  59.0500  0.00  0.00     0.000 C
ATOM      3  C3  A00 X   1      43.995  21.658  60.2090  0.00  0.00     0.000 C
ATOM      4  C4  A00 X   1      45.072  22.769  60.3120  0.00  0.00     0.000 C
ATOM      5  C5  A00 X   1      46.386  22.362  59.6450  0.00  0.00     0.000 C
ATOM      6  O5  A00 X   1      46.048  22.174  58.2530  0.00  0.00     0.000 O
ATOM      7   O  A00 X   1      44.015  20.959  61.4520  0.00  0.00     0.000 O
ATOM      9  HD  A00 X   1      44.465  21.690  61.5630  0.00  0.00     0.000 HD
ATOM      9   O  A00 X   1      44.608  23.998  59.7540  0.00  0.00     0.000 O
ATOM     11  HD  A00 X   1      45.058  24.730  59.8650  0.00  0.00     0.000 HD
ENDROOT
BRANCH 2 11
ATOM     11   O  A00 X   1      42.927  20.380  58.4160  0.00  0.00     0.000 O
ATOM     12   O  A00 X   1      41.079  19.414  59.6070  0.00  0.00     0.000 OA
ATOM     13   O  A00 X   1      43.102  18.103  59.2820  0.00  0.00     0.000 OA
ATOM     14   O  A00 X   1      41.709  18.647  57.4330  0.00  0.00     0.000 OA
ATOM     15   S  A00 X   1      42.167  19.047  58.7360  0.00  0.00     0.000 S
ENDBRANCH 2 11
BRANCH 5 16
ATOM     16   C  A00 X   1      47.085  21.153  60.2750  0.00  0.00     0.000 C
ATOM     17   O  A00 X   1      46.751  20.804  61.3890  0.00  0.00     0.000 OA
ATOM     18   O  A00 X   1      47.953  20.529  59.6990  0.00  0.00     0.000 OA
ENDBRANCH 5 16
BRANCH 1 19
ATOM     19  O4  A00 X   2      45.988  19.917  57.4570  0.00  0.00     0.000 O
BRANCH 19 23
ATOM     20  C1  A00 X   2      46.037  21.328  53.4110  0.00  0.00     0.000 C
ATOM     21  C2  A00 X   2      45.013  20.225  53.7700  0.00  0.00     0.000 C
ATOM     22  C3  A00 X   2      44.814  20.136  55.2980  0.00  0.00     0.000 C
ATOM     23  C4  A00 X   2      46.172  19.950  56.0130  0.00  0.00     0.000 C
ATOM     24  C5  A00 X   2      47.110  21.102  55.5570  0.00  0.00     0.000 C
ATOM     25  O5  A00 X   2      47.272  21.030  54.1170  0.00  0.00     0.000 O
ATOM     26   O  A00 X   2      43.807  19.148  55.5750  0.00  0.00     0.000 O
ATOM     28  HD  A00 X   2      44.185  18.549  55.0770  0.00  0.00     0.000 HD
BRANCH 21 30
ATOM     28   N  A00 X   2      43.608  19.806  53.7710  0.00  0.00     0.000 N
ATOM     30  HD  A00 X   2      43.884  19.755  52.9520  0.00  0.00     0.000 HD
ATOM     30   O  A00 X   2      43.177  18.703  51.7570  0.00  0.00     0.000 OA
ATOM     31   S  A00 X   2      42.789  19.896  52.4220  0.00  0.00     0.000 S
ATOM     32   O  A00 X   2      41.426  19.930  52.8560  0.00  0.00     0.000 OA
ATOM     33   O  A00 X   2      43.142  21.134  51.7950  0.00  0.00     0.000 OA
ENDBRANCH 21 30
BRANCH 24 34
ATOM     34   C  A00 X   2      48.454  21.280  56.3010  0.00  0.00     0.000 C
ATOM     35   O  A00 X   2      51.719  20.930  54.7270  0.00  0.00     0.000 OA
ATOM     36   O  A00 X   2      49.551  20.743  55.5340  0.00  0.00     0.000 O
ATOM     37   O  A00 X   2      50.038  22.411  53.9690  0.00  0.00     0.000 OA
ATOM     38   S  A00 X   2      50.644  21.788  55.1050  0.00  0.00     0.000 S
ATOM     39   O  A00 X   2      50.896  22.605  56.2540  0.00  0.00     0.000 OA
ENDBRANCH 24 34
BRANCH 20 40
ATOM     40  O4  A00 X   3      45.481  22.552  53.9130  0.00  0.00     0.000 O
BRANCH 40 44
ATOM     41  C1  A00 X   3      46.050  25.660  55.6850  0.00  0.00     0.000 C
ATOM     42  C2  A00 X   3      44.680  25.189  55.1510  0.00  0.00     0.000 C
ATOM     43  C3  A00 X   3      44.776  24.779  53.6600  0.00  0.00     0.000 C
ATOM     44  C4  A00 X   3      45.907  23.808  53.3420  0.00  0.00     0.000 C
ATOM     45  C5  A00 X   3      47.250  24.352  53.9050  0.00  0.00     0.000 C
ATOM     46  O5  A00 X   3      47.110  24.737  55.3110  0.00  0.00     0.000 O
ATOM     47   O  A00 X   3      43.549  24.408  53.0350  0.00  0.00     0.000 O
ATOM     49  HD  A00 X   3      44.051  23.811  52.6580  0.00  0.00     0.000 HD
BRANCH 42 49
ATOM     49   O  A00 X   3      44.262  24.081  55.9780  0.00  0.00     0.000 O
ATOM     50   O  A00 X   3      42.409  22.567  56.0380  0.00  0.00     0.000 OA
ATOM     51   O  A00 X   3      42.001  24.850  55.5830  0.00  0.00     0.000 OA
ATOM     52   O  A00 X   3      42.729  24.245  57.7490  0.00  0.00     0.000 OA
ATOM     53   S  A00 X   3      42.764  23.911  56.3670  0.00  0.00     0.000 S
ENDBRANCH 42 49
BRANCH 45 54
ATOM     54   C  A00 X   3      47.821  25.473  53.0270  0.00  0.00     0.000 C
ATOM     55   O  A00 X   3      48.916  25.942  53.2580  0.00  0.00     0.000 OA
ATOM     56   O  A00 X   3      47.184  25.913  52.0820  0.00  0.00     0.000 OA
ENDBRANCH 45 54
BRANCH 41 57
ATOM     57  O4  A00 X   4      46.317  27.036  55.3300  0.00  0.00     0.000 O
BRANCH 57 61
ATOM     58  C1  A00 X   4      48.466  30.216  57.3050  0.00  0.00     0.000 C
ATOM     59  C2  A00 X   4      49.240  28.935  56.9060  0.00  0.00     0.000 C
ATOM     60  C3  A00 X   4      48.477  28.042  55.9070  0.00  0.00     0.000 C
ATOM     61  C4  A00 X   4      47.015  27.812  56.3450  0.00  0.00     0.000 C
ATOM     62  C5  A00 X   4      46.374  29.216  56.4810  0.00  0.00     0.000 C
ATOM     63  O5  A00 X   4      47.061  29.955  57.5230  0.00  0.00     0.000 O
BRANCH 59 66
ATOM     64   N  A00 X   4      49.388  28.183  58.1650  0.00  0.00     0.000 N
ATOM     66  HD  A00 X   4      48.811  28.335  58.7920  0.00  0.00     0.000 HD
ATOM     66   O  A00 X   4      51.359  29.496  58.6010  0.00  0.00     0.000 OA
ATOM     67   S  A00 X   4      50.807  28.212  58.9020  0.00  0.00     0.000 S
ATOM     68   O  A00 X   4      50.396  28.021  60.2620  0.00  0.00     0.000 OA
ATOM     69   O  A00 X   4      51.426  27.062  58.3070  0.00  0.00     0.000 OA
ENDBRANCH 59 66
BRANCH 62 70
ATOM     70   C  A00 X   4      44.862  29.191  56.8110  0.00  0.00     0.000 C
ATOM     71   O  A00 X   4      43.232  28.153  59.8720  0.00  0.00     0.000 OA
ATOM     72   O  A00 X   4      42.797  27.578  57.6310  0.00  0.00     0.000 OA
ATOM     73   O  A00 X   4      44.687  28.945  58.2150  0.00  0.00     0.000 O
ATOM     74   O  A00 X   4      44.715  26.601  58.7730  0.00  0.00     0.000 OA
ATOM     75   S  A00 X   4      43.823  27.708  58.6410  0.00  0.00     0.000 S
ENDBRANCH 62 70
ENDBRANCH 57 61
ENDBRANCH 41 57
ENDBRANCH 40 44
ENDBRANCH 20 40
ENDBRANCH 19 23
ENDBRANCH 1 19
TORSDOF 14
ENDMDL
