ROOT
ATOM      1  C1  A00 X   1      -4.060  26.352    0.440  0.00  0.00     0.000 C
ATOM      2  C2  A00 X   1      -3.800  26.364   -1.090  0.00  0.00     0.000 C
ATOM      3  C3  A00 X   1      -2.560  27.188   -1.570  0.00  0.00     0.000 C
ATOM      4  C4  A00 X   1      -1.970  28.175   -0.530  0.00  0.00     0.000 C
ATOM      5  C5  A00 X   1      -2.990  28.564    0.540  0.00  0.00     0.000 C
ATOM      6  O5  A00 X   1      -3.310  27.324    1.210  0.00  0.00     0.000 O
ATOM      7   O  A00 X   1      -2.940  27.970   -2.700  0.00  0.00     0.000 O
ATOM      9  HD  A00 X   1      -2.440  28.470   -2.200  0.00  0.00     0.000 HD
ATOM      9   O  A00 X   1      -0.800  27.642    0.090  0.00  0.00     0.000 O
ATOM     11  HD  A00 X   1      -0.300  28.142    0.590  0.00  0.00     0.000 HD
ENDROOT
BRANCH 2 11
ATOM     11   O  A00 X   1      -3.650  24.997   -1.520  0.00  0.00     0.000 O
ATOM     12   O  A00 X   1      -2.840  24.436   -3.710  0.00  0.00     0.000 OA
ATOM     13   O  A00 X   1      -4.950  25.626   -3.490  0.00  0.00     0.000 OA
ATOM     14   O  A00 X   1      -4.760  23.367   -2.770  0.00  0.00     0.000 OA
ATOM     15   S  A00 X   1      -4.070  24.611   -2.980  0.00  0.00     0.000 S
ENDBRANCH 2 11
BRANCH 5 16
ATOM     16   C  A00 X   1      -4.220  29.315    0.020  0.00  0.00     0.000 C
ATOM     17   O  A00 X   1      -5.050  29.695    0.820  0.00  0.00     0.000 OA
ATOM     18   O  A00 X   1      -4.390  29.549   -1.160  0.00  0.00     0.000 OA
ENDBRANCH 5 16
BRANCH 1 19
ATOM     19  O4  A00 X   2      -5.470  26.391    0.770  0.00  0.00     0.000 O
BRANCH 19 23
ATOM     20  C1  A00 X   2      -7.230  26.631    4.670  0.00  0.00     0.000 C
ATOM     21  C2  A00 X   2      -7.360  27.869    3.750  0.00  0.00     0.000 C
ATOM     22  C3  A00 X   2      -7.080  27.493    2.280  0.00  0.00     0.000 C
ATOM     23  C4  A00 X   2      -5.710  26.790    2.150  0.00  0.00     0.000 C
ATOM     24  C5  A00 X   2      -5.700  25.585    3.130  0.00  0.00     0.000 C
ATOM     25  O5  A00 X   2      -5.900  26.079    4.480  0.00  0.00     0.000 O
ATOM     26   O  A00 X   2      -7.280  28.657    1.460  0.00  0.00     0.000 O
ATOM     28  HD  A00 X   2      -6.780  29.157    1.960  0.00  0.00     0.000 HD
BRANCH 21 30
ATOM     28   N  A00 X   2      -8.700  28.464    3.760  0.00  0.00     0.000 N
ATOM     30  HD  A00 X   2      -8.200  28.964    4.260  0.00  0.00     0.000 HD
ATOM     30   O  A00 X   2      -8.520  30.648    4.570  0.00  0.00     0.000 OA
ATOM     31   S  A00 X   2      -9.100  29.412    4.960  0.00  0.00     0.000 S
ATOM     32   O  A00 X   2     -10.530  29.386    4.950  0.00  0.00     0.000 OA
ATOM     33   O  A00 X   2      -8.600  28.810    6.160  0.00  0.00     0.000 OA
ENDBRANCH 21 30
BRANCH 24 34
ATOM     34   C  A00 X   2      -4.530  24.578    3.030  0.00  0.00     0.000 C
ATOM     35   O  A00 X   2      -1.860  24.301    5.490  0.00  0.00     0.000 OA
ATOM     36   O  A00 X   2      -3.460  24.929    3.930  0.00  0.00     0.000 O
ATOM     37   O  A00 X   2      -4.160  24.120    6.010  0.00  0.00     0.000 OA
ATOM     38   S  A00 X   2      -3.140  23.862    5.040  0.00  0.00     0.000 S
ATOM     39   O  A00 X   2      -3.150  22.586    4.390  0.00  0.00     0.000 OA
ENDBRANCH 24 34
BRANCH 20 40
ATOM     40  O4  A00 X   3      -8.210  25.694    4.200  0.00  0.00     0.000 O
BRANCH 40 44
ATOM     41  C1  A00 X   3      -8.280  22.183    3.310  0.00  0.00     0.000 C
ATOM     42  C2  A00 X   3      -9.430  23.180    3.050  0.00  0.00     0.000 C
ATOM     43  C3  A00 X   3      -9.790  23.961    4.340  0.00  0.00     0.000 C
ATOM     44  C4  A00 X   3      -8.600  24.594    5.050  0.00  0.00     0.000 C
ATOM     45  C5  A00 X   3      -7.490  23.530    5.280  0.00  0.00     0.000 C
ATOM     46  O5  A00 X   3      -7.190  22.811    4.040  0.00  0.00     0.000 O
ATOM     47   O  A00 X   3     -10.900  24.851    4.240  0.00  0.00     0.000 O
ATOM     49  HD  A00 X   3     -10.400  25.351    4.740  0.00  0.00     0.000 HD
BRANCH 42 49
ATOM     49   O  A00 X   3      -8.990  24.069    2.000  0.00  0.00     0.000 O
ATOM     50   O  A00 X   3      -9.670  26.193    1.130  0.00  0.00     0.000 OA
ATOM     51   O  A00 X   3     -11.330  24.609    1.700  0.00  0.00     0.000 OA
ATOM     52   O  A00 X   3      -9.930  24.158   -0.150  0.00  0.00     0.000 OA
ATOM     53   S  A00 X   3     -10.030  24.810    1.110  0.00  0.00     0.000 S
ENDBRANCH 42 49
BRANCH 45 54
ATOM     54   C  A00 X   3      -7.830  22.599    6.450  0.00  0.00     0.000 C
ATOM     55   O  A00 X   3      -7.260  21.535    6.580  0.00  0.00     0.000 OA
ATOM     56   O  A00 X   3      -8.680  22.910    7.270  0.00  0.00     0.000 OA
ENDBRANCH 45 54
BRANCH 41 57
ATOM     57  O4  A00 X   4      -8.760  20.959    3.910  0.00  0.00     0.000 O
BRANCH 57 61
ATOM     58  C1  A00 X   4      -7.780  16.796    3.320  0.00  0.00     0.000 C
ATOM     59  C2  A00 X   4      -6.730  17.717    3.990  0.00  0.00     0.000 C
ATOM     60  C3  A00 X   4      -7.310  19.063    4.470  0.00  0.00     0.000 C
ATOM     61  C4  A00 X   4      -8.170  19.738    3.380  0.00  0.00     0.000 C
ATOM     62  C5  A00 X   4      -9.280  18.723    3.010  0.00  0.00     0.000 C
ATOM     63  O5  A00 X   4      -8.670  17.532    2.450  0.00  0.00     0.000 O
BRANCH 59 66
ATOM     64   N  A00 X   4      -6.050  17.076    5.130  0.00  0.00     0.000 N
ATOM     66  HD  A00 X   4      -5.550  17.576    5.630  0.00  0.00     0.000 HD
ATOM     66   O  A00 X   4      -4.650  15.945    3.530  0.00  0.00     0.000 OA
ATOM     67   S  A00 X   4      -5.170  15.770    4.850  0.00  0.00     0.000 S
ATOM     68   O  A00 X   4      -4.210  15.873    5.910  0.00  0.00     0.000 OA
ATOM     69   O  A00 X   4      -6.160  14.750    5.050  0.00  0.00     0.000 OA
ENDBRANCH 59 66
BRANCH 62 70
ATOM     70   C  A00 X   4     -10.320  19.264    2.000  0.00  0.00     0.000 C
ATOM     71   O  A00 X   4     -13.860  18.535    1.790  0.00  0.00     0.000 OA
ATOM     72   O  A00 X   4     -12.190  18.523    0.130  0.00  0.00     0.000 OA
ATOM     73   O  A00 X   4     -11.640  18.906    2.440  0.00  0.00     0.000 O
ATOM     74   O  A00 X   4     -12.300  16.697    1.740  0.00  0.00     0.000 OA
ATOM     75   S  A00 X   4     -12.540  18.076    1.460  0.00  0.00     0.000 S
ENDBRANCH 62 70
ENDBRANCH 57 61
ENDBRANCH 41 57
ENDBRANCH 40 44
ENDBRANCH 20 40
ENDBRANCH 19 23
ENDBRANCH 1 19
TORSDOF 14