MODEL 1
REMARK VINA RESULT:      -9.3      0.000      0.000
ROOT
ATOM      1  C1  NAG B   1       0.996 -15.449  18.8870  0.00  0.00     0.000 C
ATOM      2  C2  NAG B   1      -0.342 -14.875  18.4310  0.00  0.00     0.000 C
ATOM      3  C3  NAG B   1      -1.448 -15.908  18.4870  0.00  0.00     0.000 C
ATOM      4  C4  NAG B   1      -0.978 -17.058  17.6010  0.00  0.00     0.000 C
ATOM      5  C5  NAG B   1       0.297 -17.664  18.2010  0.00  0.00     0.000 C
ATOM      6  O5  NAG B   1       1.360 -16.689  18.2590  0.00  0.00     0.000 O
ATOM      7   O  NAG B   1      -2.711 -15.381  18.0190  0.00  0.00     0.000 O
ATOM      9  HD  NAG B   1      -2.355 -14.695  18.4090  0.00  0.00     0.000 HD
ATOM      9   O  NAG B   1      -1.986 -18.050  17.5130  0.00  0.00     0.000 O
ATOM     11  HD  NAG B   1      -1.630 -17.364  17.9030  0.00  0.00     0.000 HD
ATOM     11   C  NAG B   1       0.711 -18.907  17.4030  0.00  0.00     0.000 C
ATOM     12   O  NAG B   1       2.122 -19.109  17.4540  0.00  0.00     0.000 O
ATOM     14  HD  NAG B   1       2.478 -18.423  17.8430  0.00  0.00     0.000 HD
ENDROOT
BRANCH 2 16
ATOM     14   N  NAG B   1      -0.377 -13.489  17.9300  0.00  0.00     0.000 N
ATOM     16  HD  NAG B   1      -0.912 -12.876  17.6340  0.00  0.00     0.000 HD
ATOM     16   C  NAG B   1      -0.742 -12.442  18.6890  0.00  0.00     0.000 C
ATOM     17   C  NAG B   1      -1.168 -12.661  20.1170  0.00  0.00     0.000 C
ATOM     18   O  NAG B   1      -0.710 -11.293  18.2490  0.00  0.00     0.000 OA
ENDBRANCH 2 16
BRANCH 1 19
ATOM     19  O4  BDP B   2       1.935 -14.487  18.4270  0.00  0.00     0.000 O
BRANCH 19 23
ATOM     20  C1  BDP B   2       5.182 -14.502  15.8970  0.00  0.00     0.000 C
ATOM     21  C2  BDP B   2       3.823 -14.669  15.2490  0.00  0.00     0.000 C
ATOM     22  C3  BDP B   2       2.715 -14.235  16.1810  0.00  0.00     0.000 C
ATOM     23  C4  BDP B   2       2.875 -14.981  17.5030  0.00  0.00     0.000 C
ATOM     24  C5  BDP B   2       4.263 -14.730  18.0590  0.00  0.00     0.000 C
ATOM     25  O5  BDP B   2       5.233 -15.191  17.1380  0.00  0.00     0.000 O
ATOM     26   O  BDP B   2       3.757 -13.926  14.0520  0.00  0.00     0.000 O
ATOM     28  HD  BDP B   2       4.606 -13.882  14.2170  0.00  0.00     0.000 HD
ATOM     28   O  BDP B   2       1.446 -14.500  15.5630  0.00  0.00     0.000 O
ATOM     30  HD  BDP B   2       2.295 -14.456  15.7280  0.00  0.00     0.000 HD
BRANCH 24 30
ATOM     30   C  BDP B   2       4.490 -15.440  19.3450  0.00  0.00     0.000 C
ATOM     31   O  BDP B   2       4.517 -16.692  19.3130  0.00  0.00     0.000 OA
ATOM     32   O  BDP B   2       4.634 -14.750  20.3950  0.00  0.00     0.000 OA
ENDBRANCH 24 30
BRANCH 20 33
ATOM     33  O3  NAG B   3       6.069 -15.113  14.9920  0.00  0.00     0.000 O
BRANCH 33 36
ATOM     34  C1  NAG B   3       9.432 -13.719  14.0440  0.00  0.00     0.000 C
ATOM     35  C2  NAG B   3       7.943 -13.994  13.9450  0.00  0.00     0.000 C
ATOM     36  C3  NAG B   3       7.418 -14.694  15.2080  0.00  0.00     0.000 C
ATOM     37  C4  NAG B   3       8.277 -15.922  15.5000  0.00  0.00     0.000 C
ATOM     38  C5  NAG B   3       9.757 -15.547  15.4920  0.00  0.00     0.000 C
ATOM     39  O5  NAG B   3      10.099 -14.956  14.2500  0.00  0.00     0.000 O
ATOM     40   O  NAG B   3       7.930 -16.471  16.7800  0.00  0.00     0.000 O
ATOM     42  HD  NAG B   3       8.781 -16.379  16.9120  0.00  0.00     0.000 HD
ATOM     42   C  NAG B   3      10.696 -16.740  15.6460  0.00  0.00     0.000 C
ATOM     43   O  NAG B   3      10.579 -17.593  14.5000  0.00  0.00     0.000 O
ATOM     45  HD  NAG B   3      11.430 -17.501  14.6320  0.00  0.00     0.000 HD
BRANCH 35 47
ATOM     45   N  NAG B   3       7.204 -13.602  12.7520  0.00  0.00     0.000 N
ATOM     47  HD  NAG B   3       7.326 -14.458  12.8030  0.00  0.00     0.000 HD
ATOM     47   C  NAG B   3       6.309 -12.635  12.7480  0.00  0.00     0.000 C
ATOM     48   C  NAG B   3       5.624 -12.373  11.4390  0.00  0.00     0.000 C
ATOM     49   O  NAG B   3       6.031 -12.000  13.7630  0.00  0.00     0.000 OA
ENDBRANCH 35 47
BRANCH 34 50
ATOM     50  O4  BDP B   4       9.758 -13.188  12.7770  0.00  0.00     0.000 O
BRANCH 50 54
ATOM     51  C1  BDP B   4      12.351 -10.773  10.7780  0.00  0.00     0.000 C
ATOM     52  C2  BDP B   4      13.016 -11.876  11.5940  0.00  0.00     0.000 C
ATOM     53  C3  BDP B   4      11.979 -12.893  11.9590  0.00  0.00     0.000 C
ATOM     54  C4  BDP B   4      10.796 -12.197  12.6920  0.00  0.00     0.000 C
ATOM     55  C5  BDP B   4      10.288 -10.975  11.9400  0.00  0.00     0.000 C
ATOM     56  O5  BDP B   4      11.373 -10.128  11.5730  0.00  0.00     0.000 O
ATOM     57   O  BDP B   4      14.035 -12.497  10.8390  0.00  0.00     0.000 O
ATOM     59  HD  BDP B   4      14.771 -12.171  11.1560  0.00  0.00     0.000 HD
ATOM     59   O  BDP B   4      12.598 -13.810  12.8850  0.00  0.00     0.000 O
ATOM     61  HD  BDP B   4      13.335 -13.483  13.2030  0.00  0.00     0.000 HD
BRANCH 55 61
ATOM     61   C  BDP B   4       9.330 -10.202  12.8300  0.00  0.00     0.000 C
ATOM     62   O  BDP B   4       8.286  -9.733  12.3070  0.00  0.00     0.000 OA
ATOM     63   O  BDP B   4       9.627 -10.067  14.0560  0.00  0.00     0.000 OA
ENDBRANCH 55 61
BRANCH 51 64
ATOM     64  O3  NAG B   5      13.385  -9.848  10.3880  0.00  0.00     0.000 O
BRANCH 64 67
ATOM     65  C1  NAG B   5      12.505  -8.017   7.3110  0.00  0.00     0.000 C
ATOM     66  C2  NAG B   5      12.817  -9.200   8.2120  0.00  0.00     0.000 C
ATOM     67  C3  NAG B   5      12.881  -8.743   9.6640  0.00  0.00     0.000 C
ATOM     68  C4  NAG B   5      13.833  -7.550   9.8250  0.00  0.00     0.000 C
ATOM     69  C5  NAG B   5      13.500  -6.457   8.8210  0.00  0.00     0.000 C
ATOM     70  O5  NAG B   5      13.469  -7.006   7.4950  0.00  0.00     0.000 O
ATOM     71   O  NAG B   5      13.739  -7.072  11.1500  0.00  0.00     0.000 O
ATOM     73  HD  NAG B   5      14.599  -7.021  11.0640  0.00  0.00     0.000 HD
ATOM     73   C  NAG B   5      14.481  -5.277   8.8220  0.00  0.00     0.000 C
ATOM     74   O  NAG B   5      15.788  -5.733   8.4150  0.00  0.00     0.000 O
ATOM     76  HD  NAG B   5      16.648  -5.681   8.3290  0.00  0.00     0.000 HD
BRANCH 66 78
ATOM     76   N  NAG B   5      12.920 -10.564   7.6590  0.00  0.00     0.000 N
ATOM     78  HD  NAG B   5      12.367 -10.117   8.1530  0.00  0.00     0.000 HD
ATOM     78   C  NAG B   5      11.947 -11.488   7.6520  0.00  0.00     0.000 C
ATOM     79   C  NAG B   5      12.352 -12.781   6.9970  0.00  0.00     0.000 C
ATOM     80   O  NAG B   5      10.787 -11.292   8.1630  0.00  0.00     0.000 OA
ENDBRANCH 66 78
BRANCH 65 81
ATOM     81  O4  BDP B   6      12.489  -8.433   5.9400  0.00  0.00     0.000 O
BRANCH 81 85
ATOM     82  C1  BDP B   6      10.490  -7.489   2.2690  0.00  0.00     0.000 C
ATOM     83  C2  BDP B   6      10.945  -6.324   3.1440  0.00  0.00     0.000 C
ATOM     84  C3  BDP B   6      11.982  -6.737   4.1920  0.00  0.00     0.000 C
ATOM     85  C4  BDP B   6      11.520  -7.946   5.0080  0.00  0.00     0.000 C
ATOM     86  C5  BDP B   6      11.054  -9.039   4.0170  0.00  0.00     0.000 C
ATOM     87  O5  BDP B   6      10.026  -8.542   3.1010  0.00  0.00     0.000 O
ATOM     88   O  BDP B   6      11.523  -5.379   2.2480  0.00  0.00     0.000 O
ATOM     90  HD  BDP B   6      12.203  -4.846   2.1880  0.00  0.00     0.000 HD
ATOM     90   O  BDP B   6      12.273  -5.626   5.0430  0.00  0.00     0.000 O
ATOM     92  HD  BDP B   6      12.953  -5.093   4.9830  0.00  0.00     0.000 HD
BRANCH 86 92
ATOM     92   C  BDP B   6      10.366 -10.164   4.7530  0.00  0.00     0.000 C
ATOM     93   O  BDP B   6       9.537  -9.892   5.6740  0.00  0.00     0.000 OA
ATOM     94   O  BDP B   6      10.639 -11.351   4.3950  0.00  0.00     0.000 OA
ENDBRANCH 86 92
BRANCH 82 95
ATOM     95  O3  NAG B   7       9.383  -7.043   1.4610  0.00  0.00     0.000 O
BRANCH 95 98
ATOM     96  C1  NAG B   7       8.098  -7.771  -1.8800  0.00  0.00     0.000 C
ATOM     97  C2  NAG B   7       8.520  -6.891  -0.7110  0.00  0.00     0.000 C
ATOM     98  C3  NAG B   7       8.928  -7.868   0.3890  0.00  0.00     0.000 C
ATOM     99  C4  NAG B   7       7.744  -8.758   0.7590  0.00  0.00     0.000 C
ATOM    100  C5  NAG B   7       7.173  -9.449  -0.4810  0.00  0.00     0.000 C
ATOM    101  O5  NAG B   7       6.915  -8.470  -1.4750  0.00  0.00     0.000 O
BRANCH 97 104
ATOM    102   N  NAG B   7       9.714  -6.034  -0.7220  0.00  0.00     0.000 N
ATOM    104  HD  NAG B   7      10.413  -5.589  -0.4730  0.00  0.00     0.000 HD
ATOM    104   O  NAG B   7      10.902  -4.125  -0.9920  0.00  0.00     0.000 OA
ATOM    105   C  NAG B   7       9.825  -4.745  -1.0930  0.00  0.00     0.000 C
ATOM    106   C  NAG B   7       8.625  -4.038  -1.6250  0.00  0.00     0.000 C
ENDBRANCH 97 104
ATOM    107   O  NAG B   7       5.625 -11.056  -1.2050  0.00  0.00     0.000 O
ATOM    109  HD  NAG B   7       6.417 -10.729  -1.3300  0.00  0.00     0.000 HD
ATOM    109   O  NAG B   7       5.625 -11.056  -1.2050  0.00  0.00     0.000 O
ATOM    111  HD  NAG B   7       6.417 -10.729  -1.3300  0.00  0.00     0.000 HD
ENDBRANCH 95 98
ENDBRANCH 82 95
ENDBRANCH 81 85
ENDBRANCH 65 81
ENDBRANCH 64 67
ENDBRANCH 51 64
ENDBRANCH 50 54
ENDBRANCH 34 50
ENDBRANCH 33 36
ENDBRANCH 20 33
ENDBRANCH 19 23
ENDBRANCH 1 19
TORSDOF 19
ENDMDL
MODEL 2
REMARK VINA RESULT:      -9.0      6.297     10.259
ROOT
ATOM      1  C1  NAG B   1       9.243  -5.424  15.2610  0.00  0.00     0.000 C
ATOM      2  C2  NAG B   1       8.284  -4.548  16.0620  0.00  0.00     0.000 C
ATOM      3  C3  NAG B   1       8.140  -3.168  15.4540  0.00  0.00     0.000 C
ATOM      4  C4  NAG B   1       9.552  -2.593  15.4080  0.00  0.00     0.000 C
ATOM      5  C5  NAG B   1      10.416  -3.455  14.4790  0.00  0.00     0.000 C
ATOM      6  O5  NAG B   1      10.508  -4.811  14.9640  0.00  0.00     0.000 O
ATOM      7   O  NAG B   1       7.263  -2.319  16.2300  0.00  0.00     0.000 O
ATOM      9  HD  NAG B   1       6.899  -3.100  16.3240  0.00  0.00     0.000 HD
ATOM      9   O  NAG B   1       9.520  -1.257  14.9320  0.00  0.00     0.000 O
ATOM     11  HD  NAG B   1       9.156  -2.038  15.0270  0.00  0.00     0.000 HD
ATOM     11   C  NAG B   1      11.801  -2.817  14.3110  0.00  0.00     0.000 C
ATOM     12   O  NAG B   1      12.798  -3.804  14.0520  0.00  0.00     0.000 O
ATOM     14  HD  NAG B   1      12.434  -4.584  14.1470  0.00  0.00     0.000 HD
ENDROOT
BRANCH 2 16
ATOM     14   N  NAG B   1       6.931  -5.107  16.2330  0.00  0.00     0.000 N
ATOM     16  HD  NAG B   1       6.491  -5.852  16.2520  0.00  0.00     0.000 HD
ATOM     16   C  NAG B   1       6.498  -5.642  17.3870  0.00  0.00     0.000 C
ATOM     17   C  NAG B   1       7.420  -5.715  18.5750  0.00  0.00     0.000 C
ATOM     18   O  NAG B   1       5.344  -6.054  17.5060  0.00  0.00     0.000 OA
ENDBRANCH 2 16
BRANCH 1 19
ATOM     19  O4  BDP B   2       9.526  -6.494  16.1530  0.00  0.00     0.000 O
BRANCH 19 23
ATOM     20  C1  BDP B   2      10.291  -9.194  13.1420  0.00  0.00     0.000 C
ATOM     21  C2  BDP B   2       8.907  -9.246  13.7570  0.00  0.00     0.000 C
ATOM     22  C3  BDP B   2       8.601  -7.979  14.5240  0.00  0.00     0.000 C
ATOM     23  C4  BDP B   2       9.725  -7.740  15.5280  0.00  0.00     0.000 C
ATOM     24  C5  BDP B   2      11.053  -7.696  14.7980  0.00  0.00     0.000 C
ATOM     25  O5  BDP B   2      11.270  -8.927  14.1360  0.00  0.00     0.000 O
ATOM     26   O  BDP B   2       7.933  -9.442  12.7550  0.00  0.00     0.000 O
ATOM     28  HD  BDP B   2       8.656  -9.602  12.3050  0.00  0.00     0.000 HD
ATOM     28   O  BDP B   2       7.323  -8.112  15.1650  0.00  0.00     0.000 O
ATOM     30  HD  BDP B   2       8.046  -8.272  14.7150  0.00  0.00     0.000 HD
BRANCH 24 30
ATOM     30   C  BDP B   2      12.196  -7.476  15.7240  0.00  0.00     0.000 C
ATOM     31   O  BDP B   2      13.056  -6.632  15.3830  0.00  0.00     0.000 OA
ATOM     32   O  BDP B   2      12.244  -8.151  16.7910  0.00  0.00     0.000 OA
ENDBRANCH 24 30
BRANCH 20 33
ATOM     33  O3  NAG B   3      10.487 -10.492  12.6360  0.00  0.00     0.000 O
BRANCH 33 36
ATOM     34  C1  NAG B   3      11.712 -11.389   9.1950  0.00  0.00     0.000 C
ATOM     35  C2  NAG B   3      10.723 -11.167  10.3230  0.00  0.00     0.000 C
ATOM     36  C3  NAG B   3      11.395 -10.499  11.5320  0.00  0.00     0.000 C
ATOM     37  C4  NAG B   3      12.640 -11.292  11.9210  0.00  0.00     0.000 C
ATOM     38  C5  NAG B   3      13.520 -11.530  10.6960  0.00  0.00     0.000 C
ATOM     39  O5  NAG B   3      12.776 -12.191   9.6880  0.00  0.00     0.000 O
ATOM     40   O  NAG B   3      13.389 -10.575  12.9150  0.00  0.00     0.000 O
ATOM     42  HD  NAG B   3      14.025 -10.686  12.3380  0.00  0.00     0.000 HD
ATOM     42   C  NAG B   3      14.724 -12.428  10.9670  0.00  0.00     0.000 C
ATOM     43   O  NAG B   3      14.274 -13.748  11.2950  0.00  0.00     0.000 O
ATOM     45  HD  NAG B   3      14.910 -13.859  10.7180  0.00  0.00     0.000 HD
BRANCH 35 47
ATOM     45   N  NAG B   3       9.323 -11.569  10.2890  0.00  0.00     0.000 N
ATOM     47  HD  NAG B   3       9.777 -11.993  10.8920  0.00  0.00     0.000 HD
ATOM     47   C  NAG B   3       8.338 -10.720  10.0730  0.00  0.00     0.000 C
ATOM     48   C  NAG B   3       6.953 -11.296  10.0910  0.00  0.00     0.000 C
ATOM     49   O  NAG B   3       8.539  -9.521   9.8950  0.00  0.00     0.000 OA
ENDBRANCH 35 47
BRANCH 34 50
ATOM     50  O4  BDP B   4      10.965 -12.101   8.2310  0.00  0.00     0.000 O
BRANCH 50 54
ATOM     51  C1  BDP B   4       9.870 -11.633   4.3400  0.00  0.00     0.000 C
ATOM     52  C2  BDP B   4      10.721 -12.868   4.6130  0.00  0.00     0.000 C
ATOM     53  C3  BDP B   4      10.736 -13.124   6.0880  0.00  0.00     0.000 C
ATOM     54  C4  BDP B   4      11.220 -11.850   6.8380  0.00  0.00     0.000 C
ATOM     55  C5  BDP B   4      10.478 -10.598   6.3920  0.00  0.00     0.000 C
ATOM     56  O5  BDP B   4      10.459 -10.510   4.9700  0.00  0.00     0.000 O
ATOM     57   O  BDP B   4      10.183 -13.991   3.9480  0.00  0.00     0.000 O
ATOM     59  HD  BDP B   4      10.696 -14.104   3.2600  0.00  0.00     0.000 HD
ATOM     59   O  BDP B   4      11.699 -14.172   6.3230  0.00  0.00     0.000 O
ATOM     61  HD  BDP B   4      12.212 -14.285   5.6350  0.00  0.00     0.000 HD
BRANCH 55 61
ATOM     61   C  BDP B   4      11.175  -9.374   6.9580  0.00  0.00     0.000 C
ATOM     62   O  BDP B   4      10.553  -8.678   7.8030  0.00  0.00     0.000 OA
ATOM     63   O  BDP B   4      12.349  -9.111   6.5550  0.00  0.00     0.000 OA
ENDBRANCH 55 61
BRANCH 51 64
ATOM     64  O3  NAG B   5       9.824 -11.453   2.9120  0.00  0.00     0.000 O
BRANCH 64 67
ATOM     65  C1  NAG B   5       7.156 -11.391   0.3680  0.00  0.00     0.000 C
ATOM     66  C2  NAG B   5       8.436 -11.821   1.0630  0.00  0.00     0.000 C
ATOM     67  C3  NAG B   5       8.520 -11.174   2.4400  0.00  0.00     0.000 C
ATOM     68  C4  NAG B   5       8.324  -9.655   2.3480  0.00  0.00     0.000 C
ATOM     69  C5  NAG B   5       7.069  -9.322   1.5570  0.00  0.00     0.000 C
ATOM     70  O5  NAG B   5       7.103  -9.985   0.2840  0.00  0.00     0.000 O
ATOM     71   O  NAG B   5       8.258  -9.128   3.6560  0.00  0.00     0.000 O
ATOM     73  HD  NAG B   5       8.758  -8.515   3.3040  0.00  0.00     0.000 HD
ATOM     73   C  NAG B   5       6.860  -7.822   1.3040  0.00  0.00     0.000 C
ATOM     74   O  NAG B   5       7.931  -7.317   0.4800  0.00  0.00     0.000 O
ATOM     76  HD  NAG B   5       8.430  -6.703   0.1280  0.00  0.00     0.000 HD
BRANCH 66 78
ATOM     76   N  NAG B   5       8.425 -13.293   1.1680  0.00  0.00     0.000 N
ATOM     78  HD  NAG B   5       8.876 -12.688   0.7440  0.00  0.00     0.000 HD
ATOM     78   C  NAG B   5       9.368 -14.124   0.6970  0.00  0.00     0.000 C
ATOM     79   C  NAG B   5       9.083 -15.575   0.9770  0.00  0.00     0.000 C
ATOM     80   O  NAG B   5      10.408 -13.721   0.0630  0.00  0.00     0.000 OA
ENDBRANCH 66 78
BRANCH 65 81
ATOM     81  O4  BDP B   6       7.094 -11.960  -0.9470  0.00  0.00     0.000 O
BRANCH 81 85
ATOM     82  C1  BDP B   6       4.214 -13.210  -3.8640  0.00  0.00     0.000 C
ATOM     83  C2  BDP B   6       4.112 -11.780  -3.3390  0.00  0.00     0.000 C
ATOM     84  C3  BDP B   6       5.390 -11.311  -2.6390  0.00  0.00     0.000 C
ATOM     85  C4  BDP B   6       5.854 -12.302  -1.5690  0.00  0.00     0.000 C
ATOM     86  C5  BDP B   6       5.883 -13.711  -2.2080  0.00  0.00     0.000 C
ATOM     87  O5  BDP B   6       4.593 -14.070  -2.7990  0.00  0.00     0.000 O
ATOM     88   O  BDP B   6       3.872 -10.970  -4.4870  0.00  0.00     0.000 O
ATOM     90  HD  BDP B   6       4.113 -10.213  -4.8310  0.00  0.00     0.000 HD
ATOM     90   O  BDP B   6       5.180 -10.013  -2.0770  0.00  0.00     0.000 O
ATOM     92  HD  BDP B   6       5.420  -9.256  -2.4210  0.00  0.00     0.000 HD
BRANCH 86 92
ATOM     92   C  BDP B   6       6.102 -14.767  -1.1520  0.00  0.00     0.000 C
ATOM     93   O  BDP B   6       5.726 -14.546   0.0390  0.00  0.00     0.000 OA
ATOM     94   O  BDP B   6       6.642 -15.858  -1.5160  0.00  0.00     0.000 OA
ENDBRANCH 86 92
BRANCH 82 95
ATOM     95  O3  NAG B   7       2.911 -13.619  -4.3210  0.00  0.00     0.000 O
BRANCH 95 98
ATOM     96  C1  NAG B   7       2.279 -15.729  -7.2350  0.00  0.00     0.000 C
ATOM     97  C2  NAG B   7       2.354 -14.428  -6.4470  0.00  0.00     0.000 C
ATOM     98  C3  NAG B   7       2.780 -14.844  -5.0410  0.00  0.00     0.000 C
ATOM     99  C4  NAG B   7       1.747 -15.799  -4.4470  0.00  0.00     0.000 C
ATOM    100  C5  NAG B   7       1.501 -16.986  -5.3800  0.00  0.00     0.000 C
ATOM    101  O5  NAG B   7       1.207 -16.497  -6.6790  0.00  0.00     0.000 O
BRANCH 97 104
ATOM    102   N  NAG B   7       2.792 -13.065  -6.7770  0.00  0.00     0.000 N
ATOM    104  HD  NAG B   7       2.841 -12.276  -7.1310  0.00  0.00     0.000 HD
ATOM    104   O  NAG B   7       4.180 -11.461  -7.5730  0.00  0.00     0.000 OA
ATOM    105   C  NAG B   7       3.970 -12.656  -7.2860  0.00  0.00     0.000 C
ATOM    106   C  NAG B   7       5.044 -13.662  -7.5250  0.00  0.00     0.000 C
ENDBRANCH 97 104
ATOM    107   O  NAG B   7       0.409 -19.055  -5.5600  0.00  0.00     0.000 O
ATOM    109  HD  NAG B   7       1.133 -18.617  -5.7460  0.00  0.00     0.000 HD
ATOM    109   O  NAG B   7       0.409 -19.055  -5.5600  0.00  0.00     0.000 O
ATOM    111  HD  NAG B   7       1.133 -18.617  -5.7460  0.00  0.00     0.000 HD
ENDBRANCH 95 98
ENDBRANCH 82 95
ENDBRANCH 81 85
ENDBRANCH 65 81
ENDBRANCH 64 67
ENDBRANCH 51 64
ENDBRANCH 50 54
ENDBRANCH 34 50
ENDBRANCH 33 36
ENDBRANCH 20 33
ENDBRANCH 19 23
ENDBRANCH 1 19
TORSDOF 19
ENDMDL
MODEL 3
REMARK VINA RESULT:      -8.8      1.908      2.549
ROOT
ATOM      1  C1  NAG B   1       1.139 -15.416  18.6890  0.00  0.00     0.000 C
ATOM      2  C2  NAG B   1      -0.254 -14.895  18.3450  0.00  0.00     0.000 C
ATOM      3  C3  NAG B   1      -1.308 -15.976  18.4740  0.00  0.00     0.000 C
ATOM      4  C4  NAG B   1      -0.860 -17.097  17.5410  0.00  0.00     0.000 C
ATOM      5  C5  NAG B   1       0.483 -17.653  18.0320  0.00  0.00     0.000 C
ATOM      6  O5  NAG B   1       1.505 -16.633  18.0200  0.00  0.00     0.000 O
ATOM      7   O  NAG B   1      -2.624 -15.500  18.1120  0.00  0.00     0.000 O
ATOM      9  HD  NAG B   1      -2.268 -14.802  18.4810  0.00  0.00     0.000 HD
ATOM      9   O  NAG B   1      -1.829 -18.131  17.5200  0.00  0.00     0.000 O
ATOM     11  HD  NAG B   1      -1.473 -17.433  17.8890  0.00  0.00     0.000 HD
ATOM     11   C  NAG B   1       0.885 -18.870  17.1900  0.00  0.00     0.000 C
ATOM     12   O  NAG B   1       2.303 -19.012  17.1290  0.00  0.00     0.000 O
ATOM     14  HD  NAG B   1       2.659 -18.314  17.4970  0.00  0.00     0.000 HD
ENDROOT
BRANCH 2 16
ATOM     14   N  NAG B   1      -0.344 -13.501  17.8750  0.00  0.00     0.000 N
ATOM     16  HD  NAG B   1      -0.905 -12.902  17.6000  0.00  0.00     0.000 HD
ATOM     16   C  NAG B   1      -0.735 -12.484  18.6620  0.00  0.00     0.000 C
ATOM     17   C  NAG B   1      -1.132 -12.749  20.0900  0.00  0.00     0.000 C
ATOM     18   O  NAG B   1      -0.750 -11.326  18.2480  0.00  0.00     0.000 OA
ENDBRANCH 2 16
BRANCH 1 19
ATOM     19  O4  BDP B   2       1.998 -14.410  18.1690  0.00  0.00     0.000 O
BRANCH 19 23
ATOM     20  C1  BDP B   2       5.249 -14.317  15.6450  0.00  0.00     0.000 C
ATOM     21  C2  BDP B   2       3.910 -14.626  15.0070  0.00  0.00     0.000 C
ATOM     22  C3  BDP B   2       2.766 -14.227  15.9120  0.00  0.00     0.000 C
ATOM     23  C4  BDP B   2       2.977 -14.882  17.2750  0.00  0.00     0.000 C
ATOM     24  C5  BDP B   2       4.339 -14.492  17.8160  0.00  0.00     0.000 C
ATOM     25  O5  BDP B   2       5.346 -14.929  16.9240  0.00  0.00     0.000 O
ATOM     26   O  BDP B   2       3.792 -13.960  13.7690  0.00  0.00     0.000 O
ATOM     28  HD  BDP B   2       4.634 -13.841  13.9320  0.00  0.00     0.000 HD
ATOM     28   O  BDP B   2       1.525 -14.624  15.3090  0.00  0.00     0.000 O
ATOM     30  HD  BDP B   2       2.367 -14.506  15.4720  0.00  0.00     0.000 HD
BRANCH 24 30
ATOM     30   C  BDP B   2       4.614 -15.108  19.1410  0.00  0.00     0.000 C
ATOM     31   O  BDP B   2       4.891 -14.335  20.0870  0.00  0.00     0.000 OA
ATOM     32   O  BDP B   2       4.562 -16.367  19.2410  0.00  0.00     0.000 OA
ENDBRANCH 24 30
BRANCH 20 33
ATOM     33  O3  NAG B   3       6.184 -14.909  14.7770  0.00  0.00     0.000 O
BRANCH 33 36
ATOM     34  C1  NAG B   3       9.515 -13.359  13.9670  0.00  0.00     0.000 C
ATOM     35  C2  NAG B   3       8.039 -13.680  13.8220  0.00  0.00     0.000 C
ATOM     36  C3  NAG B   3       7.513 -14.453  15.0420  0.00  0.00     0.000 C
ATOM     37  C4  NAG B   3       8.409 -15.662  15.2980  0.00  0.00     0.000 C
ATOM     38  C5  NAG B   3       9.874 -15.237  15.3400  0.00  0.00     0.000 C
ATOM     39  O5  NAG B   3      10.221 -14.580  14.1330  0.00  0.00     0.000 O
ATOM     40   O  NAG B   3       8.054 -16.280  16.5460  0.00  0.00     0.000 O
ATOM     42  HD  NAG B   3       8.899 -16.164  16.7000  0.00  0.00     0.000 HD
ATOM     42   C  NAG B   3      10.852 -16.403  15.4630  0.00  0.00     0.000 C
ATOM     43   O  NAG B   3      10.789 -17.207  14.2790  0.00  0.00     0.000 O
ATOM     45  HD  NAG B   3      11.633 -17.092  14.4340  0.00  0.00     0.000 HD
BRANCH 35 47
ATOM     45   N  NAG B   3       7.327 -13.247  12.6270  0.00  0.00     0.000 N
ATOM     47  HD  NAG B   3       7.491 -14.097  12.6280  0.00  0.00     0.000 HD
ATOM     47   C  NAG B   3       6.384 -12.326  12.6490  0.00  0.00     0.000 C
ATOM     48   C  NAG B   3       5.737 -12.012  11.3330  0.00  0.00     0.000 C
ATOM     49   O  NAG B   3       6.035 -11.775  13.6910  0.00  0.00     0.000 OA
ENDBRANCH 35 47
BRANCH 34 50
ATOM     50  O4  BDP B   4       9.849 -12.761  12.7320  0.00  0.00     0.000 O
BRANCH 50 54
ATOM     51  C1  BDP B   4      12.374 -10.162  10.8810  0.00  0.00     0.000 C
ATOM     52  C2  BDP B   4      13.061 -11.360  11.5260  0.00  0.00     0.000 C
ATOM     53  C3  BDP B   4      12.027 -12.400  11.8300  0.00  0.00     0.000 C
ATOM     54  C4  BDP B   4      10.899 -11.780  12.7030  0.00  0.00     0.000 C
ATOM     55  C5  BDP B   4      10.373 -10.472  12.1260  0.00  0.00     0.000 C
ATOM     56  O5  BDP B   4      11.452  -9.602  11.7990  0.00  0.00     0.000 O
ATOM     57   O  BDP B   4      14.026 -11.902  10.6490  0.00  0.00     0.000 O
ATOM     59  HD  BDP B   4      14.785 -11.624  10.9600  0.00  0.00     0.000 HD
ATOM     59   O  BDP B   4      12.679 -13.425  12.6080  0.00  0.00     0.000 O
ATOM     61  HD  BDP B   4      13.438 -13.147  12.9190  0.00  0.00     0.000 HD
BRANCH 55 61
ATOM     61   C  BDP B   4       9.480  -9.796  13.1510  0.00  0.00     0.000 C
ATOM     62   O  BDP B   4       9.864  -9.778  14.3500  0.00  0.00     0.000 OA
ATOM     63   O  BDP B   4       8.391  -9.281  12.7520  0.00  0.00     0.000 OA
ENDBRANCH 55 61
BRANCH 51 64
ATOM     64  O3  NAG B   5      13.401  -9.211  10.5430  0.00  0.00     0.000 O
BRANCH 64 67
ATOM     65  C1  NAG B   5      13.172  -6.936   7.6500  0.00  0.00     0.000 C
ATOM     66  C2  NAG B   5      13.464  -8.207   8.4300  0.00  0.00     0.000 C
ATOM     67  C3  NAG B   5      12.897  -8.093   9.8390  0.00  0.00     0.000 C
ATOM     68  C4  NAG B   5      13.372  -6.802  10.5210  0.00  0.00     0.000 C
ATOM     69  C5  NAG B   5      13.121  -5.598   9.6270  0.00  0.00     0.000 C
ATOM     70  O5  NAG B   5      13.699  -5.822   8.3330  0.00  0.00     0.000 O
ATOM     71   O  NAG B   5      12.701  -6.671  11.7560  0.00  0.00     0.000 O
ATOM     73  HD  NAG B   5      13.489  -6.430  12.0210  0.00  0.00     0.000 HD
ATOM     73   C  NAG B   5      13.681  -4.277  10.1750  0.00  0.00     0.000 C
ATOM     74   O  NAG B   5      15.119  -4.356  10.2510  0.00  0.00     0.000 O
ATOM     76  HD  NAG B   5      15.908  -4.115  10.5170  0.00  0.00     0.000 HD
BRANCH 66 78
ATOM     76   N  NAG B   5      12.964  -9.220   7.4810  0.00  0.00     0.000 N
ATOM     78  HD  NAG B   5      13.672  -9.094   7.9630  0.00  0.00     0.000 HD
ATOM     78   C  NAG B   5      13.499 -10.432   7.2660  0.00  0.00     0.000 C
ATOM     79   C  NAG B   5      12.748 -11.247   6.2480  0.00  0.00     0.000 C
ATOM     80   O  NAG B   5      14.555 -10.851   7.8620  0.00  0.00     0.000 OA
ENDBRANCH 66 78
BRANCH 65 81
ATOM     81  O4  BDP B   6      13.744  -7.020   6.3390  0.00  0.00     0.000 O
BRANCH 81 85
ATOM     82  C1  BDP B   6      13.231  -5.340   2.4300  0.00  0.00     0.000 C
ATOM     83  C2  BDP B   6      14.012  -4.519   3.4540  0.00  0.00     0.000 C
ATOM     84  C3  BDP B   6      14.485  -5.353   4.6480  0.00  0.00     0.000 C
ATOM     85  C4  BDP B   6      13.342  -6.152   5.2770  0.00  0.00     0.000 C
ATOM     86  C5  BDP B   6      12.610  -6.908   4.1420  0.00  0.00     0.000 C
ATOM     87  O5  BDP B   6      12.159  -6.002   3.0850  0.00  0.00     0.000 O
ATOM     88   O  BDP B   6      15.141  -4.009   2.7510  0.00  0.00     0.000 O
ATOM     90  HD  BDP B   6      15.991  -3.881   2.8570  0.00  0.00     0.000 HD
ATOM     90   O  BDP B   6      15.104  -4.499   5.6130  0.00  0.00     0.000 O
ATOM     92  HD  BDP B   6      15.954  -4.370   5.7190  0.00  0.00     0.000 HD
BRANCH 86 92
ATOM     92   C  BDP B   6      11.332  -7.526   4.6560  0.00  0.00     0.000 C
ATOM     93   O  BDP B   6      10.421  -6.778   5.1250  0.00  0.00     0.000 OA
ATOM     94   O  BDP B   6      11.216  -8.788   4.5720  0.00  0.00     0.000 OA
ENDBRANCH 86 92
BRANCH 82 95
ATOM     95  O3  NAG B   7      12.667  -4.436   1.4600  0.00  0.00     0.000 O
BRANCH 95 98
ATOM     96  C1  NAG B   7      12.354  -5.196  -2.0990  0.00  0.00     0.000 C
ATOM     97  C2  NAG B   7      12.976  -4.570  -0.8580  0.00  0.00     0.000 C
ATOM     98  C3  NAG B   7      12.050  -4.970   0.2890  0.00  0.00     0.000 C
ATOM     99  C4  NAG B   7      10.645  -4.429   0.0350  0.00  0.00     0.000 C
ATOM    100  C5  NAG B   7      10.131  -4.870  -1.3370  0.00  0.00     0.000 C
ATOM    101  O5  NAG B   7      11.100  -4.540  -2.3190  0.00  0.00     0.000 O
BRANCH 97 104
ATOM    102   N  NAG B   7      14.281  -5.052  -0.3860  0.00  0.00     0.000 N
ATOM    104  HD  NAG B   7      14.919  -5.346   0.1210  0.00  0.00     0.000 HD
ATOM    104   O  NAG B   7      16.496  -4.945   0.0740  0.00  0.00     0.000 OA
ATOM    105   C  NAG B   7      15.475  -4.431  -0.4240  0.00  0.00     0.000 C
ATOM    106   C  NAG B   7      15.574  -3.088  -1.0640  0.00  0.00     0.000 C
ENDBRANCH 97 104
ATOM    107   O  NAG B   7       8.248  -4.881  -2.7360  0.00  0.00     0.000 O
ATOM    109  HD  NAG B   7       8.930  -5.340  -2.4630  0.00  0.00     0.000 HD
ATOM    109   O  NAG B   7       8.248  -4.881  -2.7360  0.00  0.00     0.000 O
ATOM    111  HD  NAG B   7       8.930  -5.340  -2.4630  0.00  0.00     0.000 HD
ENDBRANCH 95 98
ENDBRANCH 82 95
ENDBRANCH 81 85
ENDBRANCH 65 81
ENDBRANCH 64 67
ENDBRANCH 51 64
ENDBRANCH 50 54
ENDBRANCH 34 50
ENDBRANCH 33 36
ENDBRANCH 20 33
ENDBRANCH 19 23
ENDBRANCH 1 19
TORSDOF 19
ENDMDL
MODEL 4
REMARK VINA RESULT:      -8.8     10.829     21.507
ROOT
ATOM      1  C1  NAG B   1      21.505  -0.242  -6.0570  0.00  0.00     0.000 C
ATOM      2  C2  NAG B   1      21.320  -0.348  -7.5690  0.00  0.00     0.000 C
ATOM      3  C3  NAG B   1      21.727   0.927  -8.2780  0.00  0.00     0.000 C
ATOM      4  C4  NAG B   1      20.869   2.028  -7.6630  0.00  0.00     0.000 C
ATOM      5  C5  NAG B   1      21.210   2.159  -6.1730  0.00  0.00     0.000 C
ATOM      6  O5  NAG B   1      20.928   0.933  -5.4650  0.00  0.00     0.000 O
ATOM      7   O  NAG B   1      21.518   0.848  -9.7060  0.00  0.00     0.000 O
ATOM      9  HD  NAG B   1      21.749   0.037  -9.5060  0.00  0.00     0.000 HD
ATOM      9   O  NAG B   1      21.110   3.260  -8.3220  0.00  0.00     0.000 O
ATOM     11  HD  NAG B   1      21.340   2.450  -8.1210  0.00  0.00     0.000 HD
ATOM     11   C  NAG B   1      20.458   3.351  -5.5670  0.00  0.00     0.000 C
ATOM     12   O  NAG B   1      20.199   3.147  -4.1790  0.00  0.00     0.000 O
ATOM     14  HD  NAG B   1      20.429   2.337  -3.9790  0.00  0.00     0.000 HD
ENDROOT
BRANCH 2 16
ATOM     14   N  NAG B   1      22.005  -1.610  -7.9010  0.00  0.00     0.000 N
ATOM     16  HD  NAG B   1      22.065  -2.443  -7.6710  0.00  0.00     0.000 HD
ATOM     16   C  NAG B   1      21.434  -2.587  -8.6270  0.00  0.00     0.000 C
ATOM     17   C  NAG B   1      20.020  -2.429  -9.1180  0.00  0.00     0.000 C
ATOM     18   O  NAG B   1      22.056  -3.606  -8.9260  0.00  0.00     0.000 OA
ENDBRANCH 2 16
BRANCH 1 19
ATOM     19  O4  BDP B   2      20.751  -1.340  -5.5610  0.00  0.00     0.000 O
BRANCH 19 23
ATOM     20  C1  BDP B   2      17.407  -1.808  -3.2080  0.00  0.00     0.000 C
ATOM     21  C2  BDP B   2      17.186  -1.201  -4.5780  0.00  0.00     0.000 C
ATOM     22  C3  BDP B   2      18.365  -1.461  -5.4890  0.00  0.00     0.000 C
ATOM     23  C4  BDP B   2      19.632  -0.980  -4.7870  0.00  0.00     0.000 C
ATOM     24  C5  BDP B   2      19.751  -1.660  -3.4380  0.00  0.00     0.000 C
ATOM     25  O5  BDP B   2      18.625  -1.340  -2.6450  0.00  0.00     0.000 O
ATOM     26   O  BDP B   2      16.011  -1.723  -5.1600  0.00  0.00     0.000 O
ATOM     28  HD  BDP B   2      15.924  -2.009  -4.3480  0.00  0.00     0.000 HD
ATOM     28   O  BDP B   2      18.153  -0.790  -6.7410  0.00  0.00     0.000 O
ATOM     30  HD  BDP B   2      18.066  -1.076  -5.9280  0.00  0.00     0.000 HD
BRANCH 24 30
ATOM     30   C  BDP B   2      20.963  -1.226  -2.6950  0.00  0.00     0.000 C
ATOM     31   O  BDP B   2      21.006  -0.033  -2.3130  0.00  0.00     0.000 OA
ATOM     32   O  BDP B   2      21.882  -2.071  -2.4950  0.00  0.00     0.000 OA
ENDBRANCH 24 30
BRANCH 20 33
ATOM     33  O3  NAG B   3      16.329  -1.325  -2.4440  0.00  0.00     0.000 O
BRANCH 33 36
ATOM     34  C1  NAG B   3      14.805  -3.468   0.2460  0.00  0.00     0.000 C
ATOM     35  C2  NAG B   3      15.053  -2.923  -1.1480  0.00  0.00     0.000 C
ATOM     36  C3  NAG B   3      16.255  -1.966  -1.1680  0.00  0.00     0.000 C
ATOM     37  C4  NAG B   3      16.071  -0.901  -0.0900  0.00  0.00     0.000 C
ATOM     38  C5  NAG B   3      15.742  -1.556   1.2490  0.00  0.00     0.000 C
ATOM     39  O5  NAG B   3      14.589  -2.369   1.1200  0.00  0.00     0.000 O
ATOM     40   O  NAG B   3      17.270  -0.122   0.0410  0.00  0.00     0.000 O
ATOM     42  HD  NAG B   3      17.186  -0.359   0.8690  0.00  0.00     0.000 HD
ATOM     42   C  NAG B   3      15.413  -0.560   2.3590  0.00  0.00     0.000 C
ATOM     43   O  NAG B   3      14.200   0.132   2.0380  0.00  0.00     0.000 O
ATOM     45  HD  NAG B   3      14.117  -0.105   2.8660  0.00  0.00     0.000 HD
BRANCH 35 47
ATOM     45   N  NAG B   3      15.186  -4.053  -2.0590  0.00  0.00     0.000 N
ATOM     47  HD  NAG B   3      15.125  -4.298  -1.2310  0.00  0.00     0.000 HD
ATOM     47   C  NAG B   3      14.611  -4.090  -3.2450  0.00  0.00     0.000 C
ATOM     48   C  NAG B   3      14.833  -5.336  -4.0490  0.00  0.00     0.000 C
ATOM     49   O  NAG B   3      13.910  -3.168  -3.6570  0.00  0.00     0.000 OA
ENDBRANCH 35 47
BRANCH 34 50
ATOM     50  O4  BDP B   4      13.620  -4.223   0.1030  0.00  0.00     0.000 O
BRANCH 50 54
ATOM     51  C1  BDP B   4      11.546  -7.284   1.8020  0.00  0.00     0.000 C
ATOM     52  C2  BDP B   4      11.044  -5.895   2.1770  0.00  0.00     0.000 C
ATOM     53  C3  BDP B   4      11.625  -4.899   1.2210  0.00  0.00     0.000 C
ATOM     54  C4  BDP B   4      13.176  -5.024   1.2110  0.00  0.00     0.000 C
ATOM     55  C5  BDP B   4      13.640  -6.463   1.0320  0.00  0.00     0.000 C
ATOM     56  O5  BDP B   4      12.955  -7.324   1.9370  0.00  0.00     0.000 O
ATOM     57   O  BDP B   4       9.635  -5.847   2.1030  0.00  0.00     0.000 O
ATOM     59  HD  BDP B   4       9.371  -5.885   2.9270  0.00  0.00     0.000 HD
ATOM     59   O  BDP B   4      11.287  -3.589   1.7210  0.00  0.00     0.000 O
ATOM     61  HD  BDP B   4      11.024  -3.628   2.5450  0.00  0.00     0.000 HD
BRANCH 55 61
ATOM     61   C  BDP B   4      15.133  -6.544   1.2980  0.00  0.00     0.000 C
ATOM     62   O  BDP B   4      15.876  -6.962   0.3720  0.00  0.00     0.000 OA
ATOM     63   O  BDP B   4      15.560  -6.185   2.4380  0.00  0.00     0.000 OA
ENDBRANCH 55 61
BRANCH 51 64
ATOM     64  O3  NAG B   5      10.920  -8.222   2.6980  0.00  0.00     0.000 O
BRANCH 64 67
ATOM     65  C1  NAG B   5       9.375 -11.345   1.4930  0.00  0.00     0.000 C
ATOM     66  C2  NAG B   5       9.504  -9.868   1.8240  0.00  0.00     0.000 C
ATOM     67  C3  NAG B   5      10.944  -9.546   2.2030  0.00  0.00     0.000 C
ATOM     68  C4  NAG B   5      11.449 -10.492   3.3010  0.00  0.00     0.000 C
ATOM     69  C5  NAG B   5      11.193 -11.942   2.9210  0.00  0.00     0.000 C
ATOM     70  O5  NAG B   5       9.809 -12.122   2.5860  0.00  0.00     0.000 O
ATOM     71   O  NAG B   5      12.825 -10.253   3.5060  0.00  0.00     0.000 O
ATOM     73  HD  NAG B   5      12.592 -10.330   4.3360  0.00  0.00     0.000 HD
ATOM     73   C  NAG B   5      11.551 -12.956   4.0170  0.00  0.00     0.000 C
ATOM     74   O  NAG B   5      10.703 -12.746   5.1660  0.00  0.00     0.000 O
ATOM     76  HD  NAG B   5      10.470 -12.823   5.9960  0.00  0.00     0.000 HD
BRANCH 66 78
ATOM     76   N  NAG B   5       8.285  -9.073   1.5810  0.00  0.00     0.000 N
ATOM     78  HD  NAG B   5       9.107  -9.079   1.3070  0.00  0.00     0.000 HD
ATOM     78   C  NAG B   5       8.115  -8.167   0.6060  0.00  0.00     0.000 C
ATOM     79   C  NAG B   5       6.750  -7.533   0.6070  0.00  0.00     0.000 C
ATOM     80   O  NAG B   5       9.031  -7.863  -0.2400  0.00  0.00     0.000 OA
ENDBRANCH 66 78
BRANCH 65 81
ATOM     81  O4  BDP B   6       8.012 -11.663   1.1810  0.00  0.00     0.000 O
BRANCH 81 85
ATOM     82  C1  BDP B   6       5.721 -13.975  -1.6050  0.00  0.00     0.000 C
ATOM     83  C2  BDP B   6       6.517 -14.733  -0.5470  0.00  0.00     0.000 C
ATOM     84  C3  BDP B   6       6.954 -13.843   0.6200  0.00  0.00     0.000 C
ATOM     85  C4  BDP B   6       7.664 -12.576   0.1380  0.00  0.00     0.000 C
ATOM     86  C5  BDP B   6       6.781 -11.920  -0.9500  0.00  0.00     0.000 C
ATOM     87  O5  BDP B   6       6.473 -12.851  -2.0370  0.00  0.00     0.000 O
ATOM     88   O  BDP B   6       5.642 -15.750  -0.0680  0.00  0.00     0.000 O
ATOM     90  HD  BDP B   6       5.399 -16.128   0.6730  0.00  0.00     0.000 HD
ATOM     90   O  BDP B   6       7.788 -14.591   1.5080  0.00  0.00     0.000 O
ATOM     92  HD  BDP B   6       7.545 -14.968   2.2490  0.00  0.00     0.000 HD
BRANCH 86 92
ATOM     92   C  BDP B   6       7.528 -10.801  -1.6360  0.00  0.00     0.000 C
ATOM     93   O  BDP B   6       8.795 -10.824  -1.6660  0.00  0.00     0.000 OA
ATOM     94   O  BDP B   6       6.838  -9.884  -2.1800  0.00  0.00     0.000 OA
ENDBRANCH 86 92
BRANCH 82 95
ATOM     95  O3  NAG B   7       5.532 -14.844  -2.7400  0.00  0.00     0.000 O
BRANCH 95 98
ATOM     96  C1  NAG B   7       2.809 -16.359  -4.6430  0.00  0.00     0.000 C
ATOM     97  C2  NAG B   7       4.199 -16.275  -4.0280  0.00  0.00     0.000 C
ATOM     98  C3  NAG B   7       4.253 -14.897  -3.3700  0.00  0.00     0.000 C
ATOM     99  C4  NAG B   7       4.041 -13.811  -4.4210  0.00  0.00     0.000 C
ATOM    100  C5  NAG B   7       2.750 -14.055  -5.2040  0.00  0.00     0.000 C
ATOM    101  O5  NAG B   7       2.753 -15.387  -5.6930  0.00  0.00     0.000 O
BRANCH 97 104
ATOM    102   N  NAG B   7       4.459 -17.271  -2.9790  0.00  0.00     0.000 N
ATOM    104  HD  NAG B   7       4.597 -17.643  -2.2100  0.00  0.00     0.000 HD
ATOM    104   O  NAG B   7       5.630 -18.851  -1.8560  0.00  0.00     0.000 OA
ATOM    105   C  NAG B   7       5.517 -18.092  -2.8390  0.00  0.00     0.000 C
ATOM    106   C  NAG B   7       6.586 -18.082  -3.8780  0.00  0.00     0.000 C
ENDBRANCH 97 104
ATOM    107   O  NAG B   7       1.306 -13.129  -6.8050  0.00  0.00     0.000 O
ATOM    109  HD  NAG B   7       1.349 -13.581  -6.0670  0.00  0.00     0.000 HD
ATOM    109   O  NAG B   7       1.306 -13.129  -6.8050  0.00  0.00     0.000 O
ATOM    111  HD  NAG B   7       1.349 -13.581  -6.0670  0.00  0.00     0.000 HD
ENDBRANCH 95 98
ENDBRANCH 82 95
ENDBRANCH 81 85
ENDBRANCH 65 81
ENDBRANCH 64 67
ENDBRANCH 51 64
ENDBRANCH 50 54
ENDBRANCH 34 50
ENDBRANCH 33 36
ENDBRANCH 20 33
ENDBRANCH 19 23
ENDBRANCH 1 19
TORSDOF 19
ENDMDL
MODEL 5
REMARK VINA RESULT:      -8.6      8.556     17.133
ROOT
ATOM      1  C1  NAG B   1      10.152   6.668  14.9130  0.00  0.00     0.000 C
ATOM      2  C2  NAG B   1       9.600   7.579  13.8200  0.00  0.00     0.000 C
ATOM      3  C3  NAG B   1       9.246   8.952  14.3540  0.00  0.00     0.000 C
ATOM      4  C4  NAG B   1       8.237   8.708  15.4710  0.00  0.00     0.000 C
ATOM      5  C5  NAG B   1       8.910   7.900  16.5890  0.00  0.00     0.000 C
ATOM      6  O5  NAG B   1       9.353   6.613  16.1060  0.00  0.00     0.000 O
ATOM      7   O  NAG B   1       8.686   9.807  13.3310  0.00  0.00     0.000 O
ATOM      9  HD  NAG B   1       9.266   9.341  12.8880  0.00  0.00     0.000 HD
ATOM      9   O  NAG B   1       7.771   9.944  15.9860  0.00  0.00     0.000 O
ATOM     11  HD  NAG B   1       8.350   9.477  15.5430  0.00  0.00     0.000 HD
ATOM     11   C  NAG B   1       7.955   7.761  17.7810  0.00  0.00     0.000 C
ATOM     12   O  NAG B   1       8.208   6.560  18.5090  0.00  0.00     0.000 O
ATOM     14  HD  NAG B   1       8.787   6.094  18.0660  0.00  0.00     0.000 HD
ENDROOT
BRANCH 2 16
ATOM     14   N  NAG B   1       9.494   6.886  12.5240  0.00  0.00     0.000 N
ATOM     16  HD  NAG B   1       9.175   6.966  11.7230  0.00  0.00     0.000 HD
ATOM     16   C  NAG B   1      10.283   7.168  11.4730  0.00  0.00     0.000 C
ATOM     17   C  NAG B   1      11.317   8.257  11.5810  0.00  0.00     0.000 C
ATOM     18   O  NAG B   1      10.199   6.534  10.4220  0.00  0.00     0.000 OA
ENDBRANCH 2 16
BRANCH 1 19
ATOM     19  O4  BDP B   2      10.072   5.375  14.3290  0.00  0.00     0.000 O
BRANCH 19 23
ATOM     20  C1  BDP B   2      11.976   1.768  14.8800  0.00  0.00     0.000 C
ATOM     21  C2  BDP B   2      10.973   2.169  15.9420  0.00  0.00     0.000 C
ATOM     22  C3  BDP B   2      10.053   3.260  15.4440  0.00  0.00     0.000 C
ATOM     23  C4  BDP B   2      10.909   4.412  14.9230  0.00  0.00     0.000 C
ATOM     24  C5  BDP B   2      11.860   3.894  13.8620  0.00  0.00     0.000 C
ATOM     25  O5  BDP B   2      12.699   2.901  14.4220  0.00  0.00     0.000 O
ATOM     26   O  BDP B   2      10.211   1.051  16.3430  0.00  0.00     0.000 O
ATOM     28  HD  BDP B   2      10.833   0.661  15.8840  0.00  0.00     0.000 HD
ATOM     28   O  BDP B   2       9.186   3.672  16.5110  0.00  0.00     0.000 O
ATOM     30  HD  BDP B   2       9.807   3.282  16.0520  0.00  0.00     0.000 HD
BRANCH 24 30
ATOM     30   C  BDP B   2      12.734   4.967  13.3190  0.00  0.00     0.000 C
ATOM     31   O  BDP B   2      13.366   5.666  14.1440  0.00  0.00     0.000 OA
ATOM     32   O  BDP B   2      12.786   5.122  12.0650  0.00  0.00     0.000 OA
ENDBRANCH 24 30
BRANCH 20 33
ATOM     33  O3  NAG B   3      12.855   0.899  15.5520  0.00  0.00     0.000 O
BRANCH 33 36
ATOM     34  C1  NAG B   3      14.182  -2.346  14.1900  0.00  0.00     0.000 C
ATOM     35  C2  NAG B   3      13.290  -1.415  14.9880  0.00  0.00     0.000 C
ATOM     36  C3  NAG B   3      13.565   0.056  14.6420  0.00  0.00     0.000 C
ATOM     37  C4  NAG B   3      15.060   0.336  14.7730  0.00  0.00     0.000 C
ATOM     38  C5  NAG B   3      15.863  -0.709  14.0030  0.00  0.00     0.000 C
ATOM     39  O5  NAG B   3      15.534  -2.008  14.4640  0.00  0.00     0.000 O
ATOM     40   O  NAG B   3      15.362   1.643  14.2620  0.00  0.00     0.000 O
ATOM     42  HD  NAG B   3      15.928   1.191  13.7860  0.00  0.00     0.000 HD
ATOM     42   C  NAG B   3      17.374  -0.584  14.1860  0.00  0.00     0.000 C
ATOM     43   O  NAG B   3      17.716  -0.862  15.5490  0.00  0.00     0.000 O
ATOM     45  HD  NAG B   3      18.281  -1.314  15.0730  0.00  0.00     0.000 HD
BRANCH 35 47
ATOM     45   N  NAG B   3      12.327  -1.918  15.9590  0.00  0.00     0.000 N
ATOM     47  HD  NAG B   3      12.993  -1.508  16.3320  0.00  0.00     0.000 HD
ATOM     47   C  NAG B   3      11.025  -1.903  15.7530  0.00  0.00     0.000 C
ATOM     48   C  NAG B   3      10.173  -2.440  16.8640  0.00  0.00     0.000 C
ATOM     49   O  NAG B   3      10.535  -1.450  14.7210  0.00  0.00     0.000 OA
ENDBRANCH 35 47
BRANCH 34 50
ATOM     50  O4  BDP B   4      13.880  -3.624  14.7090  0.00  0.00     0.000 O
BRANCH 50 54
ATOM     51  C1  BDP B   4      12.712  -7.288  13.3800  0.00  0.00     0.000 C
ATOM     52  C2  BDP B   4      14.122  -7.246  13.9570  0.00  0.00     0.000 C
ATOM     53  C3  BDP B   4      14.284  -5.975  14.7340  0.00  0.00     0.000 C
ATOM     54  C4  BDP B   4      13.941  -4.758  13.8270  0.00  0.00     0.000 C
ATOM     55  C5  BDP B   4      12.609  -4.929  13.1080  0.00  0.00     0.000 C
ATOM     56  O5  BDP B   4      12.542  -6.207  12.4820  0.00  0.00     0.000 O
ATOM     57   O  BDP B   4      14.334  -8.347  14.8140  0.00  0.00     0.000 O
ATOM     59  HD  BDP B   4      14.817  -8.896  14.3490  0.00  0.00     0.000 HD
ATOM     59   O  BDP B   4      15.677  -5.880  15.0970  0.00  0.00     0.000 O
ATOM     61  HD  BDP B   4      16.160  -6.428  14.6320  0.00  0.00     0.000 HD
BRANCH 55 61
ATOM     61   C  BDP B   4      12.467  -3.847  12.0530  0.00  0.00     0.000 C
ATOM     62   O  BDP B   4      13.257  -3.871  11.0730  0.00  0.00     0.000 OA
ATOM     63   O  BDP B   4      11.561  -2.973  12.2060  0.00  0.00     0.000 OA
ENDBRANCH 55 61
BRANCH 51 64
ATOM     64  O3  NAG B   5      12.568  -8.548  12.6960  0.00  0.00     0.000 O
BRANCH 64 67
ATOM     65  C1  NAG B   5       9.365 -10.352  12.9750  0.00  0.00     0.000 C
ATOM     66  C2  NAG B   5      10.722  -9.810  13.3880  0.00  0.00     0.000 C
ATOM     67  C3  NAG B   5      11.227  -8.825  12.3420  0.00  0.00     0.000 C
ATOM     68  C4  NAG B   5      11.187  -9.443  10.9380  0.00  0.00     0.000 C
ATOM     69  C5  NAG B   5       9.818 -10.040  10.6520  0.00  0.00     0.000 C
ATOM     70  O5  NAG B   5       9.452 -10.948  11.7010  0.00  0.00     0.000 O
ATOM     71   O  NAG B   5      11.517  -8.446   9.9950  0.00  0.00     0.000 O
ATOM     73  HD  NAG B   5      11.977  -9.094   9.6500  0.00  0.00     0.000 HD
ATOM     73   C  NAG B   5       9.723 -10.793   9.3180  0.00  0.00     0.000 C
ATOM     74   O  NAG B   5      10.599 -11.939   9.3460  0.00  0.00     0.000 O
ATOM     76  HD  NAG B   5      11.058 -12.588   9.0010  0.00  0.00     0.000 HD
BRANCH 66 78
ATOM     76   N  NAG B   5      11.237 -10.217  14.7100  0.00  0.00     0.000 N
ATOM     78  HD  NAG B   5      10.988  -9.484  14.3210  0.00  0.00     0.000 HD
ATOM     78   C  NAG B   5      11.265  -9.455  15.8150  0.00  0.00     0.000 C
ATOM     79   C  NAG B   5      11.833 -10.160  17.0160  0.00  0.00     0.000 C
ATOM     80   O  NAG B   5      10.855  -8.239  15.8410  0.00  0.00     0.000 OA
ENDBRANCH 66 78
BRANCH 65 81
ATOM     81  O4  BDP B   6       8.906 -11.315  13.9330  0.00  0.00     0.000 O
BRANCH 81 85
ATOM     82  C1  BDP B   6       5.300 -12.406  15.9750  0.00  0.00     0.000 C
ATOM     83  C2  BDP B   6       5.546 -13.020  14.6000  0.00  0.00     0.000 C
ATOM     84  C3  BDP B   6       7.003 -12.902  14.1470  0.00  0.00     0.000 C
ATOM     85  C4  BDP B   6       7.522 -11.467  14.2560  0.00  0.00     0.000 C
ATOM     86  C5  BDP B   6       7.185 -10.946  15.6730  0.00  0.00     0.000 C
ATOM     87  O5  BDP B   6       5.757 -11.061  15.9720  0.00  0.00     0.000 O
ATOM     88   O  BDP B   6       5.196 -14.396  14.7300  0.00  0.00     0.000 O
ATOM     90  HD  BDP B   6       5.476 -15.180  14.4920  0.00  0.00     0.000 HD
ATOM     90   O  BDP B   6       7.132 -13.393  12.8100  0.00  0.00     0.000 O
ATOM     92  HD  BDP B   6       7.411 -14.178  12.5730  0.00  0.00     0.000 HD
BRANCH 86 92
ATOM     92   C  BDP B   6       7.454  -9.464  15.7700  0.00  0.00     0.000 C
ATOM     93   O  BDP B   6       7.144  -8.708  14.8000  0.00  0.00     0.000 OA
ATOM     94   O  BDP B   6       7.968  -9.031  16.8480  0.00  0.00     0.000 OA
ENDBRANCH 86 92
BRANCH 82 95
ATOM     95  O3  NAG B   7       3.880 -12.390  16.2180  0.00  0.00     0.000 O
BRANCH 95 98
ATOM     96  C1  NAG B   7       1.402 -13.115  18.8020  0.00  0.00     0.000 C
ATOM     97  C2  NAG B   7       1.904 -12.844  17.3890  0.00  0.00     0.000 C
ATOM     98  C3  NAG B   7       3.400 -12.582  17.5480  0.00  0.00     0.000 C
ATOM     99  C4  NAG B   7       3.622 -11.379  18.4610  0.00  0.00     0.000 C
ATOM    100  C5  NAG B   7       2.898 -11.564  19.7950  0.00  0.00     0.000 C
ATOM    101  O5  NAG B   7       1.542 -11.896  19.5400  0.00  0.00     0.000 O
BRANCH 97 104
ATOM    102   N  NAG B   7       1.622 -13.405  16.0610  0.00  0.00     0.000 N
ATOM    104  HD  NAG B   7       1.234 -13.596  15.3100  0.00  0.00     0.000 HD
ATOM    104   O  NAG B   7       1.224 -15.024  14.5280  0.00  0.00     0.000 OA
ATOM    105   C  NAG B   7       1.532 -14.696  15.6910  0.00  0.00     0.000 C
ATOM    106   C  NAG B   7       1.791 -15.760  16.7020  0.00  0.00     0.000 C
ENDBRANCH 97 104
ATOM    107   O  NAG B   7       2.606 -10.643  21.9320  0.00  0.00     0.000 O
ATOM    109  HD  NAG B   7       2.692 -11.379  21.4840  0.00  0.00     0.000 HD
ATOM    109   O  NAG B   7       2.606 -10.643  21.9320  0.00  0.00     0.000 O
ATOM    111  HD  NAG B   7       2.692 -11.379  21.4840  0.00  0.00     0.000 HD
ENDBRANCH 95 98
ENDBRANCH 82 95
ENDBRANCH 81 85
ENDBRANCH 65 81
ENDBRANCH 64 67
ENDBRANCH 51 64
ENDBRANCH 50 54
ENDBRANCH 34 50
ENDBRANCH 33 36
ENDBRANCH 20 33
ENDBRANCH 19 23
ENDBRANCH 1 19
TORSDOF 19
ENDMDL
MODEL 6
REMARK VINA RESULT:      -8.6      3.924      5.950
ROOT
ATOM      1  C1  NAG B   1       5.811 -10.100  20.1570  0.00  0.00     0.000 C
ATOM      2  C2  NAG B   1       4.986  -8.958  20.7440  0.00  0.00     0.000 C
ATOM      3  C3  NAG B   1       4.331  -9.350  22.0540  0.00  0.00     0.000 C
ATOM      4  C4  NAG B   1       3.482 -10.576  21.7350  0.00  0.00     0.000 C
ATOM      5  C5  NAG B   1       4.399 -11.718  21.2780  0.00  0.00     0.000 C
ATOM      6  O5  NAG B   1       5.122 -11.358  20.0810  0.00  0.00     0.000 O
ATOM      7   O  NAG B   1       3.517  -8.285  22.5960  0.00  0.00     0.000 O
ATOM      9  HD  NAG B   1       4.168  -7.851  22.2250  0.00  0.00     0.000 HD
ATOM      9   O  NAG B   1       2.752 -10.976  22.8820  0.00  0.00     0.000 O
ATOM     11  HD  NAG B   1       3.403 -10.542  22.5110  0.00  0.00     0.000 HD
ATOM     11   C  NAG B   1       3.581 -13.000  21.0840  0.00  0.00     0.000 C
ATOM     12   O  NAG B   1       4.168 -13.844  20.0940  0.00  0.00     0.000 O
ATOM     14  HD  NAG B   1       4.819 -13.410  19.7230  0.00  0.00     0.000 HD
ENDROOT
BRANCH 2 16
ATOM     14   N  NAG B   1       4.868  -7.721  19.9520  0.00  0.00     0.000 N
ATOM     16  HD  NAG B   1       4.521  -6.927  19.9600  0.00  0.00     0.000 HD
ATOM     16   C  NAG B   1       5.613  -6.626  20.1830  0.00  0.00     0.000 C
ATOM     17   C  NAG B   1       6.607  -6.619  21.3140  0.00  0.00     0.000 C
ATOM     18   O  NAG B   1       5.521  -5.629  19.4680  0.00  0.00     0.000 OA
ENDBRANCH 2 16
BRANCH 1 19
ATOM     19  O4  BDP B   2       6.023  -9.688  18.8140  0.00  0.00     0.000 O
BRANCH 19 23
ATOM     20  C1  BDP B   2       7.822 -11.330  15.4950  0.00  0.00     0.000 C
ATOM     21  C2  BDP B   2       6.418 -11.807  15.8050  0.00  0.00     0.000 C
ATOM     22  C3  BDP B   2       5.716 -10.863  16.7540  0.00  0.00     0.000 C
ATOM     23  C4  BDP B   2       6.598 -10.670  17.9850  0.00  0.00     0.000 C
ATOM     24  C5  BDP B   2       7.966 -10.182  17.5530  0.00  0.00     0.000 C
ATOM     25  O5  BDP B   2       8.560 -11.137  16.6940  0.00  0.00     0.000 O
ATOM     26   O  BDP B   2       5.669 -11.930  14.6150  0.00  0.00     0.000 O
ATOM     28  HD  BDP B   2       6.465 -11.824  14.2900  0.00  0.00     0.000 HD
ATOM     28   O  BDP B   2       4.428 -11.403  17.0920  0.00  0.00     0.000 O
ATOM     30  HD  BDP B   2       5.224 -11.297  16.7670  0.00  0.00     0.000 HD
BRANCH 24 30
ATOM     30   C  BDP B   2       8.882  -9.984  18.7070  0.00  0.00     0.000 C
ATOM     31   O  BDP B   2       8.960  -8.830  19.1870  0.00  0.00     0.000 OA
ATOM     32   O  BDP B   2       9.535 -10.979  19.1340  0.00  0.00     0.000 OA
ENDBRANCH 24 30
BRANCH 20 33
ATOM     33  O3  NAG B   3       8.390 -12.392  14.7680  0.00  0.00     0.000 O
BRANCH 33 36
ATOM     34  C1  NAG B   3      10.819 -11.878  11.9420  0.00  0.00     0.000 C
ATOM     35  C2  NAG B   3       9.480 -12.063  12.6310  0.00  0.00     0.000 C
ATOM     36  C3  NAG B   3       9.628 -12.014  14.1600  0.00  0.00     0.000 C
ATOM     37  C4  NAG B   3      10.712 -12.997  14.5950  0.00  0.00     0.000 C
ATOM     38  C5  NAG B   3      11.983 -12.778  13.7790  0.00  0.00     0.000 C
ATOM     39  O5  NAG B   3      11.697 -12.897  12.3960  0.00  0.00     0.000 O
ATOM     40   O  NAG B   3      11.003 -12.822  15.9900  0.00  0.00     0.000 O
ATOM     42  HD  NAG B   3      11.809 -12.736  15.6840  0.00  0.00     0.000 HD
ATOM     42   C  NAG B   3      13.079 -13.803  14.0570  0.00  0.00     0.000 C
ATOM     43   O  NAG B   3      12.645 -15.098  13.6240  0.00  0.00     0.000 O
ATOM     45  HD  NAG B   3      13.450 -15.012  13.3180  0.00  0.00     0.000 HD
BRANCH 35 47
ATOM     45   N  NAG B   3       8.228 -12.291  11.9220  0.00  0.00     0.000 N
ATOM     47  HD  NAG B   3       8.475 -12.975  12.3920  0.00  0.00     0.000 HD
ATOM     47   C  NAG B   3       7.311 -11.357  11.7670  0.00  0.00     0.000 C
ATOM     48   C  NAG B   3       6.071 -11.765  11.0280  0.00  0.00     0.000 C
ATOM     49   O  NAG B   3       7.450 -10.225  12.2260  0.00  0.00     0.000 OA
ENDBRANCH 35 47
BRANCH 34 50
ATOM     50  O4  BDP B   4      10.518 -12.061  10.5740  0.00  0.00     0.000 O
BRANCH 50 54
ATOM     51  C1  BDP B   4      11.510 -10.974   6.7810  0.00  0.00     0.000 C
ATOM     52  C2  BDP B   4      12.596 -11.747   7.5220  0.00  0.00     0.000 C
ATOM     53  C3  BDP B   4      11.986 -12.398   8.7250  0.00  0.00     0.000 C
ATOM     54  C4  BDP B   4      11.273 -11.325   9.5980  0.00  0.00     0.000 C
ATOM     55  C5  BDP B   4      10.342 -10.439   8.7810  0.00  0.00     0.000 C
ATOM     56  O5  BDP B   4      11.010  -9.950   7.6210  0.00  0.00     0.000 O
ATOM     57   O  BDP B   4      13.150 -12.739   6.6840  0.00  0.00     0.000 O
ATOM     59  HD  BDP B   4      13.912 -12.412   6.4330  0.00  0.00     0.000 HD
ATOM     59   O  BDP B   4      13.070 -12.951   9.4980  0.00  0.00     0.000 O
ATOM     61  HD  BDP B   4      13.832 -12.625   9.2470  0.00  0.00     0.000 HD
BRANCH 55 61
ATOM     61   C  BDP B   4       9.895  -9.264   9.6320  0.00  0.00     0.000 C
ATOM     62   O  BDP B   4       8.717  -8.843   9.4850  0.00  0.00     0.000 OA
ATOM     63   O  BDP B   4      10.725  -8.764  10.4510  0.00  0.00     0.000 OA
ENDBRANCH 55 61
BRANCH 51 64
ATOM     64  O3  NAG B   5      12.115 -10.416   5.5990  0.00  0.00     0.000 O
BRANCH 64 67
ATOM     65  C1  NAG B   5      10.144  -9.801   2.5440  0.00  0.00     0.000 C
ATOM     66  C2  NAG B   5      10.946 -10.574   3.5770  0.00  0.00     0.000 C
ATOM     67  C3  NAG B   5      11.191  -9.701   4.8010  0.00  0.00     0.000 C
ATOM     68  C4  NAG B   5      11.799  -8.349   4.4020  0.00  0.00     0.000 C
ATOM     69  C5  NAG B   5      10.980  -7.696   3.3000  0.00  0.00     0.000 C
ATOM     70  O5  NAG B   5      10.817  -8.610   2.2050  0.00  0.00     0.000 O
ATOM     71   O  NAG B   5      11.863  -7.527   5.5480  0.00  0.00     0.000 O
ATOM     73  HD  NAG B   5      12.639  -7.333   5.2170  0.00  0.00     0.000 HD
ATOM     73   C  NAG B   5      11.585  -6.398   2.7480  0.00  0.00     0.000 C
ATOM     74   O  NAG B   5      12.849  -6.685   2.1140  0.00  0.00     0.000 O
ATOM     76  HD  NAG B   5      13.625  -6.490   1.7830  0.00  0.00     0.000 HD
BRANCH 66 78
ATOM     76   N  NAG B   5      10.203 -11.783   3.9800  0.00  0.00     0.000 N
ATOM     78  HD  NAG B   5      10.909 -11.594   3.5150  0.00  0.00     0.000 HD
ATOM     78   C  NAG B   5      10.625 -13.050   3.8430  0.00  0.00     0.000 C
ATOM     79   C  NAG B   5       9.648 -14.068   4.3670  0.00  0.00     0.000 C
ATOM     80   O  NAG B   5      11.748 -13.364   3.3080  0.00  0.00     0.000 OA
ENDBRANCH 66 78
BRANCH 65 81
ATOM     81  O4  BDP B   6       9.951 -10.602   1.3710  0.00  0.00     0.000 O
BRANCH 81 85
ATOM     82  C1  BDP B   6       7.040 -11.105  -1.7340  0.00  0.00     0.000 C
ATOM     83  C2  BDP B   6       7.237  -9.700  -1.1730  0.00  0.00     0.000 C
ATOM     84  C3  BDP B   6       8.544  -9.549  -0.3900  0.00  0.00     0.000 C
ATOM     85  C4  BDP B   6       8.704 -10.639   0.6720  0.00  0.00     0.000 C
ATOM     86  C5  BDP B   6       8.448 -12.006  -0.0060  0.00  0.00     0.000 C
ATOM     87  O5  BDP B   6       7.147 -12.047  -0.6760  0.00  0.00     0.000 O
ATOM     88   O  BDP B   6       7.258  -8.837  -2.3070  0.00  0.00     0.000 O
ATOM     90  HD  BDP B   6       7.686  -8.150  -2.6150  0.00  0.00     0.000 HD
ATOM     90   O  BDP B   6       8.604  -8.247   0.1980  0.00  0.00     0.000 O
ATOM     92  HD  BDP B   6       9.032  -7.560  -0.1100  0.00  0.00     0.000 HD
BRANCH 86 92
ATOM     92   C  BDP B   6       8.356 -13.101   1.0280  0.00  0.00     0.000 C
ATOM     93   O  BDP B   6       9.138 -14.096   0.9540  0.00  0.00     0.000 OA
ATOM     94   O  BDP B   6       7.498 -12.962   1.9540  0.00  0.00     0.000 OA
ENDBRANCH 86 92
BRANCH 82 95
ATOM     95  O3  NAG B   7       5.706 -11.195  -2.2730  0.00  0.00     0.000 O
BRANCH 95 98
ATOM     96  C1  NAG B   7       4.160 -12.377  -5.3640  0.00  0.00     0.000 C
ATOM     97  C2  NAG B   7       4.390 -11.427  -4.1960  0.00  0.00     0.000 C
ATOM     98  C3  NAG B   7       5.446 -12.114  -3.3330  0.00  0.00     0.000 C
ATOM     99  C4  NAG B   7       4.926 -13.469  -2.8570  0.00  0.00     0.000 C
ATOM    100  C5  NAG B   7       4.465 -14.322  -4.0400  0.00  0.00     0.000 C
ATOM    101  O5  NAG B   7       3.562 -13.564  -4.8300  0.00  0.00     0.000 O
BRANCH 97 104
ATOM    102   N  NAG B   7       4.921 -10.113  -4.5840  0.00  0.00     0.000 N
ATOM    104  HD  NAG B   7       5.451  -9.439  -4.7020  0.00  0.00     0.000 HD
ATOM    104   O  NAG B   7       5.095  -7.855  -4.5770  0.00  0.00     0.000 OA
ATOM    105   C  NAG B   7       4.503  -8.889  -4.2090  0.00  0.00     0.000 C
ATOM    106   C  NAG B   7       3.313  -8.770  -3.3200  0.00  0.00     0.000 C
ENDBRANCH 97 104
ATOM    107   O  NAG B   7       3.709 -16.458  -4.6500  0.00  0.00     0.000 O
ATOM    109  HD  NAG B   7       4.207 -15.789  -4.8840  0.00  0.00     0.000 HD
ATOM    109   O  NAG B   7       3.709 -16.458  -4.6500  0.00  0.00     0.000 O
ATOM    111  HD  NAG B   7       4.207 -15.789  -4.8840  0.00  0.00     0.000 HD
ENDBRANCH 95 98
ENDBRANCH 82 95
ENDBRANCH 81 85
ENDBRANCH 65 81
ENDBRANCH 64 67
ENDBRANCH 51 64
ENDBRANCH 50 54
ENDBRANCH 34 50
ENDBRANCH 33 36
ENDBRANCH 20 33
ENDBRANCH 19 23
ENDBRANCH 1 19
TORSDOF 19
ENDMDL
MODEL 7
REMARK VINA RESULT:      -8.5     11.971     20.853
ROOT
ATOM      1  C1  NAG B   1      20.852  -3.179  -4.5590  0.00  0.00     0.000 C
ATOM      2  C2  NAG B   1      20.926  -3.196  -6.0830  0.00  0.00     0.000 C
ATOM      3  C3  NAG B   1      21.711  -2.018  -6.6220  0.00  0.00     0.000 C
ATOM      4  C4  NAG B   1      21.003  -0.777  -6.0880  0.00  0.00     0.000 C
ATOM      5  C5  NAG B   1      21.088  -0.769  -4.5570  0.00  0.00     0.000 C
ATOM      6  O5  NAG B   1      20.435  -1.927  -3.9930  0.00  0.00     0.000 O
ATOM      7   O  NAG B   1      21.753  -2.006  -8.0670  0.00  0.00     0.000 O
ATOM      9  HD  NAG B   1      21.770  -2.853  -7.8870  0.00  0.00     0.000 HD
ATOM      9   O  NAG B   1      21.611   0.393  -6.6090  0.00  0.00     0.000 O
ATOM     11  HD  NAG B   1      21.628  -0.454  -6.4290  0.00  0.00     0.000 HD
ATOM     11   C  NAG B   1      20.503   0.537  -4.0070  0.00  0.00     0.000 C
ATOM     12   O  NAG B   1      19.960   0.352  -2.7010  0.00  0.00     0.000 O
ATOM     14  HD  NAG B   1      19.976  -0.495  -2.5200  0.00  0.00     0.000 HD
ENDROOT
BRANCH 2 16
ATOM     14   N  NAG B   1      21.447  -4.516  -6.4810  0.00  0.00     0.000 N
ATOM     16  HD  NAG B   1      21.399  -5.361  -6.2960  0.00  0.00     0.000 HD
ATOM     16   C  NAG B   1      20.763  -5.373  -7.2580  0.00  0.00     0.000 C
ATOM     17   C  NAG B   1      19.384  -5.010  -7.7420  0.00  0.00     0.000 C
ATOM     18   O  NAG B   1      21.252  -6.446  -7.6110  0.00  0.00     0.000 OA
ENDBRANCH 2 16
BRANCH 1 19
ATOM     19  O4  BDP B   2      19.809  -4.103  -4.2750  0.00  0.00     0.000 O
BRANCH 19 23
ATOM     20  C1  BDP B   2      16.133  -3.938  -2.4320  0.00  0.00     0.000 C
ATOM     21  C2  BDP B   2      16.289  -3.118  -3.6960  0.00  0.00     0.000 C
ATOM     22  C3  BDP B   2      17.489  -3.570  -4.4970  0.00  0.00     0.000 C
ATOM     23  C4  BDP B   2      18.713  -3.554  -3.5840  0.00  0.00     0.000 C
ATOM     24  C5  BDP B   2      18.443  -4.414  -2.3650  0.00  0.00     0.000 C
ATOM     25  O5  BDP B   2      17.326  -3.903  -1.6630  0.00  0.00     0.000 O
ATOM     26   O  BDP B   2      15.125  -3.213  -4.4880  0.00  0.00     0.000 O
ATOM     28  HD  BDP B   2      14.843  -3.569  -3.7510  0.00  0.00     0.000 HD
ATOM     28   O  BDP B   2      17.652  -2.706  -5.6330  0.00  0.00     0.000 O
ATOM     30  HD  BDP B   2      17.370  -3.062  -4.8960  0.00  0.00     0.000 HD
BRANCH 24 30
ATOM     30   C  BDP B   2      19.595  -4.433  -1.4260  0.00  0.00     0.000 C
ATOM     31   O  BDP B   2      20.064  -3.327  -1.0690  0.00  0.00     0.000 OA
ATOM     32   O  BDP B   2      20.042  -5.552  -1.0450  0.00  0.00     0.000 OA
ENDBRANCH 24 30
BRANCH 20 33
ATOM     33  O3  NAG B   3      15.108  -3.282  -1.7260  0.00  0.00     0.000 O
BRANCH 33 36
ATOM     34  C1  NAG B   3      12.841  -5.439   0.3620  0.00  0.00     0.000 C
ATOM     35  C2  NAG B   3      13.426  -4.808  -0.8870  0.00  0.00     0.000 C
ATOM     36  C3  NAG B   3      14.706  -4.020  -0.5690  0.00  0.00     0.000 C
ATOM     37  C4  NAG B   3      14.428  -3.042   0.5700  0.00  0.00     0.000 C
ATOM     38  C5  NAG B   3      13.764  -3.766   1.7380  0.00  0.00     0.000 C
ATOM     39  O5  NAG B   3      12.577  -4.405   1.3000  0.00  0.00     0.000 O
ATOM     40   O  NAG B   3      15.655  -2.444   1.0140  0.00  0.00     0.000 O
ATOM     42  HD  NAG B   3      15.380  -2.742   1.7790  0.00  0.00     0.000 HD
ATOM     42   C  NAG B   3      13.331  -2.840   2.8720  0.00  0.00     0.000 C
ATOM     43   O  NAG B   3      12.293  -1.967   2.4080  0.00  0.00     0.000 O
ATOM     45  HD  NAG B   3      12.018  -2.265   3.1730  0.00  0.00     0.000 HD
BRANCH 35 47
ATOM     45   N  NAG B   3      13.626  -5.854  -1.8830  0.00  0.00     0.000 N
ATOM     47  HD  NAG B   3      13.383  -6.168  -1.1130  0.00  0.00     0.000 HD
ATOM     47   C  NAG B   3      13.289  -5.712  -3.1490  0.00  0.00     0.000 C
ATOM     48   C  NAG B   3      13.544  -6.893  -4.0370  0.00  0.00     0.000 C
ATOM     49   O  NAG B   3      12.772  -4.681  -3.5740  0.00  0.00     0.000 OA
ENDBRANCH 35 47
BRANCH 34 50
ATOM     50  O4  BDP B   4      11.633  -6.015  -0.0880  0.00  0.00     0.000 O
BRANCH 50 54
ATOM     51  C1  BDP B   4       8.975  -9.016   0.6010  0.00  0.00     0.000 C
ATOM     52  C2  BDP B   4       8.721  -7.750   1.4100  0.00  0.00     0.000 C
ATOM     53  C3  BDP B   4       9.509  -6.628   0.8050  0.00  0.00     0.000 C
ATOM     54  C4  BDP B   4      11.010  -7.028   0.7190  0.00  0.00     0.000 C
ATOM     55  C5  BDP B   4      11.210  -8.396   0.0810  0.00  0.00     0.000 C
ATOM     56  O5  BDP B   4      10.347  -9.357   0.6830  0.00  0.00     0.000 O
ATOM     57   O  BDP B   4       7.348  -7.421   1.3890  0.00  0.00     0.000 O
ATOM     59  HD  BDP B   4       7.053  -7.669   2.1640  0.00  0.00     0.000 HD
ATOM     59   O  BDP B   4       9.398  -5.505   1.7030  0.00  0.00     0.000 O
ATOM     61  HD  BDP B   4       9.103  -5.753   2.4790  0.00  0.00     0.000 HD
BRANCH 55 61
ATOM     61   C  BDP B   4      12.651  -8.832   0.2720  0.00  0.00     0.000 C
ATOM     62   O  BDP B   4      12.998  -9.248   1.4090  0.00  0.00     0.000 OA
ATOM     63   O  BDP B   4      13.437  -8.758  -0.7220  0.00  0.00     0.000 OA
ENDBRANCH 55 61
BRANCH 51 64
ATOM     64  O3  NAG B   5       8.155 -10.057   1.1680  0.00  0.00     0.000 O
BRANCH 64 67
ATOM     65  C1  NAG B   5       6.483 -12.575  -0.9430  0.00  0.00     0.000 C
ATOM     66  C2  NAG B   5       6.714 -11.249  -0.2390  0.00  0.00     0.000 C
ATOM     67  C3  NAG B   5       8.113 -11.217   0.3610  0.00  0.00     0.000 C
ATOM     68  C4  NAG B   5       8.367 -12.455   1.2330  0.00  0.00     0.000 C
ATOM     69  C5  NAG B   5       8.021 -13.726   0.4750  0.00  0.00     0.000 C
ATOM     70  O5  NAG B   5       6.685 -13.639  -0.0410  0.00  0.00     0.000 O
ATOM     71   O  NAG B   5       9.720 -12.453   1.6370  0.00  0.00     0.000 O
ATOM     73  HD  NAG B   5       9.369 -12.693   2.3920  0.00  0.00     0.000 HD
ATOM     73   C  NAG B   5       8.123 -15.009   1.3120  0.00  0.00     0.000 C
ATOM     74   O  NAG B   5       7.152 -14.969   2.3790  0.00  0.00     0.000 O
ATOM     76  HD  NAG B   5       6.801 -15.210   3.1330  0.00  0.00     0.000 HD
BRANCH 66 78
ATOM     76   N  NAG B   5       5.649 -10.234  -0.3530  0.00  0.00     0.000 N
ATOM     78  HD  NAG B   5       6.475 -10.321  -0.5980  0.00  0.00     0.000 HD
ATOM     78   C  NAG B   5       5.681  -9.140  -1.1310  0.00  0.00     0.000 C
ATOM     79   C  NAG B   5       4.432  -8.305  -1.0440  0.00  0.00     0.000 C
ATOM     80   O  NAG B   5       6.683  -8.832  -1.8700  0.00  0.00     0.000 OA
ENDBRANCH 66 78
BRANCH 65 81
ATOM     81  O4  BDP B   6       5.151 -12.628  -1.4700  0.00  0.00     0.000 O
BRANCH 81 85
ATOM     82  C1  BDP B   6       3.021 -14.479  -4.6950  0.00  0.00     0.000 C
ATOM     83  C2  BDP B   6       4.115 -15.295  -4.0120  0.00  0.00     0.000 C
ATOM     84  C3  BDP B   6       4.520 -14.725  -2.6500  0.00  0.00     0.000 C
ATOM     85  C4  BDP B   6       4.855 -13.235  -2.7300  0.00  0.00     0.000 C
ATOM     86  C5  BDP B   6       3.695 -12.525  -3.4690  0.00  0.00     0.000 C
ATOM     87  O5  BDP B   6       3.435 -13.123  -4.7790  0.00  0.00     0.000 O
ATOM     88   O  BDP B   6       3.565 -16.599  -3.8390  0.00  0.00     0.000 O
ATOM     90  HD  BDP B   6       3.526 -17.234  -3.2520  0.00  0.00     0.000 HD
ATOM     90   O  BDP B   6       5.622 -15.471  -2.1260  0.00  0.00     0.000 O
ATOM     92  HD  BDP B   6       5.583 -16.106  -1.5390  0.00  0.00     0.000 HD
BRANCH 86 92
ATOM     92   C  BDP B   6       4.068 -11.098  -3.7920  0.00  0.00     0.000 C
ATOM     93   O  BDP B   6       5.238 -10.837  -4.2050  0.00  0.00     0.000 OA
ATOM     94   O  BDP B   6       3.168 -10.212  -3.6550  0.00  0.00     0.000 OA
ENDBRANCH 86 92
BRANCH 82 95
ATOM     95  O3  NAG B   7       2.855 -14.976  -6.0370  0.00  0.00     0.000 O
BRANCH 95 98
ATOM     96  C1  NAG B   7       0.144 -16.386  -8.0370  0.00  0.00     0.000 C
ATOM     97  C2  NAG B   7       1.561 -16.279  -7.4900  0.00  0.00     0.000 C
ATOM     98  C3  NAG B   7       1.545 -15.039  -6.5990  0.00  0.00     0.000 C
ATOM     99  C4  NAG B   7       1.172 -13.811  -7.4260  0.00  0.00     0.000 C
ATOM    100  C5  NAG B   7      -0.145 -14.034  -8.1710  0.00  0.00     0.000 C
ATOM    101  O5  NAG B   7      -0.064 -15.255  -8.8910  0.00  0.00     0.000 O
BRANCH 97 104
ATOM    102   N  NAG B   7       2.030 -17.341  -6.5900  0.00  0.00     0.000 N
ATOM    104  HD  NAG B   7       2.350 -17.760  -5.9030  0.00  0.00     0.000 HD
ATOM    104   O  NAG B   7       3.347 -19.048  -5.8940  0.00  0.00     0.000 OA
ATOM    105   C  NAG B   7       3.019 -18.235  -6.7800  0.00  0.00     0.000 C
ATOM    106   C  NAG B   7       3.749 -18.241  -8.0800  0.00  0.00     0.000 C
ENDBRANCH 97 104
ATOM    107   O  NAG B   7      -1.767 -12.984  -9.5020  0.00  0.00     0.000 O
ATOM    109  HD  NAG B   7      -1.635 -13.551  -8.8610  0.00  0.00     0.000 HD
ATOM    109   O  NAG B   7      -1.767 -12.984  -9.5020  0.00  0.00     0.000 O
ATOM    111  HD  NAG B   7      -1.635 -13.551  -8.8610  0.00  0.00     0.000 HD
ENDBRANCH 95 98
ENDBRANCH 82 95
ENDBRANCH 81 85
ENDBRANCH 65 81
ENDBRANCH 64 67
ENDBRANCH 51 64
ENDBRANCH 50 54
ENDBRANCH 34 50
ENDBRANCH 33 36
ENDBRANCH 20 33
ENDBRANCH 19 23
ENDBRANCH 1 19
TORSDOF 19
ENDMDL
MODEL 8
REMARK VINA RESULT:      -8.4     12.937     19.300
ROOT
ATOM      1  C1  NAG B   1      -3.172 -15.502 -10.6970  0.00  0.00     0.000 C
ATOM      2  C2  NAG B   1      -3.731 -14.356 -11.5360  0.00  0.00     0.000 C
ATOM      3  C3  NAG B   1      -4.234 -14.835 -12.8820  0.00  0.00     0.000 C
ATOM      4  C4  NAG B   1      -3.040 -15.514 -13.5460  0.00  0.00     0.000 C
ATOM      5  C5  NAG B   1      -2.625 -16.731 -12.7100  0.00  0.00     0.000 C
ATOM      6  O5  NAG B   1      -2.225 -16.338 -11.3800  0.00  0.00     0.000 O
ATOM      7   O  NAG B   1      -4.729 -13.749 -13.6980  0.00  0.00     0.000 O
ATOM      9  HD  NAG B   1      -4.953 -13.500 -12.8990  0.00  0.00     0.000 HD
ATOM      9   O  NAG B   1      -3.382 -15.927 -14.8590  0.00  0.00     0.000 O
ATOM     11  HD  NAG B   1      -3.605 -15.677 -14.0600  0.00  0.00     0.000 HD
ATOM     11   C  NAG B   1      -1.515 -17.507 -13.4310  0.00  0.00     0.000 C
ATOM     12   O  NAG B   1      -0.671 -18.186 -12.5020  0.00  0.00     0.000 O
ATOM     14  HD  NAG B   1      -0.895 -17.936 -11.7040  0.00  0.00     0.000 HD
ENDROOT
BRANCH 2 16
ATOM     14   N  NAG B   1      -3.622 -12.997 -10.9760  0.00  0.00     0.000 N
ATOM     16  HD  NAG B   1      -3.805 -12.167 -11.1410  0.00  0.00     0.000 HD
ATOM     16   C  NAG B   1      -4.644 -12.366 -10.3740  0.00  0.00     0.000 C
ATOM     17   C  NAG B   1      -5.987 -13.039 -10.2720  0.00  0.00     0.000 C
ATOM     18   O  NAG B   1      -4.501 -11.250  -9.8750  0.00  0.00     0.000 OA
ENDBRANCH 2 16
BRANCH 1 19
ATOM     19  O4  BDP B   2      -2.440 -14.832  -9.6790  0.00  0.00     0.000 O
BRANCH 19 23
ATOM     20  C1  BDP B   2       1.268 -15.251  -7.9420  0.00  0.00     0.000 C
ATOM     21  C2  BDP B   2       1.247 -14.759  -9.3750  0.00  0.00     0.000 C
ATOM     22  C3  BDP B   2      -0.123 -14.249  -9.7600  0.00  0.00     0.000 C
ATOM     23  C4  BDP B   2      -1.147 -15.340  -9.4570  0.00  0.00     0.000 C
ATOM     24  C5  BDP B   2      -1.040 -15.741  -7.9990  0.00  0.00     0.000 C
ATOM     25  O5  BDP B   2       0.260 -16.232  -7.7360  0.00  0.00     0.000 O
ATOM     26   O  BDP B   2       2.203 -13.737  -9.5550  0.00  0.00     0.000 O
ATOM     28  HD  BDP B   2       2.435 -14.033  -8.7750  0.00  0.00     0.000 HD
ATOM     28   O  BDP B   2      -0.119 -13.883 -11.1480  0.00  0.00     0.000 O
ATOM     30  HD  BDP B   2       0.112 -14.179 -10.3680  0.00  0.00     0.000 HD
BRANCH 24 30
ATOM     30   C  BDP B   2      -2.006 -16.812  -7.6390  0.00  0.00     0.000 C
ATOM     31   O  BDP B   2      -1.945 -17.883  -8.2870  0.00  0.00     0.000 OA
ATOM     32   O  BDP B   2      -2.837 -16.587  -6.7130  0.00  0.00     0.000 OA
ENDBRANCH 24 30
BRANCH 20 33
ATOM     33  O3  NAG B   3       2.532 -15.852  -7.8070  0.00  0.00     0.000 O
BRANCH 33 36
ATOM     34  C1  NAG B   3       4.471 -15.507  -4.6020  0.00  0.00     0.000 C
ATOM     35  C2  NAG B   3       3.948 -15.138  -5.9770  0.00  0.00     0.000 C
ATOM     36  C3  NAG B   3       2.851 -16.111  -6.4370  0.00  0.00     0.000 C
ATOM     37  C4  NAG B   3       3.361 -17.544  -6.3110  0.00  0.00     0.000 C
ATOM     38  C5  NAG B   3       3.941 -17.779  -4.9180  0.00  0.00     0.000 C
ATOM     39  O5  NAG B   3       4.967 -16.837  -4.6570  0.00  0.00     0.000 O
ATOM     40   O  NAG B   3       2.288 -18.470  -6.5440  0.00  0.00     0.000 O
ATOM     42  HD  NAG B   3       2.543 -18.769  -5.7720  0.00  0.00     0.000 HD
ATOM     42   C  NAG B   3       4.593 -19.148  -4.7440  0.00  0.00     0.000 C
ATOM     43   O  NAG B   3       5.747 -19.239  -5.5880  0.00  0.00     0.000 O
ATOM     45  HD  NAG B   3       6.003 -19.538  -4.8160  0.00  0.00     0.000 HD
BRANCH 35 47
ATOM     45   N  NAG B   3       4.487 -13.992  -6.6970  0.00  0.00     0.000 N
ATOM     47  HD  NAG B   3       4.735 -14.748  -7.0390  0.00  0.00     0.000 HD
ATOM     47   C  NAG B   3       3.801 -12.885  -6.9000  0.00  0.00     0.000 C
ATOM     48   C  NAG B   3       4.499 -11.809  -7.6780  0.00  0.00     0.000 C
ATOM     49   O  NAG B   3       2.647 -12.751  -6.4990  0.00  0.00     0.000 OA
ENDBRANCH 35 47
BRANCH 34 50
ATOM     50  O4  BDP B   4       5.528 -14.595  -4.3910  0.00  0.00     0.000 O
BRANCH 50 54
ATOM     51  C1  BDP B   4       7.396 -12.266  -1.6280  0.00  0.00     0.000 C
ATOM     52  C2  BDP B   4       7.388 -13.754  -1.2980  0.00  0.00     0.000 C
ATOM     53  C3  BDP B   4       7.022 -14.517  -2.5330  0.00  0.00     0.000 C
ATOM     54  C4  BDP B   4       5.670 -13.991  -3.0940  0.00  0.00     0.000 C
ATOM     55  C5  BDP B   4       5.646 -12.474  -3.2220  0.00  0.00     0.000 C
ATOM     56  O5  BDP B   4       6.094 -11.865  -2.0140  0.00  0.00     0.000 O
ATOM     57   O  BDP B   4       8.665 -14.165  -0.8550  0.00  0.00     0.000 O
ATOM     59  HD  BDP B   4       8.585 -14.235   0.0040  0.00  0.00     0.000 HD
ATOM     59   O  BDP B   4       6.836 -15.892  -2.1380  0.00  0.00     0.000 O
ATOM     61  HD  BDP B   4       6.757 -15.962  -1.2790  0.00  0.00     0.000 HD
BRANCH 55 61
ATOM     61   C  BDP B   4       4.227 -12.019  -3.5140  0.00  0.00     0.000 C
ATOM     62   O  BDP B   4       4.071 -10.934  -4.1330  0.00  0.00     0.000 OA
ATOM     63   O  BDP B   4       3.268 -12.752  -3.1230  0.00  0.00     0.000 OA
ENDBRANCH 55 61
BRANCH 51 64
ATOM     64  O3  NAG B   5       7.814 -11.567  -0.4390  0.00  0.00     0.000 O
BRANCH 64 67
ATOM     65  C1  NAG B   5       9.521  -8.317  -0.0960  0.00  0.00     0.000 C
ATOM     66  C2  NAG B   5       9.347  -9.826  -0.1300  0.00  0.00     0.000 C
ATOM     67  C3  NAG B   5       7.958 -10.176  -0.6480  0.00  0.00     0.000 C
ATOM     68  C4  NAG B   5       6.872  -9.426   0.1370  0.00  0.00     0.000 C
ATOM     69  C5  NAG B   5       7.182  -7.938   0.1950  0.00  0.00     0.000 C
ATOM     70  O5  NAG B   5       8.511  -7.734   0.6950  0.00  0.00     0.000 O
ATOM     71   O  NAG B   5       5.624  -9.665  -0.4770  0.00  0.00     0.000 O
ATOM     73  HD  NAG B   5       5.369  -9.741   0.3470  0.00  0.00     0.000 HD
ATOM     73   C  NAG B   5       6.216  -7.125   1.0680  0.00  0.00     0.000 C
ATOM     74   O  NAG B   5       6.328  -7.554   2.4410  0.00  0.00     0.000 O
ATOM     76  HD  NAG B   5       6.074  -7.630   3.2650  0.00  0.00     0.000 HD
BRANCH 66 78
ATOM     76   N  NAG B   5      10.484 -10.290  -0.9480  0.00  0.00     0.000 N
ATOM     78  HD  NAG B   5      10.172 -10.431  -0.1520  0.00  0.00     0.000 HD
ATOM     78   C  NAG B   5      11.297 -11.318  -0.6570  0.00  0.00     0.000 C
ATOM     79   C  NAG B   5      12.356 -11.559  -1.6990  0.00  0.00     0.000 C
ATOM     80   O  NAG B   5      11.188 -12.021   0.4100  0.00  0.00     0.000 OA
ENDBRANCH 66 78
BRANCH 65 81
ATOM     81  O4  BDP B   6      10.810  -7.981   0.4340  0.00  0.00     0.000 O
BRANCH 81 85
ATOM     82  C1  BDP B   6      13.650  -4.785   0.1470  0.00  0.00     0.000 C
ATOM     83  C2  BDP B   6      12.686  -4.768   1.3300  0.00  0.00     0.000 C
ATOM     84  C3  BDP B   6      12.012  -6.122   1.5680  0.00  0.00     0.000 C
ATOM     85  C4  BDP B   6      11.374  -6.676   0.2920  0.00  0.00     0.000 C
ATOM     86  C5  BDP B   6      12.431  -6.609  -0.8360  0.00  0.00     0.000 C
ATOM     87  O5  BDP B   6      12.965  -5.256  -1.0040  0.00  0.00     0.000 O
ATOM     88   O  BDP B   6      13.481  -4.426   2.4630  0.00  0.00     0.000 O
ATOM     90  HD  BDP B   6      13.587  -4.645   3.2940  0.00  0.00     0.000 HD
ATOM     90   O  BDP B   6      11.044  -5.999   2.6130  0.00  0.00     0.000 O
ATOM     92  HD  BDP B   6      11.151  -6.218   3.4440  0.00  0.00     0.000 HD
BRANCH 86 92
ATOM     92   C  BDP B   6      11.800  -6.915  -2.1720  0.00  0.00     0.000 C
ATOM     93   O  BDP B   6      11.088  -6.035  -2.7430  0.00  0.00     0.000 OA
ATOM     94   O  BDP B   6      12.034  -8.054  -2.6840  0.00  0.00     0.000 OA
ENDBRANCH 86 92
BRANCH 82 95
ATOM     95  O3  NAG B   7      14.074  -3.432  -0.1120  0.00  0.00     0.000 O
BRANCH 95 98
ATOM     96  C1  NAG B   7      16.754  -1.484  -1.6480  0.00  0.00     0.000 C
ATOM     97  C2  NAG B   7      15.499  -1.713  -0.8150  0.00  0.00     0.000 C
ATOM     98  C3  NAG B   7      15.212  -3.207  -0.9430  0.00  0.00     0.000 C
ATOM     99  C4  NAG B   7      14.984  -3.569  -2.4080  0.00  0.00     0.000 C
ATOM    100  C5  NAG B   7      16.157  -3.105  -3.2740  0.00  0.00     0.000 C
ATOM    101  O5  NAG B   7      16.405  -1.732  -3.0140  0.00  0.00     0.000 O
BRANCH 97 104
ATOM    102   N  NAG B   7      14.999  -1.189   0.4630  0.00  0.00     0.000 N
ATOM    104  HD  NAG B   7      14.675  -0.663   1.0700  0.00  0.00     0.000 HD
ATOM    104   O  NAG B   7      15.101  -0.565   2.6380  0.00  0.00     0.000 OA
ATOM    105   C  NAG B   7      15.639  -1.091   1.6440  0.00  0.00     0.000 C
ATOM    106   C  NAG B   7      17.030  -1.614   1.7600  0.00  0.00     0.000 C
ENDBRANCH 97 104
ATOM    107   O  NAG B   7      17.061  -3.190  -5.4370  0.00  0.00     0.000 O
ATOM    109  HD  NAG B   7      17.245  -3.208  -4.5910  0.00  0.00     0.000 HD
ATOM    109   O  NAG B   7      17.061  -3.190  -5.4370  0.00  0.00     0.000 O
ATOM    111  HD  NAG B   7      17.245  -3.208  -4.5910  0.00  0.00     0.000 HD
ENDBRANCH 95 98
ENDBRANCH 82 95
ENDBRANCH 81 85
ENDBRANCH 65 81
ENDBRANCH 64 67
ENDBRANCH 51 64
ENDBRANCH 50 54
ENDBRANCH 34 50
ENDBRANCH 33 36
ENDBRANCH 20 33
ENDBRANCH 19 23
ENDBRANCH 1 19
TORSDOF 19
ENDMDL
MODEL 9
REMARK VINA RESULT:      -8.3      1.524      2.346
ROOT
ATOM      1  C1  NAG B   1       1.195 -14.407  19.2450  0.00  0.00     0.000 C
ATOM      2  C2  NAG B   1      -0.185 -14.306  19.8890  0.00  0.00     0.000 C
ATOM      3  C3  NAG B   1      -0.253 -13.185  20.9050  0.00  0.00     0.000 C
ATOM      4  C4  NAG B   1       0.842 -13.489  21.9220  0.00  0.00     0.000 C
ATOM      5  C5  NAG B   1       2.206 -13.441  21.2220  0.00  0.00     0.000 C
ATOM      6  O5  NAG B   1       2.289 -14.431  20.1760  0.00  0.00     0.000 O
ATOM      7   O  NAG B   1      -1.546 -13.109  21.5470  0.00  0.00     0.000 O
ATOM      9  HD  NAG B   1      -1.751 -13.358  20.7430  0.00  0.00     0.000 HD
ATOM      9   O  NAG B   1       0.808 -12.539  22.9740  0.00  0.00     0.000 O
ATOM     11  HD  NAG B   1       0.603 -12.788  22.1710  0.00  0.00     0.000 HD
ATOM     11   C  NAG B   1       3.330 -13.608  22.2530  0.00  0.00     0.000 C
ATOM     12   O  NAG B   1       4.483 -14.211  21.6690  0.00  0.00     0.000 O
ATOM     14  HD  NAG B   1       4.278 -14.460  20.8650  0.00  0.00     0.000 HD
ENDROOT
BRANCH 2 16
ATOM     14   N  NAG B   1      -1.131 -14.245  18.7610  0.00  0.00     0.000 N
ATOM     16  HD  NAG B   1      -1.316 -14.605  17.9950  0.00  0.00     0.000 HD
ATOM     16   C  NAG B   1      -2.154 -15.105  18.6120  0.00  0.00     0.000 C
ATOM     17   C  NAG B   1      -2.356 -16.212  19.6120  0.00  0.00     0.000 C
ATOM     18   O  NAG B   1      -2.954 -14.991  17.6840  0.00  0.00     0.000 OA
ENDBRANCH 2 16
BRANCH 1 19
ATOM     19  O4  BDP B   2       1.174 -15.689  18.6320  0.00  0.00     0.000 O
BRANCH 19 23
ATOM     20  C1  BDP B   2       4.521 -15.307  16.2680  0.00  0.00     0.000 C
ATOM     21  C2  BDP B   2       3.289 -14.551  15.8170  0.00  0.00     0.000 C
ATOM     22  C3  BDP B   2       2.286 -14.418  16.9410  0.00  0.00     0.000 C
ATOM     23  C4  BDP B   2       1.998 -15.809  17.4980  0.00  0.00     0.000 C
ATOM     24  C5  BDP B   2       3.299 -16.461  17.9240  0.00  0.00     0.000 C
ATOM     25  O5  BDP B   2       4.162 -16.571  16.8090  0.00  0.00     0.000 O
ATOM     26   O  BDP B   2       3.647 -13.270  15.3450  0.00  0.00     0.000 O
ATOM     28  HD  BDP B   2       4.428 -13.640  15.4010  0.00  0.00     0.000 HD
ATOM     28   O  BDP B   2       1.100 -13.779  16.4430  0.00  0.00     0.000 O
ATOM     30  HD  BDP B   2       1.881 -14.150  16.5000  0.00  0.00     0.000 HD
BRANCH 24 30
ATOM     30   C  BDP B   2       3.090 -17.829  18.4680  0.00  0.00     0.000 C
ATOM     31   O  BDP B   2       2.654 -18.699  17.6800  0.00  0.00     0.000 OA
ATOM     32   O  BDP B   2       3.353 -18.038  19.6870  0.00  0.00     0.000 OA
ENDBRANCH 24 30
BRANCH 20 33
ATOM     33  O3  NAG B   3       5.253 -15.504  15.0820  0.00  0.00     0.000 O
BRANCH 33 36
ATOM     34  C1  NAG B   3       8.799 -14.685  14.1320  0.00  0.00     0.000 C
ATOM     35  C2  NAG B   3       7.285 -14.693  14.0450  0.00  0.00     0.000 C
ATOM     36  C3  NAG B   3       6.657 -15.333  15.2920  0.00  0.00     0.000 C
ATOM     37  C4  NAG B   3       7.290 -16.701  15.5320  0.00  0.00     0.000 C
ATOM     38  C5  NAG B   3       8.813 -16.590  15.5150  0.00  0.00     0.000 C
ATOM     39  O5  NAG B   3       9.242 -16.026  14.2880  0.00  0.00     0.000 O
ATOM     40   O  NAG B   3       6.864 -17.225  16.7990  0.00  0.00     0.000 O
ATOM     42  HD  NAG B   3       7.719 -17.287  16.9220  0.00  0.00     0.000 HD
ATOM     42   C  NAG B   3       9.531 -17.933  15.6170  0.00  0.00     0.000 C
ATOM     43   O  NAG B   3       9.257 -18.713  14.4470  0.00  0.00     0.000 O
ATOM     45  HD  NAG B   3      10.112 -18.776  14.5700  0.00  0.00     0.000 HD
BRANCH 35 47
ATOM     45   N  NAG B   3       6.606 -14.145  12.8780  0.00  0.00     0.000 N
ATOM     47  HD  NAG B   3       6.570 -15.009  12.9090  0.00  0.00     0.000 HD
ATOM     47   C  NAG B   3       5.904 -13.030  12.9150  0.00  0.00     0.000 C
ATOM     48   C  NAG B   3       5.252 -12.616  11.6290  0.00  0.00     0.000 C
ATOM     49   O  NAG B   3       5.767 -12.380  13.9490  0.00  0.00     0.000 OA
ENDBRANCH 35 47
BRANCH 34 50
ATOM     50  O4  BDP B   4       9.203 -14.176  12.8780  0.00  0.00     0.000 O
BRANCH 50 54
ATOM     51  C1  BDP B   4      11.926 -11.822  10.9810  0.00  0.00     0.000 C
ATOM     52  C2  BDP B   4      12.531 -12.973  11.7770  0.00  0.00     0.000 C
ATOM     53  C3  BDP B   4      11.447 -13.954  12.1010  0.00  0.00     0.000 C
ATOM     54  C4  BDP B   4      10.283 -13.228  12.8340  0.00  0.00     0.000 C
ATOM     55  C5  BDP B   4       9.837 -11.967  12.1060  0.00  0.00     0.000 C
ATOM     56  O5  BDP B   4      10.963 -11.157  11.7780  0.00  0.00     0.000 O
ATOM     57   O  BDP B   4      13.535 -13.617  11.0220  0.00  0.00     0.000 O
ATOM     59  HD  BDP B   4      14.280 -13.330  11.3590  0.00  0.00     0.000 HD
ATOM     59   O  BDP B   4      12.013 -14.919  13.0120  0.00  0.00     0.000 O
ATOM     61  HD  BDP B   4      12.757 -14.632  13.3490  0.00  0.00     0.000 HD
BRANCH 55 61
ATOM     61   C  BDP B   4       8.899 -11.178  13.0010  0.00  0.00     0.000 C
ATOM     62   O  BDP B   4       8.037 -10.442  12.4520  0.00  0.00     0.000 OA
ATOM     63   O  BDP B   4       9.025 -11.297  14.2580  0.00  0.00     0.000 OA
ENDBRANCH 55 61
BRANCH 51 64
ATOM     64  O3  NAG B   5      13.003 -10.932  10.6310  0.00  0.00     0.000 O
BRANCH 64 67
ATOM     65  C1  NAG B   5      12.462  -8.526   7.8900  0.00  0.00     0.000 C
ATOM     66  C2  NAG B   5      12.711  -9.861   8.5700  0.00  0.00     0.000 C
ATOM     67  C3  NAG B   5      12.544  -9.714  10.0770  0.00  0.00     0.000 C
ATOM     68  C4  NAG B   5      13.395  -8.555  10.6150  0.00  0.00     0.000 C
ATOM     69  C5  NAG B   5      13.145  -7.288   9.8140  0.00  0.00     0.000 C
ATOM     70  O5  NAG B   5      13.331  -7.549   8.4150  0.00  0.00     0.000 O
ATOM     71   O  NAG B   5      13.088  -8.366  11.9800  0.00  0.00     0.000 O
ATOM     73  HD  NAG B   5      13.948  -8.275  12.0360  0.00  0.00     0.000 HD
ATOM     73   C  NAG B   5      14.047  -6.107  10.2000  0.00  0.00     0.000 C
ATOM     74   O  NAG B   5      15.422  -6.434   9.9080  0.00  0.00     0.000 O
ATOM     76  HD  NAG B   5      16.281  -6.343   9.9640  0.00  0.00     0.000 HD
BRANCH 66 78
ATOM     76   N  NAG B   5      11.755 -10.890   8.1170  0.00  0.00     0.000 N
ATOM     78  HD  NAG B   5      12.586 -10.689   7.9820  0.00  0.00     0.000 HD
ATOM     78   C  NAG B   5      12.060 -12.006   7.4370  0.00  0.00     0.000 C
ATOM     79   C  NAG B   5      10.865 -12.869   7.1350  0.00  0.00     0.000 C
ATOM     80   O  NAG B   5      13.253 -12.304   7.0730  0.00  0.00     0.000 OA
ENDBRANCH 66 78
BRANCH 65 81
ATOM     81  O4  BDP B   6      12.663  -8.648   6.4760  0.00  0.00     0.000 O
BRANCH 81 85
ATOM     82  C1  BDP B   6      11.163  -7.055   2.7920  0.00  0.00     0.000 C
ATOM     83  C2  BDP B   6      11.596  -6.061   3.8660  0.00  0.00     0.000 C
ATOM     84  C3  BDP B   6      12.476  -6.697   4.9450  0.00  0.00     0.000 C
ATOM     85  C4  BDP B   6      11.842  -7.961   5.5290  0.00  0.00     0.000 C
ATOM     86  C5  BDP B   6      11.416  -8.868   4.3490  0.00  0.00     0.000 C
ATOM     87  O5  BDP B   6      10.536  -8.167   3.4130  0.00  0.00     0.000 O
ATOM     88   O  BDP B   6      12.336  -5.056   3.1780  0.00  0.00     0.000 O
ATOM     90  HD  BDP B   6      13.054  -4.579   3.2650  0.00  0.00     0.000 HD
ATOM     90   O  BDP B   6      12.745  -5.738   5.9710  0.00  0.00     0.000 O
ATOM     92  HD  BDP B   6      13.463  -5.262   6.0580  0.00  0.00     0.000 HD
BRANCH 86 92
ATOM     92   C  BDP B   6      10.573 -10.019   4.8430  0.00  0.00     0.000 C
ATOM     93   O  BDP B   6      10.646 -11.141   4.2580  0.00  0.00     0.000 OA
ATOM     94   O  BDP B   6       9.834  -9.811   5.8550  0.00  0.00     0.000 OA
ENDBRANCH 86 92
BRANCH 82 95
ATOM     95  O3  NAG B   7      10.189  -6.413   1.9460  0.00  0.00     0.000 O
BRANCH 95 98
ATOM     96  C1  NAG B   7       8.759  -7.103  -1.3440  0.00  0.00     0.000 C
ATOM     97  C2  NAG B   7       9.417  -6.259  -0.2600  0.00  0.00     0.000 C
ATOM     98  C3  NAG B   7       9.516  -7.184   0.9520  0.00  0.00     0.000 C
ATOM     99  C4  NAG B   7       8.121  -7.642   1.3700  0.00  0.00     0.000 C
ATOM    100  C5  NAG B   7       7.376  -8.270   0.1910  0.00  0.00     0.000 C
ATOM    101  O5  NAG B   7       7.422  -7.377  -0.9110  0.00  0.00     0.000 O
BRANCH 97 104
ATOM    102   N  NAG B   7      10.540  -5.316  -0.1640  0.00  0.00     0.000 N
ATOM    104  HD  NAG B   7      11.008  -4.588  -0.1560  0.00  0.00     0.000 HD
ATOM    104   O  NAG B   7      12.508  -4.359  -0.7460  0.00  0.00     0.000 OA
ATOM    105   C  NAG B   7      11.663  -5.261  -0.9050  0.00  0.00     0.000 C
ATOM    106   C  NAG B   7      11.891  -6.298  -1.9520  0.00  0.00     0.000 C
ENDBRANCH 97 104
ATOM    107   O  NAG B   7       5.427  -9.427  -0.4150  0.00  0.00     0.000 O
ATOM    109  HD  NAG B   7       6.281  -9.361  -0.5450  0.00  0.00     0.000 HD
ATOM    109   O  NAG B   7       5.427  -9.427  -0.4150  0.00  0.00     0.000 O
ATOM    111  HD  NAG B   7       6.281  -9.361  -0.5450  0.00  0.00     0.000 HD
ENDBRANCH 95 98
ENDBRANCH 82 95
ENDBRANCH 81 85
ENDBRANCH 65 81
ENDBRANCH 64 67
ENDBRANCH 51 64
ENDBRANCH 50 54
ENDBRANCH 34 50
ENDBRANCH 33 36
ENDBRANCH 20 33
ENDBRANCH 19 23
ENDBRANCH 1 19
TORSDOF 19
ENDMDL
MODEL 10
REMARK VINA RESULT:      -8.3     10.826     21.210
ROOT
ATOM      1  C1  NAG B   1      20.411  -2.288  -6.4110  0.00  0.00     0.000 C
ATOM      2  C2  NAG B   1      21.173  -2.089  -7.7190  0.00  0.00     0.000 C
ATOM      3  C3  NAG B   1      21.616  -3.408  -8.3200  0.00  0.00     0.000 C
ATOM      4  C4  NAG B   1      22.467  -4.079  -7.2470  0.00  0.00     0.000 C
ATOM      5  C5  NAG B   1      21.595  -4.363  -6.0170  0.00  0.00     0.000 C
ATOM      6  O5  NAG B   1      21.067  -3.141  -5.4600  0.00  0.00     0.000 O
ATOM      7   O  NAG B   1      22.372  -3.225  -9.5380  0.00  0.00     0.000 O
ATOM      9  HD  NAG B   1      21.795  -2.580  -9.5780  0.00  0.00     0.000 HD
ATOM      9   O  NAG B   1      23.008  -5.292  -7.7420  0.00  0.00     0.000 O
ATOM     11  HD  NAG B   1      22.432  -4.647  -7.7820  0.00  0.00     0.000 HD
ATOM     11   C  NAG B   1      22.395  -5.161  -4.9810  0.00  0.00     0.000 C
ATOM     12   O  NAG B   1      21.937  -4.895  -3.6560  0.00  0.00     0.000 O
ATOM     14  HD  NAG B   1      21.361  -4.250  -3.6950  0.00  0.00     0.000 HD
ENDROOT
BRANCH 2 16
ATOM     14   N  NAG B   1      20.316  -1.258  -8.5830  0.00  0.00     0.000 N
ATOM     16  HD  NAG B   1      19.790  -0.570  -8.5760  0.00  0.00     0.000 HD
ATOM     16   C  NAG B   1      20.702  -0.068  -9.0750  0.00  0.00     0.000 C
ATOM     17   C  NAG B   1      22.058   0.486  -8.7240  0.00  0.00     0.000 C
ATOM     18   O  NAG B   1      19.978   0.574  -9.8340  0.00  0.00     0.000 OA
ENDBRANCH 2 16
BRANCH 1 19
ATOM     19  O4  BDP B   2      20.410  -0.988  -5.8360  0.00  0.00     0.000 O
BRANCH 19 23
ATOM     20  C1  BDP B   2      17.228  -1.696  -3.3240  0.00  0.00     0.000 C
ATOM     21  C2  BDP B   2      16.894  -1.139  -4.6920  0.00  0.00     0.000 C
ATOM     22  C3  BDP B   2      18.049  -1.314  -5.6520  0.00  0.00     0.000 C
ATOM     23  C4  BDP B   2      19.299  -0.711  -5.0170  0.00  0.00     0.000 C
ATOM     24  C5  BDP B   2      19.538  -1.352  -3.6640  0.00  0.00     0.000 C
ATOM     25  O5  BDP B   2      18.424  -1.114  -2.8250  0.00  0.00     0.000 O
ATOM     26   O  BDP B   2      15.744  -1.771  -5.2110  0.00  0.00     0.000 O
ATOM     28  HD  BDP B   2      15.719  -2.047  -4.3910  0.00  0.00     0.000 HD
ATOM     28   O  BDP B   2      17.724  -0.688  -6.9030  0.00  0.00     0.000 O
ATOM     30  HD  BDP B   2      17.698  -0.965  -6.0830  0.00  0.00     0.000 HD
BRANCH 24 30
ATOM     30   C  BDP B   2      20.739  -0.800  -2.9850  0.00  0.00     0.000 C
ATOM     31   O  BDP B   2      20.816   0.446  -2.8780  0.00  0.00     0.000 OA
ATOM     32   O  BDP B   2      21.615  -1.607  -2.5620  0.00  0.00     0.000 OA
ENDBRANCH 24 30
BRANCH 20 33
ATOM     33  O3  NAG B   3      16.147  -1.293  -2.5190  0.00  0.00     0.000 O
BRANCH 33 36
ATOM     34  C1  NAG B   3      14.723  -3.547   0.1350  0.00  0.00     0.000 C
ATOM     35  C2  NAG B   3      14.913  -2.939  -1.2410  0.00  0.00     0.000 C
ATOM     36  C3  NAG B   3      16.124  -1.995  -1.2730  0.00  0.00     0.000 C
ATOM     37  C4  NAG B   3      16.005  -0.981  -0.1380  0.00  0.00     0.000 C
ATOM     38  C5  NAG B   3      15.731  -1.696   1.1830  0.00  0.00     0.000 C
ATOM     39  O5  NAG B   3      14.562  -2.489   1.0700  0.00  0.00     0.000 O
ATOM     40   O  NAG B   3      17.220  -0.223  -0.0270  0.00  0.00     0.000 O
ATOM     42  HD  NAG B   3      17.172  -0.499   0.7920  0.00  0.00     0.000 HD
ATOM     42   C  NAG B   3      15.469  -0.751   2.3530  0.00  0.00     0.000 C
ATOM     43   O  NAG B   3      14.251  -0.031   2.1230  0.00  0.00     0.000 O
ATOM     45  HD  NAG B   3      14.203  -0.307   2.9430  0.00  0.00     0.000 HD
BRANCH 35 47
ATOM     45   N  NAG B   3      14.999  -4.018  -2.2170  0.00  0.00     0.000 N
ATOM     47  HD  NAG B   3      14.988  -4.306  -1.4010  0.00  0.00     0.000 HD
ATOM     47   C  NAG B   3      14.356  -3.998  -3.3680  0.00  0.00     0.000 C
ATOM     48   C  NAG B   3      14.539  -5.198  -4.2480  0.00  0.00     0.000 C
ATOM     49   O  NAG B   3      13.627  -3.062  -3.6900  0.00  0.00     0.000 OA
ENDBRANCH 35 47
BRANCH 34 50
ATOM     50  O4  BDP B   4      13.523  -4.282   0.0130  0.00  0.00     0.000 O
BRANCH 50 54
ATOM     51  C1  BDP B   4      11.423  -7.317   1.7250  0.00  0.00     0.000 C
ATOM     52  C2  BDP B   4      10.976  -5.922   2.1480  0.00  0.00     0.000 C
ATOM     53  C3  BDP B   4      11.551  -4.924   1.1900  0.00  0.00     0.000 C
ATOM     54  C4  BDP B   4      13.096  -5.093   1.1200  0.00  0.00     0.000 C
ATOM     55  C5  BDP B   4      13.510  -6.540   0.8950  0.00  0.00     0.000 C
ATOM     56  O5  BDP B   4      12.834  -7.400   1.8070  0.00  0.00     0.000 O
ATOM     57   O  BDP B   4       9.567  -5.832   2.1270  0.00  0.00     0.000 O
ATOM     59  HD  BDP B   4       9.333  -5.880   2.9600  0.00  0.00     0.000 HD
ATOM     59   O  BDP B   4      11.270  -3.615   1.7290  0.00  0.00     0.000 O
ATOM     61  HD  BDP B   4      11.036  -3.664   2.5620  0.00  0.00     0.000 HD
BRANCH 55 61
ATOM     61   C  BDP B   4      15.009  -6.670   1.1030  0.00  0.00     0.000 C
ATOM     62   O  BDP B   4      15.462  -6.481   2.2620  0.00  0.00     0.000 OA
ATOM     63   O  BDP B   4      15.731  -6.964   0.1030  0.00  0.00     0.000 OA
ENDBRANCH 55 61
BRANCH 51 64
ATOM     64  O3  NAG B   5      10.802  -8.255   2.6250  0.00  0.00     0.000 O
BRANCH 64 67
ATOM     65  C1  NAG B   5       9.249 -11.363   1.3890  0.00  0.00     0.000 C
ATOM     66  C2  NAG B   5       9.387  -9.887   1.7240  0.00  0.00     0.000 C
ATOM     67  C3  NAG B   5      10.823  -9.579   2.1290  0.00  0.00     0.000 C
ATOM     68  C4  NAG B   5      11.300 -10.532   3.2340  0.00  0.00     0.000 C
ATOM     69  C5  NAG B   5      11.036 -11.978   2.8480  0.00  0.00     0.000 C
ATOM     70  O5  NAG B   5       9.657 -12.145   2.4880  0.00  0.00     0.000 O
ATOM     71   O  NAG B   5      12.674 -10.305   3.4630  0.00  0.00     0.000 O
ATOM     73  HD  NAG B   5      12.425 -10.381   4.2890  0.00  0.00     0.000 HD
ATOM     73   C  NAG B   5      11.366 -12.997   3.9490  0.00  0.00     0.000 C
ATOM     74   O  NAG B   5      10.500 -12.780   5.0830  0.00  0.00     0.000 O
ATOM     76  HD  NAG B   5      10.251 -12.856   5.9090  0.00  0.00     0.000 HD
BRANCH 66 78
ATOM     76   N  NAG B   5       8.182  -9.075   1.4660  0.00  0.00     0.000 N
ATOM     78  HD  NAG B   5       9.006  -9.095   1.2000  0.00  0.00     0.000 HD
ATOM     78   C  NAG B   5       8.035  -8.172   0.4840  0.00  0.00     0.000 C
ATOM     79   C  NAG B   5       6.680  -7.518   0.4690  0.00  0.00     0.000 C
ATOM     80   O  NAG B   5       8.963  -7.886  -0.3540  0.00  0.00     0.000 OA
ENDBRANCH 66 78
BRANCH 65 81
ATOM     81  O4  BDP B   6       7.889 -11.667   1.0530  0.00  0.00     0.000 O
BRANCH 81 85
ATOM     82  C1  BDP B   6       5.621 -14.007  -1.7300  0.00  0.00     0.000 C
ATOM     83  C2  BDP B   6       6.459 -14.755  -0.6970  0.00  0.00     0.000 C
ATOM     84  C3  BDP B   6       6.889 -13.870   0.4760  0.00  0.00     0.000 C
ATOM     85  C4  BDP B   6       7.551 -12.575   0.0010  0.00  0.00     0.000 C
ATOM     86  C5  BDP B   6       6.629 -11.930  -1.0610  0.00  0.00     0.000 C
ATOM     87  O5  BDP B   6       6.330 -12.853  -2.1570  0.00  0.00     0.000 O
ATOM     88   O  BDP B   6       5.624 -15.807  -0.2190  0.00  0.00     0.000 O
ATOM     90  HD  BDP B   6       5.406 -16.203   0.5200  0.00  0.00     0.000 HD
ATOM     90   O  BDP B   6       7.761 -14.605   1.3380  0.00  0.00     0.000 O
ATOM     92  HD  BDP B   6       7.543 -15.001   2.0770  0.00  0.00     0.000 HD
BRANCH 86 92
ATOM     92   C  BDP B   6       7.329 -10.778  -1.7410  0.00  0.00     0.000 C
ATOM     93   O  BDP B   6       6.644  -9.812  -2.1940  0.00  0.00     0.000 OA
ATOM     94   O  BDP B   6       8.596 -10.821  -1.8100  0.00  0.00     0.000 OA
ENDBRANCH 86 92
BRANCH 82 95
ATOM     95  O3  NAG B   7       5.439 -14.864  -2.8740  0.00  0.00     0.000 O
BRANCH 95 98
ATOM     96  C1  NAG B   7       2.738 -16.382  -4.8070  0.00  0.00     0.000 C
ATOM     97  C2  NAG B   7       4.129 -16.285  -4.1960  0.00  0.00     0.000 C
ATOM     98  C3  NAG B   7       4.158 -14.927  -3.4990  0.00  0.00     0.000 C
ATOM     99  C4  NAG B   7       3.916 -13.816  -4.5180  0.00  0.00     0.000 C
ATOM    100  C5  NAG B   7       2.627 -14.064  -5.3020  0.00  0.00     0.000 C
ATOM    101  O5  NAG B   7       2.655 -15.382  -5.8280  0.00  0.00     0.000 O
BRANCH 97 104
ATOM    102   N  NAG B   7       4.551 -17.160  -3.0930  0.00  0.00     0.000 N
ATOM    104  HD  NAG B   7       4.911 -17.451  -2.3610  0.00  0.00     0.000 HD
ATOM    104   O  NAG B   7       5.627 -18.891  -2.1050  0.00  0.00     0.000 OA
ATOM    105   C  NAG B   7       5.297 -18.280  -3.1410  0.00  0.00     0.000 C
ATOM    106   C  NAG B   7       5.750 -18.793  -4.4650  0.00  0.00     0.000 C
ENDBRANCH 97 104
ATOM    107   O  NAG B   7       1.155 -13.125  -6.8680  0.00  0.00     0.000 O
ATOM    109  HD  NAG B   7       1.212 -13.597  -6.1440  0.00  0.00     0.000 HD
ATOM    109   O  NAG B   7       1.155 -13.125  -6.8680  0.00  0.00     0.000 O
ATOM    111  HD  NAG B   7       1.212 -13.597  -6.1440  0.00  0.00     0.000 HD
ENDBRANCH 95 98
ENDBRANCH 82 95
ENDBRANCH 81 85
ENDBRANCH 65 81
ENDBRANCH 64 67
ENDBRANCH 51 64
ENDBRANCH 50 54
ENDBRANCH 34 50
ENDBRANCH 33 36
ENDBRANCH 20 33
ENDBRANCH 19 23
ENDBRANCH 1 19
TORSDOF 19
ENDMDL
MODEL 11
REMARK VINA RESULT:      -8.2     11.739     20.676
ROOT
ATOM      1  C1  NAG B   1      19.952  -3.792  -5.0260  0.00  0.00     0.000 C
ATOM      2  C2  NAG B   1      20.875  -3.397  -6.1770  0.00  0.00     0.000 C
ATOM      3  C3  NAG B   1      21.243  -4.587  -7.0390  0.00  0.00     0.000 C
ATOM      4  C4  NAG B   1      21.892  -5.592  -6.0930  0.00  0.00     0.000 C
ATOM      5  C5  NAG B   1      20.860  -6.037  -5.0480  0.00  0.00     0.000 C
ATOM      6  O5  NAG B   1      20.403  -4.919  -4.2580  0.00  0.00     0.000 O
ATOM      7   O  NAG B   1      22.147  -4.227  -8.1080  0.00  0.00     0.000 O
ATOM      9  HD  NAG B   1      21.650  -3.521  -8.0390  0.00  0.00     0.000 HD
ATOM      9   O  NAG B   1      22.356  -6.717  -6.8200  0.00  0.00     0.000 O
ATOM     11  HD  NAG B   1      21.858  -6.012  -6.7510  0.00  0.00     0.000 HD
ATOM     11   C  NAG B   1      21.450  -7.149  -4.1710  0.00  0.00     0.000 C
ATOM     12   O  NAG B   1      20.874  -7.139  -2.8660  0.00  0.00     0.000 O
ATOM     14  HD  NAG B   1      20.377  -6.434  -2.7970  0.00  0.00     0.000 HD
ENDROOT
BRANCH 2 16
ATOM     14   N  NAG B   1      20.403  -2.364  -7.1150  0.00  0.00     0.000 N
ATOM     16  HD  NAG B   1      19.831  -1.718  -7.2000  0.00  0.00     0.000 HD
ATOM     16   C  NAG B   1      20.775  -1.074  -7.0370  0.00  0.00     0.000 C
ATOM     17   C  NAG B   1      21.696  -0.624  -5.9340  0.00  0.00     0.000 C
ATOM     18   O  NAG B   1      20.399  -0.250  -7.8700  0.00  0.00     0.000 OA
ENDBRANCH 2 16
BRANCH 1 19
ATOM     19  O4  BDP B   2      20.022  -2.671  -4.1560  0.00  0.00     0.000 O
BRANCH 19 23
ATOM     20  C1  BDP B   2      16.337  -3.270  -2.4230  0.00  0.00     0.000 C
ATOM     21  C2  BDP B   2      16.358  -2.442  -3.6910  0.00  0.00     0.000 C
ATOM     22  C3  BDP B   2      17.650  -2.636  -4.4510  0.00  0.00     0.000 C
ATOM     23  C4  BDP B   2      18.814  -2.361  -3.5030  0.00  0.00     0.000 C
ATOM     24  C5  BDP B   2      18.693  -3.252  -2.2830  0.00  0.00     0.000 C
ATOM     25  O5  BDP B   2      17.473  -2.982  -1.6190  0.00  0.00     0.000 O
ATOM     26   O  BDP B   2      15.265  -2.782  -4.5160  0.00  0.00     0.000 O
ATOM     28  HD  BDP B   2      15.041  -3.185  -3.7830  0.00  0.00     0.000 HD
ATOM     28   O  BDP B   2      17.664  -1.764  -5.5920  0.00  0.00     0.000 O
ATOM     30  HD  BDP B   2      17.440  -2.167  -4.8590  0.00  0.00     0.000 HD
BRANCH 24 30
ATOM     30   C  BDP B   2      19.794  -3.025  -1.3100  0.00  0.00     0.000 C
ATOM     31   O  BDP B   2      19.843  -1.906  -0.7490  0.00  0.00     0.000 OA
ATOM     32   O  BDP B   2      20.620  -3.960  -1.1080  0.00  0.00     0.000 OA
ENDBRANCH 24 30
BRANCH 20 33
ATOM     33  O3  NAG B   3      15.177  -2.839  -1.7540  0.00  0.00     0.000 O
BRANCH 33 36
ATOM     34  C1  NAG B   3      13.198  -5.295   0.2960  0.00  0.00     0.000 C
ATOM     35  C2  NAG B   3      13.680  -4.560  -0.9400  0.00  0.00     0.000 C
ATOM     36  C3  NAG B   3      14.884  -3.660  -0.6200  0.00  0.00     0.000 C
ATOM     37  C4  NAG B   3      14.543  -2.761   0.5660  0.00  0.00     0.000 C
ATOM     38  C5  NAG B   3      13.988  -3.594   1.7180  0.00  0.00     0.000 C
ATOM     39  O5  NAG B   3      12.859  -4.331   1.2820  0.00  0.00     0.000 O
ATOM     40   O  NAG B   3      15.717  -2.060   1.0040  0.00  0.00     0.000 O
ATOM     42  HD  NAG B   3      15.494  -2.415   1.7620  0.00  0.00     0.000 HD
ATOM     42   C  NAG B   3      13.498  -2.762   2.9010  0.00  0.00     0.000 C
ATOM     43   O  NAG B   3      12.365  -1.981   2.5000  0.00  0.00     0.000 O
ATOM     45  HD  NAG B   3      12.143  -2.336   3.2580  0.00  0.00     0.000 HD
BRANCH 35 47
ATOM     45   N  NAG B   3      13.923  -5.555  -1.9760  0.00  0.00     0.000 N
ATOM     47  HD  NAG B   3      13.702  -5.910  -1.2180  0.00  0.00     0.000 HD
ATOM     47   C  NAG B   3      13.569  -5.381  -3.2340  0.00  0.00     0.000 C
ATOM     48   C  NAG B   3      13.875  -6.514  -4.1690  0.00  0.00     0.000 C
ATOM     49   O  NAG B   3      12.998  -4.362  -3.6150  0.00  0.00     0.000 OA
ENDBRANCH 35 47
BRANCH 34 50
ATOM     50  O4  BDP B   4      12.041  -5.972  -0.1490  0.00  0.00     0.000 O
BRANCH 50 54
ATOM     51  C1  BDP B   4       9.350  -8.885   0.7610  0.00  0.00     0.000 C
ATOM     52  C2  BDP B   4       9.174  -7.593   1.5510  0.00  0.00     0.000 C
ATOM     53  C3  BDP B   4       9.955  -6.508   0.8760  0.00  0.00     0.000 C
ATOM     54  C4  BDP B   4      11.438  -6.949   0.7170  0.00  0.00     0.000 C
ATOM     55  C5  BDP B   4      11.567  -8.336   0.1030  0.00  0.00     0.000 C
ATOM     56  O5  BDP B   4      10.715  -9.259   0.7760  0.00  0.00     0.000 O
ATOM     57   O  BDP B   4       7.811  -7.228   1.5980  0.00  0.00     0.000 O
ATOM     59  HD  BDP B   4       7.553  -7.450   2.3950  0.00  0.00     0.000 HD
ATOM     59   O  BDP B   4       9.923  -5.361   1.7500  0.00  0.00     0.000 O
ATOM     61  HD  BDP B   4       9.665  -5.582   2.5470  0.00  0.00     0.000 HD
BRANCH 55 61
ATOM     61   C  BDP B   4      13.006  -8.806   0.2250  0.00  0.00     0.000 C
ATOM     62   O  BDP B   4      13.777  -8.607  -0.7510  0.00  0.00     0.000 OA
ATOM     63   O  BDP B   4      13.364  -9.373   1.3020  0.00  0.00     0.000 OA
ENDBRANCH 55 61
BRANCH 51 64
ATOM     64  O3  NAG B   5       8.537  -9.889   1.3990  0.00  0.00     0.000 O
BRANCH 64 67
ATOM     65  C1  NAG B   5       6.775 -12.377  -0.6740  0.00  0.00     0.000 C
ATOM     66  C2  NAG B   5       7.070 -11.041  -0.0150  0.00  0.00     0.000 C
ATOM     67  C3  NAG B   5       8.446 -11.078   0.6390  0.00  0.00     0.000 C
ATOM     68  C4  NAG B   5       8.581 -12.291   1.5690  0.00  0.00     0.000 C
ATOM     69  C5  NAG B   5       8.176 -13.568   0.8500  0.00  0.00     0.000 C
ATOM     70  O5  NAG B   5       6.869 -13.413   0.2770  0.00  0.00     0.000 O
ATOM     71   O  NAG B   5       9.914 -12.363   2.0270  0.00  0.00     0.000 O
ATOM     73  HD  NAG B   5       9.520 -12.547   2.7760  0.00  0.00     0.000 HD
ATOM     73   C  NAG B   5       8.158 -14.817   1.7410  0.00  0.00     0.000 C
ATOM     74   O  NAG B   5       7.153 -14.666   2.7660  0.00  0.00     0.000 O
ATOM     76  HD  NAG B   5       6.759 -14.850   3.5150  0.00  0.00     0.000 HD
BRANCH 66 78
ATOM     76   N  NAG B   5       6.889 -10.068  -1.1100  0.00  0.00     0.000 N
ATOM     78  HD  NAG B   5       6.567 -10.202  -0.3170  0.00  0.00     0.000 HD
ATOM     78   C  NAG B   5       6.219  -8.907  -1.0320  0.00  0.00     0.000 C
ATOM     79   C  NAG B   5       6.227  -8.123  -2.3160  0.00  0.00     0.000 C
ATOM     80   O  NAG B   5       5.624  -8.510   0.0320  0.00  0.00     0.000 OA
ENDBRANCH 66 78
BRANCH 65 81
ATOM     81  O4  BDP B   6       5.463 -12.363  -1.2510  0.00  0.00     0.000 O
BRANCH 81 85
ATOM     82  C1  BDP B   6       3.350 -14.444  -4.3440  0.00  0.00     0.000 C
ATOM     83  C2  BDP B   6       4.511 -15.170  -3.6710  0.00  0.00     0.000 C
ATOM     84  C3  BDP B   6       4.923 -14.532  -2.3420  0.00  0.00     0.000 C
ATOM     85  C4  BDP B   6       5.165 -13.028  -2.4810  0.00  0.00     0.000 C
ATOM     86  C5  BDP B   6       3.943 -12.413  -3.2030  0.00  0.00     0.000 C
ATOM     87  O5  BDP B   6       3.679 -13.070  -4.4850  0.00  0.00     0.000 O
ATOM     88   O  BDP B   6       4.047 -16.498  -3.4390  0.00  0.00     0.000 O
ATOM     90  HD  BDP B   6       4.065 -17.114  -2.8310  0.00  0.00     0.000 HD
ATOM     90   O  BDP B   6       6.083 -15.193  -1.8310  0.00  0.00     0.000 O
ATOM     92  HD  BDP B   6       6.101 -15.810  -1.2230  0.00  0.00     0.000 HD
BRANCH 86 92
ATOM     92   C  BDP B   6       4.218 -10.979  -3.5840  0.00  0.00     0.000 C
ATOM     93   O  BDP B   6       3.288 -10.121  -3.5000  0.00  0.00     0.000 OA
ATOM     94   O  BDP B   6       5.397 -10.687  -3.9570  0.00  0.00     0.000 OA
ENDBRANCH 86 92
BRANCH 82 95
ATOM     95  O3  NAG B   7       3.174 -14.995  -5.6640  0.00  0.00     0.000 O
BRANCH 95 98
ATOM     96  C1  NAG B   7       0.456 -16.474  -7.6040  0.00  0.00     0.000 C
ATOM     97  C2  NAG B   7       1.877 -16.342  -7.0730  0.00  0.00     0.000 C
ATOM     98  C3  NAG B   7       1.859 -15.082  -6.2110  0.00  0.00     0.000 C
ATOM     99  C4  NAG B   7       1.466 -13.877  -7.0620  0.00  0.00     0.000 C
ATOM    100  C5  NAG B   7       0.144 -14.129  -7.7890  0.00  0.00     0.000 C
ATOM    101  O5  NAG B   7       0.229 -15.365  -8.4810  0.00  0.00     0.000 O
BRANCH 97 104
ATOM    102   N  NAG B   7       2.359 -17.386  -6.1580  0.00  0.00     0.000 N
ATOM    104  HD  NAG B   7       2.681 -17.791  -5.4630  0.00  0.00     0.000 HD
ATOM    104   O  NAG B   7       3.704 -19.057  -5.4320  0.00  0.00     0.000 OA
ATOM    105   C  NAG B   7       3.368 -18.261  -6.3300  0.00  0.00     0.000 C
ATOM    106   C  NAG B   7       4.110 -18.265  -7.6230  0.00  0.00     0.000 C
ENDBRANCH 97 104
ATOM    107   O  NAG B   7      -1.500 -13.125  -9.1270  0.00  0.00     0.000 O
ATOM    109  HD  NAG B   7      -1.357 -13.676  -8.4750  0.00  0.00     0.000 HD
ATOM    109   O  NAG B   7      -1.500 -13.125  -9.1270  0.00  0.00     0.000 O
ATOM    111  HD  NAG B   7      -1.357 -13.676  -8.4750  0.00  0.00     0.000 HD
ENDBRANCH 95 98
ENDBRANCH 82 95
ENDBRANCH 81 85
ENDBRANCH 65 81
ENDBRANCH 64 67
ENDBRANCH 51 64
ENDBRANCH 50 54
ENDBRANCH 34 50
ENDBRANCH 33 36
ENDBRANCH 20 33
ENDBRANCH 19 23
ENDBRANCH 1 19
TORSDOF 19
ENDMDL
MODEL 12
REMARK VINA RESULT:      -8.2     13.158     16.476
ROOT
ATOM      1  C1  NAG B   1       7.570  -9.084  16.2390  0.00  0.00     0.000 C
ATOM      2  C2  NAG B   1       6.164  -9.648  16.0480  0.00  0.00     0.000 C
ATOM      3  C3  NAG B   1       6.191 -11.115  15.6700  0.00  0.00     0.000 C
ATOM      4  C4  NAG B   1       7.027 -11.193  14.3970  0.00  0.00     0.000 C
ATOM      5  C5  NAG B   1       8.458 -10.734  14.7060  0.00  0.00     0.000 C
ATOM      6  O5  NAG B   1       8.479  -9.365  15.1640  0.00  0.00     0.000 O
ATOM      7   O  NAG B   1       4.865 -11.645  15.4490  0.00  0.00     0.000 O
ATOM      9  HD  NAG B   1       4.733 -11.075  16.0870  0.00  0.00     0.000 HD
ATOM      9   O  NAG B   1       7.045 -12.522  13.9050  0.00  0.00     0.000 O
ATOM     11  HD  NAG B   1       6.913 -11.951  14.5430  0.00  0.00     0.000 HD
ATOM     11   C  NAG B   1       9.350 -10.935  13.4740  0.00  0.00     0.000 C
ATOM     12   O  NAG B   1      10.417  -9.988  13.4480  0.00  0.00     0.000 O
ATOM     14  HD  NAG B   1      10.286  -9.417  14.0850  0.00  0.00     0.000 HD
ENDROOT
BRANCH 2 16
ATOM     14   N  NAG B   1       5.295  -9.478  17.2260  0.00  0.00     0.000 N
ATOM     16  HD  NAG B   1       5.161  -8.974  17.9170  0.00  0.00     0.000 HD
ATOM     16   C  NAG B   1       4.283  -8.594  17.2710  0.00  0.00     0.000 C
ATOM     17   C  NAG B   1       4.013  -7.700  16.0910  0.00  0.00     0.000 C
ATOM     18   O  NAG B   1       3.547  -8.516  18.2550  0.00  0.00     0.000 OA
ENDBRANCH 2 16
BRANCH 1 19
ATOM     19  O4  BDP B   2       7.360  -7.678  16.2180  0.00  0.00     0.000 O
BRANCH 19 23
ATOM     20  C1  BDP B   2       9.305  -4.379  17.7260  0.00  0.00     0.000 C
ATOM     21  C2  BDP B   2      10.090  -5.239  16.7580  0.00  0.00     0.000 C
ATOM     22  C3  BDP B   2       9.177  -6.145  15.9640  0.00  0.00     0.000 C
ATOM     23  C4  BDP B   2       8.310  -6.934  16.9420  0.00  0.00     0.000 C
ATOM     24  C5  BDP B   2       7.567  -5.971  17.8460  0.00  0.00     0.000 C
ATOM     25  O5  BDP B   2       8.496  -5.187  18.5700  0.00  0.00     0.000 O
ATOM     26   O  BDP B   2      10.838  -4.428  15.8780  0.00  0.00     0.000 O
ATOM     28  HD  BDP B   2      10.588  -3.839  16.4610  0.00  0.00     0.000 HD
ATOM     28   O  BDP B   2       9.970  -7.005  15.1310  0.00  0.00     0.000 O
ATOM     30  HD  BDP B   2       9.720  -6.416  15.7140  0.00  0.00     0.000 HD
BRANCH 24 30
ATOM     30   C  BDP B   2       6.709  -6.677  18.8340  0.00  0.00     0.000 C
ATOM     31   O  BDP B   2       7.098  -7.798  19.2360  0.00  0.00     0.000 OA
ATOM     32   O  BDP B   2       5.638  -6.119  19.2080  0.00  0.00     0.000 OA
ENDBRANCH 24 30
BRANCH 20 33
ATOM     33  O3  NAG B   3      10.294  -3.747  18.5010  0.00  0.00     0.000 O
BRANCH 33 36
ATOM     34  C1  NAG B   3       9.471  -0.318  19.8100  0.00  0.00     0.000 C
ATOM     35  C2  NAG B   3       9.860  -1.385  18.8040  0.00  0.00     0.000 C
ATOM     36  C3  NAG B   3       9.730  -2.793  19.4040  0.00  0.00     0.000 C
ATOM     37  C4  NAG B   3      10.493  -2.852  20.7250  0.00  0.00     0.000 C
ATOM     38  C5  NAG B   3      10.086  -1.687  21.6230  0.00  0.00     0.000 C
ATOM     39  O5  NAG B   3      10.305  -0.459  20.9510  0.00  0.00     0.000 O
ATOM     40   O  NAG B   3      10.218  -4.091  21.3960  0.00  0.00     0.000 O
ATOM     42  HD  NAG B   3      10.005  -3.553  22.0400  0.00  0.00     0.000 HD
ATOM     42   C  NAG B   3      10.895  -1.592  22.9150  0.00  0.00     0.000 C
ATOM     43   O  NAG B   3      12.261  -1.290  22.6040  0.00  0.00     0.000 O
ATOM     45  HD  NAG B   3      12.047  -0.752  23.2480  0.00  0.00     0.000 HD
BRANCH 35 47
ATOM     45   N  NAG B   3       9.057  -1.235  17.5970  0.00  0.00     0.000 N
ATOM     47  HD  NAG B   3       8.780  -0.733  18.2460  0.00  0.00     0.000 HD
ATOM     47   C  NAG B   3       9.574  -1.249  16.3850  0.00  0.00     0.000 C
ATOM     48   C  NAG B   3       8.609  -1.061  15.2520  0.00  0.00     0.000 C
ATOM     49   O  NAG B   3      10.781  -1.381  16.1930  0.00  0.00     0.000 OA
ENDBRANCH 35 47
BRANCH 34 50
ATOM     50  O4  BDP B   4       9.754   0.892  19.1390  0.00  0.00     0.000 O
BRANCH 50 54
ATOM     51  C1  BDP B   4       8.794   4.837  18.8740  0.00  0.00     0.000 C
ATOM     52  C2  BDP B   4       9.620   4.469  20.1010  0.00  0.00     0.000 C
ATOM     53  C3  BDP B   4      10.212   3.109  19.8910  0.00  0.00     0.000 C
ATOM     54  C4  BDP B   4       9.082   2.089  19.5660  0.00  0.00     0.000 C
ATOM     55  C5  BDP B   4       8.154   2.584  18.4650  0.00  0.00     0.000 C
ATOM     56  O5  BDP B   4       7.727   3.917  18.7350  0.00  0.00     0.000 O
ATOM     57   O  BDP B   4      10.658   5.406  20.2920  0.00  0.00     0.000 O
ATOM     59  HD  BDP B   4      10.384   5.906  20.9430  0.00  0.00     0.000 HD
ATOM     59   O  BDP B   4      10.819   2.717  21.1390  0.00  0.00     0.000 O
ATOM     61  HD  BDP B   4      10.544   3.218  21.7910  0.00  0.00     0.000 HD
BRANCH 55 61
ATOM     61   C  BDP B   4       6.939   1.677  18.3880  0.00  0.00     0.000 C
ATOM     62   O  BDP B   4       6.001   1.876  19.2030  0.00  0.00     0.000 OA
ATOM     63   O  BDP B   4       6.927   0.763  17.5070  0.00  0.00     0.000 OA
ENDBRANCH 55 61
BRANCH 51 64
ATOM     64  O3  NAG B   5       8.294   6.172  19.0800  0.00  0.00     0.000 O
BRANCH 64 67
ATOM     65  C1  NAG B   5       8.829   8.505  16.2760  0.00  0.00     0.000 C
ATOM     66  C2  NAG B   5       9.172   7.597  17.4440  0.00  0.00     0.000 C
ATOM     67  C3  NAG B   5       7.938   6.813  17.8710  0.00  0.00     0.000 C
ATOM     68  C4  NAG B   5       6.749   7.751  18.1200  0.00  0.00     0.000 C
ATOM     69  C5  NAG B   5       6.541   8.682  16.9370  0.00  0.00     0.000 C
ATOM     70  O5  NAG B   5       7.767   9.362  16.6290  0.00  0.00     0.000 O
ATOM     71   O  NAG B   5       5.599   6.968  18.3620  0.00  0.00     0.000 O
ATOM     73  HD  NAG B   5       5.470   7.564  18.9760  0.00  0.00     0.000 HD
ATOM     73   C  NAG B   5       5.452   9.743  17.1500  0.00  0.00     0.000 C
ATOM     74   O  NAG B   5       5.841  10.628  18.2210  0.00  0.00     0.000 O
ATOM     76  HD  NAG B   5       5.712  11.224  18.8350  0.00  0.00     0.000 HD
BRANCH 66 78
ATOM     76   N  NAG B   5      10.229   6.642  17.0570  0.00  0.00     0.000 N
ATOM     78  HD  NAG B   5      10.160   7.350  17.5510  0.00  0.00     0.000 HD
ATOM     78   C  NAG B   5      11.448   6.547  17.6110  0.00  0.00     0.000 C
ATOM     79   C  NAG B   5      12.296   5.459  17.0100  0.00  0.00     0.000 C
ATOM     80   O  NAG B   5      11.853   7.315  18.5540  0.00  0.00     0.000 OA
ENDBRANCH 66 78
BRANCH 65 81
ATOM     81  O4  BDP B   6       9.976   9.280  15.9000  0.00  0.00     0.000 O
BRANCH 81 85
ATOM     82  C1  BDP B   6      11.997  10.013  12.1940  0.00  0.00     0.000 C
ATOM     83  C2  BDP B   6      11.395  11.213  12.9180  0.00  0.00     0.000 C
ATOM     84  C3  BDP B   6      11.070  10.921  14.3860  0.00  0.00     0.000 C
ATOM     85  C4  BDP B   6      10.231   9.652  14.5440  0.00  0.00     0.000 C
ATOM     86  C5  BDP B   6      10.921   8.522  13.7420  0.00  0.00     0.000 C
ATOM     87  O5  BDP B   6      11.131   8.897  12.3430  0.00  0.00     0.000 O
ATOM     88   O  BDP B   6      12.383  12.238  12.8430  0.00  0.00     0.000 O
ATOM     90  HD  BDP B   6      12.744  12.854  13.3330  0.00  0.00     0.000 HD
ATOM     90   O  BDP B   6      10.407  12.049  14.9640  0.00  0.00     0.000 O
ATOM     92  HD  BDP B   6      10.768  12.665  15.4540  0.00  0.00     0.000 HD
BRANCH 86 92
ATOM     92   C  BDP B   6      10.026   7.309  13.6590  0.00  0.00     0.000 C
ATOM     93   O  BDP B   6      10.377   6.234  14.2330  0.00  0.00     0.000 OA
ATOM     94   O  BDP B   6       8.933   7.430  13.0240  0.00  0.00     0.000 OA
ENDBRANCH 86 92
BRANCH 82 95
ATOM     95  O3  NAG B   7      12.080  10.325  10.7890  0.00  0.00     0.000 O
BRANCH 95 98
ATOM     96  C1  NAG B   7      14.473  10.576   8.0410  0.00  0.00     0.000 C
ATOM     97  C2  NAG B   7      13.151  10.804   8.7630  0.00  0.00     0.000 C
ATOM     98  C3  NAG B   7      13.293  10.058  10.0880  0.00  0.00     0.000 C
ATOM     99  C4  NAG B   7      13.537   8.574   9.8240  0.00  0.00     0.000 C
ATOM    100  C5  NAG B   7      14.730   8.374   8.8890  0.00  0.00     0.000 C
ATOM    101  O5  NAG B   7      14.549   9.179   7.7340  0.00  0.00     0.000 O
BRANCH 97 104
ATOM    102   N  NAG B   7      12.235  11.947   8.8800  0.00  0.00     0.000 N
ATOM    104  HD  NAG B   7      11.658  12.566   8.6940  0.00  0.00     0.000 HD
ATOM    104   O  NAG B   7      11.629  14.099   9.2420  0.00  0.00     0.000 OA
ATOM    105   C  NAG B   7      12.507  13.214   9.2450  0.00  0.00     0.000 C
ATOM    106   C  NAG B   7      13.897  13.569   9.6490  0.00  0.00     0.000 C
ENDBRANCH 97 104
ATOM    107   O  NAG B   7      16.135   6.756   7.9340  0.00  0.00     0.000 O
ATOM    109  HD  NAG B   7      16.102   7.548   8.2820  0.00  0.00     0.000 HD
ATOM    109   O  NAG B   7      16.135   6.756   7.9340  0.00  0.00     0.000 O
ATOM    111  HD  NAG B   7      16.102   7.548   8.2820  0.00  0.00     0.000 HD
ENDBRANCH 95 98
ENDBRANCH 82 95
ENDBRANCH 81 85
ENDBRANCH 65 81
ENDBRANCH 64 67
ENDBRANCH 51 64
ENDBRANCH 50 54
ENDBRANCH 34 50
ENDBRANCH 33 36
ENDBRANCH 20 33
ENDBRANCH 19 23
ENDBRANCH 1 19
TORSDOF 19
ENDMDL
MODEL 13
REMARK VINA RESULT:      -8.1      8.591     17.096
ROOT
ATOM      1  C1  NAG B   1      10.174   6.782  14.8400  0.00  0.00     0.000 C
ATOM      2  C2  NAG B   1       9.623   7.642  13.7060  0.00  0.00     0.000 C
ATOM      3  C3  NAG B   1       9.261   9.035  14.1790  0.00  0.00     0.000 C
ATOM      4  C4  NAG B   1       8.248   8.835  15.3010  0.00  0.00     0.000 C
ATOM      5  C5  NAG B   1       8.919   8.079  16.4550  0.00  0.00     0.000 C
ATOM      6  O5  NAG B   1       9.371   6.775  16.0310  0.00  0.00     0.000 O
ATOM      7   O  NAG B   1       8.702   9.843  13.1180  0.00  0.00     0.000 O
ATOM      9  HD  NAG B   1       9.285   9.360  12.6970  0.00  0.00     0.000 HD
ATOM      9   O  NAG B   1       7.774  10.090  15.7600  0.00  0.00     0.000 O
ATOM     11  HD  NAG B   1       8.358   9.607  15.3400  0.00  0.00     0.000 HD
ATOM     11   C  NAG B   1       7.961   7.987  17.6490  0.00  0.00     0.000 C
ATOM     12   O  NAG B   1       8.215   6.820  18.4290  0.00  0.00     0.000 O
ATOM     14  HD  NAG B   1       8.798   6.338  18.0080  0.00  0.00     0.000 HD
ENDROOT
BRANCH 2 16
ATOM     14   N  NAG B   1       9.534   6.886  12.4440  0.00  0.00     0.000 N
ATOM     16  HD  NAG B   1       9.215   6.922  11.6400  0.00  0.00     0.000 HD
ATOM     16   C  NAG B   1      10.319   7.134  11.3820  0.00  0.00     0.000 C
ATOM     17   C  NAG B   1      11.331   8.248  11.4390  0.00  0.00     0.000 C
ATOM     18   O  NAG B   1      10.249   6.448  10.3620  0.00  0.00     0.000 OA
ENDBRANCH 2 16
BRANCH 1 19
ATOM     19  O4  BDP B   2      10.103   5.465  14.3120  0.00  0.00     0.000 O
BRANCH 19 23
ATOM     20  C1  BDP B   2      12.045   1.902  15.0010  0.00  0.00     0.000 C
ATOM     21  C2  BDP B   2      11.048   2.339  16.0540  0.00  0.00     0.000 C
ATOM     22  C3  BDP B   2      10.114   3.400  15.5170  0.00  0.00     0.000 C
ATOM     23  C4  BDP B   2      10.954   4.536  14.9390  0.00  0.00     0.000 C
ATOM     24  C5  BDP B   2      11.901   3.981  13.8930  0.00  0.00     0.000 C
ATOM     25  O5  BDP B   2      12.754   3.021  14.4880  0.00  0.00     0.000 O
ATOM     26   O  BDP B   2      10.300   1.233  16.5090  0.00  0.00     0.000 O
ATOM     28  HD  BDP B   2      10.921   0.829  16.0610  0.00  0.00     0.000 HD
ATOM     28   O  BDP B   2       9.251   3.850  16.5730  0.00  0.00     0.000 O
ATOM     30  HD  BDP B   2       9.873   3.446  16.1250  0.00  0.00     0.000 HD
BRANCH 24 30
ATOM     30   C  BDP B   2      12.760   5.038  13.2960  0.00  0.00     0.000 C
ATOM     31   O  BDP B   2      12.808   5.101  12.0460  0.00  0.00     0.000 OA
ATOM     32   O  BDP B   2      13.398   5.804  14.0730  0.00  0.00     0.000 OA
ENDBRANCH 24 30
BRANCH 20 33
ATOM     33  O3  NAG B   3      12.938   1.071  15.7020  0.00  0.00     0.000 O
BRANCH 33 36
ATOM     34  C1  NAG B   3      14.219  -2.196  14.3480  0.00  0.00     0.000 C
ATOM     35  C2  NAG B   3      13.314  -1.246  15.1080  0.00  0.00     0.000 C
ATOM     36  C3  NAG B   3      13.673   0.220  14.8190  0.00  0.00     0.000 C
ATOM     37  C4  NAG B   3      15.166   0.431  15.0580  0.00  0.00     0.000 C
ATOM     38  C5  NAG B   3      15.976  -0.629  14.3160  0.00  0.00     0.000 C
ATOM     39  O5  NAG B   3      15.563  -1.923  14.7200  0.00  0.00     0.000 O
ATOM     40   O  NAG B   3      15.556   1.736  14.6020  0.00  0.00     0.000 O
ATOM     42  HD  NAG B   3      16.133   1.271  14.1540  0.00  0.00     0.000 HD
ATOM     42   C  NAG B   3      17.474  -0.574  14.6020  0.00  0.00     0.000 C
ATOM     43   O  NAG B   3      17.711  -0.898  15.9780  0.00  0.00     0.000 O
ATOM     45  HD  NAG B   3      18.288  -1.363  15.5290  0.00  0.00     0.000 HD
BRANCH 35 47
ATOM     45   N  NAG B   3      11.921  -1.530  14.7880  0.00  0.00     0.000 N
ATOM     47  HD  NAG B   3      12.475  -1.955  14.2750  0.00  0.00     0.000 HD
ATOM     47   C  NAG B   3      10.984  -1.653  15.7070  0.00  0.00     0.000 C
ATOM     48   C  NAG B   3       9.605  -1.967  15.2070  0.00  0.00     0.000 C
ATOM     49   O  NAG B   3      11.230  -1.544  16.9060  0.00  0.00     0.000 OA
ENDBRANCH 35 47
BRANCH 34 50
ATOM     50  O4  BDP B   4      13.830  -3.472  14.8120  0.00  0.00     0.000 O
BRANCH 50 54
ATOM     51  C1  BDP B   4      12.964  -7.228  13.5100  0.00  0.00     0.000 C
ATOM     52  C2  BDP B   4      14.373  -7.061  14.0650  0.00  0.00     0.000 C
ATOM     53  C3  BDP B   4      14.437  -5.778  14.8360  0.00  0.00     0.000 C
ATOM     54  C4  BDP B   4      13.975  -4.599  13.9320  0.00  0.00     0.000 C
ATOM     55  C5  BDP B   4      12.653  -4.887  13.2340  0.00  0.00     0.000 C
ATOM     56  O5  BDP B   4      12.687  -6.168  12.6120  0.00  0.00     0.000 O
ATOM     57   O  BDP B   4      14.693  -8.137  14.9210  0.00  0.00     0.000 O
ATOM     59  HD  BDP B   4      15.215  -8.643  14.4500  0.00  0.00     0.000 HD
ATOM     59   O  BDP B   4      15.821  -5.561  15.1770  0.00  0.00     0.000 O
ATOM     61  HD  BDP B   4      16.342  -6.067  14.7060  0.00  0.00     0.000 HD
BRANCH 55 61
ATOM     61   C  BDP B   4      12.402  -3.826  12.1780  0.00  0.00     0.000 C
ATOM     62   O  BDP B   4      11.490  -2.984  12.3910  0.00  0.00     0.000 OA
ATOM     63   O  BDP B   4      13.123  -3.835  11.1340  0.00  0.00     0.000 OA
ENDBRANCH 55 61
BRANCH 51 64
ATOM     64  O3  NAG B   5      12.919  -8.498  12.8310  0.00  0.00     0.000 O
BRANCH 64 67
ATOM     65  C1  NAG B   5      10.066 -10.794  13.2490  0.00  0.00     0.000 C
ATOM     66  C2  NAG B   5      11.373 -10.092  13.5710  0.00  0.00     0.000 C
ATOM     67  C3  NAG B   5      11.598  -8.943  12.5960  0.00  0.00     0.000 C
ATOM     68  C4  NAG B   5      11.471  -9.421  11.1430  0.00  0.00     0.000 C
ATOM     69  C5  NAG B   5      10.176 -10.192  10.9420  0.00  0.00     0.000 C
ATOM     70  O5  NAG B   5      10.077 -11.243  11.9130  0.00  0.00     0.000 O
ATOM     71   O  NAG B   5      11.536  -8.298  10.2900  0.00  0.00     0.000 O
ATOM     73  HD  NAG B   5      12.036  -8.830   9.8260  0.00  0.00     0.000 HD
ATOM     73   C  NAG B   5      10.023 -10.818   9.5480  0.00  0.00     0.000 C
ATOM     74   O  NAG B   5      11.049 -11.812   9.3490  0.00  0.00     0.000 O
ATOM     76  HD  NAG B   5      11.550 -12.345   8.8850  0.00  0.00     0.000 HD
BRANCH 66 78
ATOM     76   N  NAG B   5      11.233  -9.718  14.9920  0.00  0.00     0.000 N
ATOM     78  HD  NAG B   5      11.780 -10.182  14.5060  0.00  0.00     0.000 HD
ATOM     78   C  NAG B   5      12.158  -9.893  15.9480  0.00  0.00     0.000 C
ATOM     79   C  NAG B   5      11.726  -9.392  17.3000  0.00  0.00     0.000 C
ATOM     80   O  NAG B   5      13.297 -10.444  15.7340  0.00  0.00     0.000 OA
ENDBRANCH 66 78
BRANCH 65 81
ATOM     81  O4  BDP B   6       9.872 -11.905  14.1350  0.00  0.00     0.000 O
BRANCH 81 85
ATOM     82  C1  BDP B   6       6.864 -14.751  15.2380  0.00  0.00     0.000 C
ATOM     83  C2  BDP B   6       7.560 -14.945  13.8930  0.00  0.00     0.000 C
ATOM     84  C3  BDP B   6       8.863 -14.150  13.7780  0.00  0.00     0.000 C
ATOM     85  C4  BDP B   6       8.668 -12.676  14.1360  0.00  0.00     0.000 C
ATOM     86  C5  BDP B   6       7.927 -12.610  15.4930  0.00  0.00     0.000 C
ATOM     87  O5  BDP B   6       6.671 -13.362  15.4660  0.00  0.00     0.000 O
ATOM     88   O  BDP B   6       7.842 -16.339  13.8090  0.00  0.00     0.000 O
ATOM     90  HD  BDP B   6       8.472 -16.879  13.5610  0.00  0.00     0.000 HD
ATOM     90   O  BDP B   6       9.395 -14.291  12.4580  0.00  0.00     0.000 O
ATOM     92  HD  BDP B   6      10.025 -14.830  12.2100  0.00  0.00     0.000 HD
BRANCH 86 92
ATOM     92   C  BDP B   6       7.492 -11.195  15.7910  0.00  0.00     0.000 C
ATOM     93   O  BDP B   6       8.326 -10.377  16.2840  0.00  0.00     0.000 OA
ATOM     94   O  BDP B   6       6.295 -10.878  15.5090  0.00  0.00     0.000 OA
ENDBRANCH 86 92
BRANCH 82 95
ATOM     95  O3  NAG B   7       5.566 -15.373  15.1710  0.00  0.00     0.000 O
BRANCH 95 98
ATOM     96  C1  NAG B   7       3.631 -16.420  18.0860  0.00  0.00     0.000 C
ATOM     97  C2  NAG B   7       4.544 -16.603  16.8810  0.00  0.00     0.000 C
ATOM     98  C3  NAG B   7       4.661 -15.212  16.2620  0.00  0.00     0.000 C
ATOM     99  C4  NAG B   7       3.280 -14.710  15.8470  0.00  0.00     0.000 C
ATOM    100  C5  NAG B   7       2.302 -14.768  17.0220  0.00  0.00     0.000 C
ATOM    101  O5  NAG B   7       2.336 -16.070  17.5850  0.00  0.00     0.000 O
BRANCH 97 104
ATOM    102   N  NAG B   7       5.905 -17.048  17.2090  0.00  0.00     0.000 N
ATOM    104  HD  NAG B   7       6.763 -17.063  17.3300  0.00  0.00     0.000 HD
ATOM    104   O  NAG B   7       7.793 -18.283  17.0160  0.00  0.00     0.000 OA
ATOM    105   C  NAG B   7       6.615 -18.059  16.6750  0.00  0.00     0.000 C
ATOM    106   C  NAG B   7       5.980 -18.923  15.6400  0.00  0.00     0.000 C
ENDBRANCH 97 104
ATOM    107   O  NAG B   7       0.140 -14.176  17.7130  0.00  0.00     0.000 O
ATOM    109  HD  NAG B   7       0.970 -14.235  17.9550  0.00  0.00     0.000 HD
ATOM    109   O  NAG B   7       0.140 -14.176  17.7130  0.00  0.00     0.000 O
ATOM    111  HD  NAG B   7       0.970 -14.235  17.9550  0.00  0.00     0.000 HD
ENDBRANCH 95 98
ENDBRANCH 82 95
ENDBRANCH 81 85
ENDBRANCH 65 81
ENDBRANCH 64 67
ENDBRANCH 51 64
ENDBRANCH 50 54
ENDBRANCH 34 50
ENDBRANCH 33 36
ENDBRANCH 20 33
ENDBRANCH 19 23
ENDBRANCH 1 19
TORSDOF 19
ENDMDL
MODEL 14
REMARK VINA RESULT:      -8.0     11.210     18.291
ROOT
ATOM      1  C1  NAG B   1      -1.440 -17.545  -8.9500  0.00  0.00     0.000 C
ATOM      2  C2  NAG B   1      -1.901 -16.997 -10.2980  0.00  0.00     0.000 C
ATOM      3  C3  NAG B   1      -2.157 -18.104 -11.3000  0.00  0.00     0.000 C
ATOM      4  C4  NAG B   1      -0.843 -18.872 -11.4030  0.00  0.00     0.000 C
ATOM      5  C5  NAG B   1      -0.519 -19.501 -10.0420  0.00  0.00     0.000 C
ATOM      6  O5  NAG B   1      -0.359 -18.488  -9.0260  0.00  0.00     0.000 O
ATOM      7   O  NAG B   1      -2.557 -17.591 -12.5910  0.00  0.00     0.000 O
ATOM      9  HD  NAG B   1      -2.919 -17.024 -12.0440  0.00  0.00     0.000 HD
ATOM      9   O  NAG B   1      -0.947 -19.887 -12.3880  0.00  0.00     0.000 O
ATOM     11  HD  NAG B   1      -1.309 -19.321 -11.8420  0.00  0.00     0.000 HD
ATOM     11   C  NAG B   1       0.725 -20.390 -10.1580  0.00  0.00     0.000 C
ATOM     12   O  NAG B   1       1.434 -20.453  -8.9220  0.00  0.00     0.000 O
ATOM     14  HD  NAG B   1       1.072 -19.887  -8.3760  0.00  0.00     0.000 HD
ENDROOT
BRANCH 2 16
ATOM     14   N  NAG B   1      -3.088 -16.140 -10.1310  0.00  0.00     0.000 N
ATOM     16  HD  NAG B   1      -3.464 -15.581  -9.5860  0.00  0.00     0.000 HD
ATOM     16   C  NAG B   1      -3.076 -14.815 -10.3570  0.00  0.00     0.000 C
ATOM     17   C  NAG B   1      -1.799 -14.136 -10.7760  0.00  0.00     0.000 C
ATOM     18   O  NAG B   1      -4.100 -14.140 -10.2540  0.00  0.00     0.000 OA
ENDBRANCH 2 16
BRANCH 1 19
ATOM     19  O4  BDP B   2      -0.913 -16.397  -8.2980  0.00  0.00     0.000 O
BRANCH 19 23
ATOM     20  C1  BDP B   2       2.681 -15.362  -6.5790  0.00  0.00     0.000 C
ATOM     21  C2  BDP B   2       2.685 -15.562  -8.0810  0.00  0.00     0.000 C
ATOM     22  C3  BDP B   2       1.283 -15.519  -8.6440  0.00  0.00     0.000 C
ATOM     23  C4  BDP B   2       0.425 -16.524  -7.8800  0.00  0.00     0.000 C
ATOM     24  C5  BDP B   2       0.489 -16.218  -6.3970  0.00  0.00     0.000 C
ATOM     25  O5  BDP B   2       1.828 -16.309  -5.9520  0.00  0.00     0.000 O
ATOM     26   O  BDP B   2       3.479 -14.575  -8.7040  0.00  0.00     0.000 O
ATOM     28  HD  BDP B   2       3.698 -14.453  -7.8750  0.00  0.00     0.000 HD
ATOM     28   O  BDP B   2       1.328 -15.806 -10.0500  0.00  0.00     0.000 O
ATOM     30  HD  BDP B   2       1.547 -15.684  -9.2210  0.00  0.00     0.000 HD
BRANCH 24 30
ATOM     30   C  BDP B   2      -0.319 -17.170  -5.5910  0.00  0.00     0.000 C
ATOM     31   O  BDP B   2       0.267 -18.179  -5.1360  0.00  0.00     0.000 OA
ATOM     32   O  BDP B   2      -1.546 -16.920  -5.4160  0.00  0.00     0.000 OA
ENDBRANCH 24 30
BRANCH 20 33
ATOM     33  O3  NAG B   3       4.011 -15.613  -6.1980  0.00  0.00     0.000 O
BRANCH 33 36
ATOM     34  C1  NAG B   3       5.421 -13.962  -3.1260  0.00  0.00     0.000 C
ATOM     35  C2  NAG B   3       5.004 -14.114  -4.5760  0.00  0.00     0.000 C
ATOM     36  C3  NAG B   3       4.208 -15.410  -4.7970  0.00  0.00     0.000 C
ATOM     37  C4  NAG B   3       4.995 -16.589  -4.2320  0.00  0.00     0.000 C
ATOM     38  C5  NAG B   3       5.436 -16.294  -2.8000  0.00  0.00     0.000 C
ATOM     39  O5  NAG B   3       6.195 -15.097  -2.7650  0.00  0.00     0.000 O
ATOM     40   O  NAG B   3       4.184 -17.774  -4.2470  0.00  0.00     0.000 O
ATOM     42  HD  NAG B   3       4.401 -17.784  -3.4090  0.00  0.00     0.000 HD
ATOM     42   C  NAG B   3       6.342 -17.366  -2.2000  0.00  0.00     0.000 C
ATOM     43   O  NAG B   3       7.584 -17.399  -2.9140  0.00  0.00     0.000 O
ATOM     45  HD  NAG B   3       7.800 -17.409  -2.0760  0.00  0.00     0.000 HD
BRANCH 35 47
ATOM     45   N  NAG B   3       5.360 -13.136  -5.5960  0.00  0.00     0.000 N
ATOM     47  HD  NAG B   3       5.771 -13.891  -5.7010  0.00  0.00     0.000 HD
ATOM     47   C  NAG B   3       4.490 -12.296  -6.1200  0.00  0.00     0.000 C
ATOM     48   C  NAG B   3       5.018 -11.368  -7.1730  0.00  0.00     0.000 C
ATOM     49   O  NAG B   3       3.307 -12.290  -5.7840  0.00  0.00     0.000 OA
ENDBRANCH 35 47
BRANCH 34 50
ATOM     50  O4  BDP B   4       6.223 -12.800  -3.1290  0.00  0.00     0.000 O
BRANCH 50 54
ATOM     51  C1  BDP B   4       7.415  -9.670  -0.8190  0.00  0.00     0.000 C
ATOM     52  C2  BDP B   4       7.357 -11.008  -0.0890  0.00  0.00     0.000 C
ATOM     53  C3  BDP B   4       7.278 -12.105  -1.1060  0.00  0.00     0.000 C
ATOM     54  C4  BDP B   4       6.072 -11.856  -2.0560  0.00  0.00     0.000 C
ATOM     55  C5  BDP B   4       6.055 -10.438  -2.6110  0.00  0.00     0.000 C
ATOM     56  O5  BDP B   4       6.222  -9.490  -1.5600  0.00  0.00     0.000 O
ATOM     57   O  BDP B   4       8.513 -11.185   0.7020  0.00  0.00     0.000 O
ATOM     59  HD  BDP B   4       8.250 -11.023   1.5110  0.00  0.00     0.000 HD
ATOM     59   O  BDP B   4       7.030 -13.329  -0.3840  0.00  0.00     0.000 O
ATOM     61  HD  BDP B   4       6.768 -13.167   0.4250  0.00  0.00     0.000 HD
BRANCH 55 61
ATOM     61   C  BDP B   4       4.727 -10.186  -3.3020  0.00  0.00     0.000 C
ATOM     62   O  BDP B   4       3.736 -10.876  -2.9470  0.00  0.00     0.000 OA
ATOM     63   O  BDP B   4       4.678  -9.294  -4.2030  0.00  0.00     0.000 OA
ENDBRANCH 55 61
BRANCH 51 64
ATOM     64  O3  NAG B   5       7.555  -8.644   0.1820  0.00  0.00     0.000 O
BRANCH 64 67
ATOM     65  C1  NAG B   5      10.179  -6.189   1.0080  0.00  0.00     0.000 C
ATOM     66  C2  NAG B   5       9.223  -7.354   1.1980  0.00  0.00     0.000 C
ATOM     67  C3  NAG B   5       8.573  -7.713  -0.1310  0.00  0.00     0.000 C
ATOM     68  C4  NAG B   5       7.948  -6.476  -0.7920  0.00  0.00     0.000 C
ATOM     69  C5  NAG B   5       8.951  -5.336  -0.8540  0.00  0.00     0.000 C
ATOM     70  O5  NAG B   5       9.494  -5.090   0.4520  0.00  0.00     0.000 O
ATOM     71   O  NAG B   5       7.497  -6.832  -2.0810  0.00  0.00     0.000 O
ATOM     73  HD  NAG B   5       6.818  -6.348  -1.8450  0.00  0.00     0.000 HD
ATOM     73   C  NAG B   5       8.375  -4.015  -1.3840  0.00  0.00     0.000 C
ATOM     74   O  NAG B   5       7.360  -3.532  -0.4790  0.00  0.00     0.000 O
ATOM     76  HD  NAG B   5       6.682  -3.049  -0.2430  0.00  0.00     0.000 HD
BRANCH 66 78
ATOM     76   N  NAG B   5       9.075  -8.045   2.4930  0.00  0.00     0.000 N
ATOM     78  HD  NAG B   5       9.444  -8.202   1.7260  0.00  0.00     0.000 HD
ATOM     78   C  NAG B   5       9.730  -9.152   2.8760  0.00  0.00     0.000 C
ATOM     79   C  NAG B   5       9.376  -9.608   4.2660  0.00  0.00     0.000 C
ATOM     80   O  NAG B   5      10.569  -9.767   2.1270  0.00  0.00     0.000 OA
ENDBRANCH 66 78
BRANCH 65 81
ATOM     81  O4  BDP B   6      10.759  -5.816   2.2650  0.00  0.00     0.000 O
BRANCH 81 85
ATOM     82  C1  BDP B   6      14.282  -3.676   3.4350  0.00  0.00     0.000 C
ATOM     83  C2  BDP B   6      13.894  -3.643   1.9590  0.00  0.00     0.000 C
ATOM     84  C3  BDP B   6      12.445  -4.072   1.7150  0.00  0.00     0.000 C
ATOM     85  C4  BDP B   6      12.125  -5.411   2.3820  0.00  0.00     0.000 C
ATOM     86  C5  BDP B   6      12.592  -5.333   3.8550  0.00  0.00     0.000 C
ATOM     87  O5  BDP B   6      14.006  -4.966   3.9600  0.00  0.00     0.000 O
ATOM     88   O  BDP B   6      14.066  -2.289   1.5500  0.00  0.00     0.000 O
ATOM     90  HD  BDP B   6      13.676  -1.681   1.0720  0.00  0.00     0.000 HD
ATOM     90   O  BDP B   6      12.191  -4.127   0.3090  0.00  0.00     0.000 O
ATOM     92  HD  BDP B   6      11.801  -3.520  -0.1700  0.00  0.00     0.000 HD
BRANCH 86 92
ATOM     92   C  BDP B   6      12.525  -6.693   4.5060  0.00  0.00     0.000 C
ATOM     93   O  BDP B   6      11.692  -6.898   5.4390  0.00  0.00     0.000 OA
ATOM     94   O  BDP B   6      13.305  -7.594   4.0640  0.00  0.00     0.000 OA
ENDBRANCH 86 92
BRANCH 82 95
ATOM     95  O3  NAG B   7      15.702  -3.451   3.5360  0.00  0.00     0.000 O
BRANCH 95 98
ATOM     96  C1  NAG B   7      17.825  -1.437   5.7210  0.00  0.00     0.000 C
ATOM     97  C2  NAG B   7      17.288  -1.958   4.3940  0.00  0.00     0.000 C
ATOM     98  C3  NAG B   7      16.249  -3.010   4.7770  0.00  0.00     0.000 C
ATOM     99  C4  NAG B   7      16.912  -4.122   5.5870  0.00  0.00     0.000 C
ATOM    100  C5  NAG B   7      17.661  -3.549   6.7900  0.00  0.00     0.000 C
ATOM    101  O5  NAG B   7      18.528  -2.518   6.3440  0.00  0.00     0.000 O
BRANCH 97 104
ATOM    102   N  NAG B   7      16.578  -0.970   3.5700  0.00  0.00     0.000 N
ATOM    104  HD  NAG B   7      15.957  -0.547   3.1390  0.00  0.00     0.000 HD
ATOM    104   O  NAG B   7      16.073   0.198   1.6960  0.00  0.00     0.000 OA
ATOM    105   C  NAG B   7      16.802  -0.621   2.2890  0.00  0.00     0.000 C
ATOM    106   C  NAG B   7      17.943  -1.242   1.5580  0.00  0.00     0.000 C
ENDBRANCH 97 104
ATOM    107   O  NAG B   7      18.829  -4.127   8.7410  0.00  0.00     0.000 O
ATOM    109  HD  NAG B   7      18.265  -3.570   8.3920  0.00  0.00     0.000 HD
ATOM    109   O  NAG B   7      18.829  -4.127   8.7410  0.00  0.00     0.000 O
ATOM    111  HD  NAG B   7      18.265  -3.570   8.3920  0.00  0.00     0.000 HD
ENDBRANCH 95 98
ENDBRANCH 82 95
ENDBRANCH 81 85
ENDBRANCH 65 81
ENDBRANCH 64 67
ENDBRANCH 51 64
ENDBRANCH 50 54
ENDBRANCH 34 50
ENDBRANCH 33 36
ENDBRANCH 20 33
ENDBRANCH 19 23
ENDBRANCH 1 19
TORSDOF 19
ENDMDL
MODEL 15
REMARK VINA RESULT:      -8.0     12.623     19.183
ROOT
ATOM      1  C1  NAG B   1      -1.859 -16.145 -10.6860  0.00  0.00     0.000 C
ATOM      2  C2  NAG B   1      -2.347 -15.153 -11.7380  0.00  0.00     0.000 C
ATOM      3  C3  NAG B   1      -2.530 -15.809 -13.0910  0.00  0.00     0.000 C
ATOM      4  C4  NAG B   1      -1.171 -16.407 -13.4420  0.00  0.00     0.000 C
ATOM      5  C5  NAG B   1      -0.815 -17.486 -12.4120  0.00  0.00     0.000 C
ATOM      6  O5  NAG B   1      -0.722 -16.928 -11.0840  0.00  0.00     0.000 O
ATOM      7   O  NAG B   1      -2.955 -14.866 -14.1020  0.00  0.00     0.000 O
ATOM      9  HD  NAG B   1      -3.353 -14.571 -13.3920  0.00  0.00     0.000 HD
ATOM      9   O  NAG B   1      -1.209 -16.976 -14.7400  0.00  0.00     0.000 O
ATOM     11  HD  NAG B   1      -1.607 -16.680 -14.0300  0.00  0.00     0.000 HD
ATOM     11   C  NAG B   1       0.481 -18.195 -12.8230  0.00  0.00     0.000 C
ATOM     12   O  NAG B   1       1.187 -18.684 -11.6840  0.00  0.00     0.000 O
ATOM     14  HD  NAG B   1       0.789 -18.389 -10.9730  0.00  0.00     0.000 HD
ENDROOT
BRANCH 2 16
ATOM     14   N  NAG B   1      -3.337 -14.481 -10.8780  0.00  0.00     0.000 N
ATOM     16  HD  NAG B   1      -3.412 -13.965 -10.1860  0.00  0.00     0.000 HD
ATOM     16   C  NAG B   1      -3.652 -13.180 -10.9980  0.00  0.00     0.000 C
ATOM     17   C  NAG B   1      -2.961 -12.331 -12.0320  0.00  0.00     0.000 C
ATOM     18   O  NAG B   1      -4.520 -12.666 -10.2930  0.00  0.00     0.000 OA
ENDBRANCH 2 16
BRANCH 1 19
ATOM     19  O4  BDP B   2      -1.406 -15.305  -9.6340  0.00  0.00     0.000 O
BRANCH 19 23
ATOM     20  C1  BDP B   2       2.051 -14.924  -7.4310  0.00  0.00     0.000 C
ATOM     21  C2  BDP B   2       2.158 -14.619  -8.9110  0.00  0.00     0.000 C
ATOM     22  C3  BDP B   2       0.796 -14.381  -9.5220  0.00  0.00     0.000 C
ATOM     23  C4  BDP B   2      -0.097 -15.573  -9.1920  0.00  0.00     0.000 C
ATOM     24  C5  BDP B   2      -0.137 -15.773  -7.6890  0.00  0.00     0.000 C
ATOM     25  O5  BDP B   2       1.172 -16.018  -7.2090  0.00  0.00     0.000 O
ATOM     26   O  BDP B   2       2.978 -13.489  -9.1190  0.00  0.00     0.000 O
ATOM     28  HD  BDP B   2       3.139 -13.649  -8.2840  0.00  0.00     0.000 HD
ATOM     28   O  BDP B   2       0.939 -14.189 -10.9380  0.00  0.00     0.000 O
ATOM     30  HD  BDP B   2       1.101 -14.349 -10.1020  0.00  0.00     0.000 HD
BRANCH 24 30
ATOM     30   C  BDP B   2      -0.983 -16.931  -7.2990  0.00  0.00     0.000 C
ATOM     31   O  BDP B   2      -0.756 -18.025  -7.8630  0.00  0.00     0.000 OA
ATOM     32   O  BDP B   2      -1.886 -16.750  -6.4320  0.00  0.00     0.000 OA
ENDBRANCH 24 30
BRANCH 20 33
ATOM     33  O3  NAG B   3       3.356 -15.299  -7.0650  0.00  0.00     0.000 O
BRANCH 33 36
ATOM     34  C1  NAG B   3       5.012 -14.138  -3.8930  0.00  0.00     0.000 C
ATOM     35  C2  NAG B   3       4.610 -14.129  -5.3560  0.00  0.00     0.000 C
ATOM     36  C3  NAG B   3       3.556 -15.207  -5.6520  0.00  0.00     0.000 C
ATOM     37  C4  NAG B   3       4.053 -16.555  -5.1350  0.00  0.00     0.000 C
ATOM     38  C5  NAG B   3       4.511 -16.429  -3.6840  0.00  0.00     0.000 C
ATOM     39  O5  NAG B   3       5.511 -15.430  -3.5780  0.00  0.00     0.000 O
ATOM     40   O  NAG B   3       3.003 -17.531  -5.2220  0.00  0.00     0.000 O
ATOM     42  HD  NAG B   3       3.191 -17.627  -4.3820  0.00  0.00     0.000 HD
ATOM     42   C  NAG B   3       5.145 -17.700  -3.1250  0.00  0.00     0.000 C
ATOM     43   O  NAG B   3       6.368 -17.971  -3.8210  0.00  0.00     0.000 O
ATOM     45  HD  NAG B   3       6.556 -18.067  -2.9810  0.00  0.00     0.000 HD
BRANCH 35 47
ATOM     45   N  NAG B   3       5.217 -13.165  -6.2650  0.00  0.00     0.000 N
ATOM     47  HD  NAG B   3       5.520 -13.969  -6.3790  0.00  0.00     0.000 HD
ATOM     47   C  NAG B   3       4.544 -12.174  -6.8140  0.00  0.00     0.000 C
ATOM     48   C  NAG B   3       5.316 -11.285  -7.7430  0.00  0.00     0.000 C
ATOM     49   O  NAG B   3       3.346 -12.003  -6.5990  0.00  0.00     0.000 OA
ENDBRANCH 35 47
BRANCH 34 50
ATOM     50  O4  BDP B   4       6.048 -13.181  -3.8260  0.00  0.00     0.000 O
BRANCH 50 54
ATOM     51  C1  BDP B   4       7.595 -10.109  -1.6520  0.00  0.00     0.000 C
ATOM     52  C2  BDP B   4       7.682 -11.471  -0.9720  0.00  0.00     0.000 C
ATOM     53  C3  BDP B   4       7.437 -12.535  -1.9980  0.00  0.00     0.000 C
ATOM     54  C4  BDP B   4       6.079 -12.275  -2.7100  0.00  0.00     0.000 C
ATOM     55  C5  BDP B   4       5.948 -10.840  -3.2020  0.00  0.00     0.000 C
ATOM     56  O5  BDP B   4       6.288  -9.925  -2.1640  0.00  0.00     0.000 O
ATOM     57   O  BDP B   4       8.962 -11.654  -0.4050  0.00  0.00     0.000 O
ATOM     59  HD  BDP B   4       8.845 -11.524   0.4430  0.00  0.00     0.000 HD
ATOM     59   O  BDP B   4       7.335 -13.787  -1.2880  0.00  0.00     0.000 O
ATOM     61  HD  BDP B   4       7.218 -13.656  -0.4400  0.00  0.00     0.000 HD
BRANCH 55 61
ATOM     61   C  BDP B   4       4.516 -10.590  -3.6390  0.00  0.00     0.000 C
ATOM     62   O  BDP B   4       4.307  -9.687  -4.4910  0.00  0.00     0.000 OA
ATOM     63   O  BDP B   4       3.598 -11.301  -3.1270  0.00  0.00     0.000 OA
ENDBRANCH 55 61
BRANCH 51 64
ATOM     64  O3  NAG B   5       7.899  -9.114  -0.6560  0.00  0.00     0.000 O
BRANCH 64 67
ATOM     65  C1  NAG B   5      10.643  -6.696  -0.1920  0.00  0.00     0.000 C
ATOM     66  C2  NAG B   5       9.725  -7.867   0.1120  0.00  0.00     0.000 C
ATOM     67  C3  NAG B   5       8.854  -8.172  -1.1010  0.00  0.00     0.000 C
ATOM     68  C4  NAG B   5       8.135  -6.909  -1.5940  0.00  0.00     0.000 C
ATOM     69  C5  NAG B   5       9.121  -5.767  -1.7810  0.00  0.00     0.000 C
ATOM     70  O5  NAG B   5       9.881  -5.575  -0.5780  0.00  0.00     0.000 O
ATOM     71   O  NAG B   5       7.468  -7.211  -2.8010  0.00  0.00     0.000 O
ATOM     73  HD  NAG B   5       6.843  -6.737  -2.4330  0.00  0.00     0.000 HD
ATOM     73   C  NAG B   5       8.473  -4.425  -2.1510  0.00  0.00     0.000 C
ATOM     74   O  NAG B   5       7.631  -3.980  -1.0670  0.00  0.00     0.000 O
ATOM     76  HD  NAG B   5       7.006  -3.506  -0.7000  0.00  0.00     0.000 HD
BRANCH 66 78
ATOM     76   N  NAG B   5      10.721  -8.811   0.6550  0.00  0.00     0.000 N
ATOM     78  HD  NAG B   5       9.919  -8.548   0.8500  0.00  0.00     0.000 HD
ATOM     78   C  NAG B   5      10.498  -9.733   1.6050  0.00  0.00     0.000 C
ATOM     79   C  NAG B   5      11.711 -10.560   1.9340  0.00  0.00     0.000 C
ATOM     80   O  NAG B   5       9.362  -9.889   2.1810  0.00  0.00     0.000 OA
ENDBRANCH 66 78
BRANCH 65 81
ATOM     81  O4  BDP B   6      11.432  -6.375   0.9610  0.00  0.00     0.000 O
BRANCH 81 85
ATOM     82  C1  BDP B   6      14.491  -3.651   2.2170  0.00  0.00     0.000 C
ATOM     83  C2  BDP B   6      13.128  -3.065   1.8590  0.00  0.00     0.000 C
ATOM     84  C3  BDP B   6      12.018  -4.118   1.8250  0.00  0.00     0.000 C
ATOM     85  C4  BDP B   6      12.394  -5.318   0.9540  0.00  0.00     0.000 C
ATOM     86  C5  BDP B   6      13.800  -5.798   1.3870  0.00  0.00     0.000 C
ATOM     87  O5  BDP B   6      14.787  -4.718   1.3280  0.00  0.00     0.000 O
ATOM     88   O  BDP B   6      12.847  -2.107   2.8760  0.00  0.00     0.000 O
ATOM     90  HD  BDP B   6      12.191  -1.832   3.3710  0.00  0.00     0.000 HD
ATOM     90   O  BDP B   6      10.801  -3.518   1.3730  0.00  0.00     0.000 O
ATOM     92  HD  BDP B   6      10.146  -3.243   1.8680  0.00  0.00     0.000 HD
BRANCH 86 92
ATOM     92   C  BDP B   6      14.332  -6.824   0.4160  0.00  0.00     0.000 C
ATOM     93   O  BDP B   6      14.871  -7.883   0.8590  0.00  0.00     0.000 OA
ATOM     94   O  BDP B   6      14.192  -6.586  -0.8240  0.00  0.00     0.000 OA
ENDBRANCH 86 92
BRANCH 82 95
ATOM     95  O3  NAG B   7      15.489  -2.628   2.0280  0.00  0.00     0.000 O
BRANCH 95 98
ATOM     96  C1  NAG B   7      18.099  -0.890   3.9010  0.00  0.00     0.000 C
ATOM     97  C2  NAG B   7      17.026  -1.055   2.8330  0.00  0.00     0.000 C
ATOM     98  C3  NAG B   7      16.537  -2.494   2.9860  0.00  0.00     0.000 C
ATOM     99  C4  NAG B   7      17.697  -3.462   2.7670  0.00  0.00     0.000 C
ATOM    100  C5  NAG B   7      18.872  -3.123   3.6860  0.00  0.00     0.000 C
ATOM    101  O5  NAG B   7      19.188  -1.747   3.5400  0.00  0.00     0.000 O
BRANCH 97 104
ATOM    102   N  NAG B   7      15.866  -0.170   3.0050  0.00  0.00     0.000 N
ATOM    104  HD  NAG B   7      15.069   0.124   3.1780  0.00  0.00     0.000 HD
ATOM    104   O  NAG B   7      14.229   1.262   2.3720  0.00  0.00     0.000 OA
ATOM    105   C  NAG B   7      15.250   0.603   2.0910  0.00  0.00     0.000 C
ATOM    106   C  NAG B   7      15.795   0.660   0.7050  0.00  0.00     0.000 C
ENDBRANCH 97 104
ATOM    107   O  NAG B   7      20.978  -3.859   4.4140  0.00  0.00     0.000 O
ATOM    109  HD  NAG B   7      20.234  -3.487   4.6570  0.00  0.00     0.000 HD
ATOM    109   O  NAG B   7      20.978  -3.859   4.4140  0.00  0.00     0.000 O
ATOM    111  HD  NAG B   7      20.234  -3.487   4.6570  0.00  0.00     0.000 HD
ENDBRANCH 95 98
ENDBRANCH 82 95
ENDBRANCH 81 85
ENDBRANCH 65 81
ENDBRANCH 64 67
ENDBRANCH 51 64
ENDBRANCH 50 54
ENDBRANCH 34 50
ENDBRANCH 33 36
ENDBRANCH 20 33
ENDBRANCH 19 23
ENDBRANCH 1 19
TORSDOF 19
ENDMDL
MODEL 16
REMARK VINA RESULT:      -8.0     10.585     21.384
ROOT
ATOM      1  C1  NAG B   1      20.361  -3.210  -8.3490  0.00  0.00     0.000 C
ATOM      2  C2  NAG B   1      20.356  -4.137  -9.5620  0.00  0.00     0.000 C
ATOM      3  C3  NAG B   1      20.491  -3.368 -10.8600  0.00  0.00     0.000 C
ATOM      4  C4  NAG B   1      19.324  -2.385 -10.8750  0.00  0.00     0.000 C
ATOM      5  C5  NAG B   1      19.475  -1.408  -9.7030  0.00  0.00     0.000 C
ATOM      6  O5  NAG B   1      19.449  -2.104  -8.4380  0.00  0.00     0.000 O
ATOM      7   O  NAG B   1      20.448  -4.236 -12.0160  0.00  0.00     0.000 O
ATOM      9  HD  NAG B   1      20.857  -4.725 -11.4300  0.00  0.00     0.000 HD
ATOM      9   O  NAG B   1      19.306  -1.669 -12.0990  0.00  0.00     0.000 O
ATOM     11  HD  NAG B   1      19.715  -2.158 -11.5120  0.00  0.00     0.000 HD
ATOM     11   C  NAG B   1      18.389  -0.328  -9.7790  0.00  0.00     0.000 C
ATOM     12   O  NAG B   1      18.057   0.165  -8.4820  0.00  0.00     0.000 O
ATOM     14  HD  NAG B   1      18.466  -0.324  -7.8960  0.00  0.00     0.000 HD
ENDROOT
BRANCH 2 16
ATOM     14   N  NAG B   1      20.156  -5.597  -9.5510  0.00  0.00     0.000 N
ATOM     16  HD  NAG B   1      20.274  -6.313 -10.0240  0.00  0.00     0.000 HD
ATOM     16   C  NAG B   1      21.141  -6.472  -9.2780  0.00  0.00     0.000 C
ATOM     17   C  NAG B   1      22.532  -5.972  -8.9930  0.00  0.00     0.000 C
ATOM     18   O  NAG B   1      20.924  -7.682  -9.2300  0.00  0.00     0.000 OA
ENDBRANCH 2 16
BRANCH 1 19
ATOM     19  O4  BDP B   2      19.868  -4.040  -7.3060  0.00  0.00     0.000 O
BRANCH 19 23
ATOM     20  C1  BDP B   2      17.056  -3.684  -4.3220  0.00  0.00     0.000 C
ATOM     21  C2  BDP B   2      16.531  -3.703  -5.7420  0.00  0.00     0.000 C
ATOM     22  C3  BDP B   2      17.565  -4.248  -6.7010  0.00  0.00     0.000 C
ATOM     23  C4  BDP B   2      18.857  -3.456  -6.5210  0.00  0.00     0.000 C
ATOM     24  C5  BDP B   2      19.289  -3.519  -5.0690  0.00  0.00     0.000 C
ATOM     25  O5  BDP B   2      18.278  -2.963  -4.2500  0.00  0.00     0.000 O
ATOM     26   O  BDP B   2      15.355  -4.478  -5.8190  0.00  0.00     0.000 O
ATOM     28  HD  BDP B   2      15.443  -4.412  -4.9600  0.00  0.00     0.000 HD
ATOM     28   O  BDP B   2      17.060  -4.160  -8.0430  0.00  0.00     0.000 O
ATOM     30  HD  BDP B   2      17.148  -4.093  -7.1840  0.00  0.00     0.000 HD
BRANCH 24 30
ATOM     30   C  BDP B   2      20.540  -2.754  -4.8220  0.00  0.00     0.000 C
ATOM     31   O  BDP B   2      21.606  -3.407  -4.7490  0.00  0.00     0.000 OA
ATOM     32   O  BDP B   2      20.462  -1.499  -4.6910  0.00  0.00     0.000 OA
ENDBRANCH 24 30
BRANCH 20 33
ATOM     33  O3  NAG B   3      16.067  -2.989  -3.6020  0.00  0.00     0.000 O
BRANCH 33 36
ATOM     34  C1  NAG B   3      14.764  -4.092  -0.2500  0.00  0.00     0.000 C
ATOM     35  C2  NAG B   3      14.833  -3.961  -1.7600  0.00  0.00     0.000 C
ATOM     36  C3  NAG B   3      16.133  -3.273  -2.2030  0.00  0.00     0.000 C
ATOM     37  C4  NAG B   3      16.295  -1.960  -1.4400  0.00  0.00     0.000 C
ATOM     38  C5  NAG B   3      16.123  -2.194   0.0590  0.00  0.00     0.000 C
ATOM     39  O5  NAG B   3      14.863  -2.792   0.3130  0.00  0.00     0.000 O
ATOM     40   O  NAG B   3      17.595  -1.404  -1.6900  0.00  0.00     0.000 O
ATOM     42  HD  NAG B   3      17.629  -1.411  -0.8250  0.00  0.00     0.000 HD
ATOM     42   C  NAG B   3      16.140  -0.914   0.8900  0.00  0.00     0.000 C
ATOM     43   O  NAG B   3      14.998  -0.114   0.5600  0.00  0.00     0.000 O
ATOM     45  HD  NAG B   3      15.031  -0.121   1.4250  0.00  0.00     0.000 HD
BRANCH 35 47
ATOM     45   N  NAG B   3      14.682  -5.275  -2.3720  0.00  0.00     0.000 N
ATOM     47  HD  NAG B   3      14.782  -5.317  -1.5130  0.00  0.00     0.000 HD
ATOM     47   C  NAG B   3      13.864  -5.507  -3.3800  0.00  0.00     0.000 C
ATOM     48   C  NAG B   3      13.815  -6.921  -3.8790  0.00  0.00     0.000 C
ATOM     49   O  NAG B   3      13.162  -4.623  -3.8660  0.00  0.00     0.000 OA
ENDBRANCH 35 47
BRANCH 34 50
ATOM     50  O4  BDP B   4      13.479  -4.631  -0.0200  0.00  0.00     0.000 O
BRANCH 50 54
ATOM     51  C1  BDP B   4      11.625  -7.594   2.0620  0.00  0.00     0.000 C
ATOM     52  C2  BDP B   4      11.435  -6.199   2.6450  0.00  0.00     0.000 C
ATOM     53  C3  BDP B   4      11.831  -5.189   1.6110  0.00  0.00     0.000 C
ATOM     54  C4  BDP B   4      13.282  -5.475   1.1270  0.00  0.00     0.000 C
ATOM     55  C5  BDP B   4      13.486  -6.934   0.7400  0.00  0.00     0.000 C
ATOM     56  O5  BDP B   4      12.994  -7.794   1.7630  0.00  0.00     0.000 O
ATOM     57   O  BDP B   4      10.085  -5.996   3.0030  0.00  0.00     0.000 O
ATOM     59  HD  BDP B   4      10.072  -6.079   3.8650  0.00  0.00     0.000 HD
ATOM     59   O  BDP B   4      11.825  -3.901   2.2590  0.00  0.00     0.000 O
ATOM     61  HD  BDP B   4      11.813  -3.984   3.1210  0.00  0.00     0.000 HD
BRANCH 55 61
ATOM     61   C  BDP B   4      14.968  -7.195   0.5380  0.00  0.00     0.000 C
ATOM     62   O  BDP B   4      15.735  -7.046   1.5250  0.00  0.00     0.000 OA
ATOM     63   O  BDP B   4      15.363  -7.553  -0.6140  0.00  0.00     0.000 OA
ENDBRANCH 55 61
BRANCH 51 64
ATOM     64  O3  NAG B   5      11.175  -8.537   3.0550  0.00  0.00     0.000 O
BRANCH 64 67
ATOM     65  C1  NAG B   5       9.539 -11.623   1.8750  0.00  0.00     0.000 C
ATOM     66  C2  NAG B   5       9.713 -10.147   2.1900  0.00  0.00     0.000 C
ATOM     67  C3  NAG B   5      11.160  -9.867   2.5750  0.00  0.00     0.000 C
ATOM     68  C4  NAG B   5      11.629 -10.816   3.6860  0.00  0.00     0.000 C
ATOM     69  C5  NAG B   5      11.329 -12.261   3.3210  0.00  0.00     0.000 C
ATOM     70  O5  NAG B   5       9.942 -12.401   2.9790  0.00  0.00     0.000 O
ATOM     71   O  NAG B   5      13.011 -10.618   3.8960  0.00  0.00     0.000 O
ATOM     73  HD  NAG B   5      12.770 -10.678   4.7260  0.00  0.00     0.000 HD
ATOM     73   C  NAG B   5      11.648 -13.273   4.4300  0.00  0.00     0.000 C
ATOM     74   O  NAG B   5      10.801 -13.023   5.5710  0.00  0.00     0.000 O
ATOM     76  HD  NAG B   5      10.560 -13.083   6.4010  0.00  0.00     0.000 HD
BRANCH 66 78
ATOM     76   N  NAG B   5       8.543  -9.277   1.9630  0.00  0.00     0.000 N
ATOM     78  HD  NAG B   5       9.346  -9.361   1.6480  0.00  0.00     0.000 HD
ATOM     78   C  NAG B   5       8.386  -8.417   0.9450  0.00  0.00     0.000 C
ATOM     79   C  NAG B   5       7.072  -7.683   0.9780  0.00  0.00     0.000 C
ATOM     80   O  NAG B   5       9.273  -8.231   0.0370  0.00  0.00     0.000 OA
ENDBRANCH 66 78
BRANCH 65 81
ATOM     81  O4  BDP B   6       8.169 -11.901   1.5580  0.00  0.00     0.000 O
BRANCH 81 85
ATOM     82  C1  BDP B   6       5.856 -14.249  -1.1800  0.00  0.00     0.000 C
ATOM     83  C2  BDP B   6       6.407 -14.950   0.0590  0.00  0.00     0.000 C
ATOM     84  C3  BDP B   6       6.850 -13.970   1.1490  0.00  0.00     0.000 C
ATOM     85  C4  BDP B   6       7.796 -12.898   0.6040  0.00  0.00     0.000 C
ATOM     86  C5  BDP B   6       7.147 -12.289  -0.6620  0.00  0.00     0.000 C
ATOM     87  O5  BDP B   6       6.816 -13.315  -1.6520  0.00  0.00     0.000 O
ATOM     88   O  BDP B   6       5.338 -15.755   0.5480  0.00  0.00     0.000 O
ATOM     90  HD  BDP B   6       4.962 -15.984   1.2930  0.00  0.00     0.000 HD
ATOM     90   O  BDP B   6       7.457 -14.690   2.2240  0.00  0.00     0.000 O
ATOM     92  HD  BDP B   6       7.081 -14.919   2.9690  0.00  0.00     0.000 HD
BRANCH 86 92
ATOM     92   C  BDP B   6       8.128 -11.397  -1.3840  0.00  0.00     0.000 C
ATOM     93   O  BDP B   6       9.330 -11.774  -1.5220  0.00  0.00     0.000 OA
ATOM     94   O  BDP B   6       7.689 -10.298  -1.8470  0.00  0.00     0.000 OA
ENDBRANCH 86 92
BRANCH 82 95
ATOM     95  O3  NAG B   7       5.657 -15.238  -2.2100  0.00  0.00     0.000 O
BRANCH 95 98
ATOM     96  C1  NAG B   7       3.148 -16.571  -4.5060  0.00  0.00     0.000 C
ATOM     97  C2  NAG B   7       4.491 -16.515  -3.7890  0.00  0.00     0.000 C
ATOM     98  C3  NAG B   7       4.424 -15.255  -2.9280  0.00  0.00     0.000 C
ATOM     99  C4  NAG B   7       4.213 -14.031  -3.8160  0.00  0.00     0.000 C
ATOM    100  C5  NAG B   7       2.990 -14.213  -4.7150  0.00  0.00     0.000 C
ATOM    101  O5  NAG B   7       3.101 -15.452  -5.3980  0.00  0.00     0.000 O
BRANCH 97 104
ATOM    102   N  NAG B   7       4.937 -17.464  -2.7590  0.00  0.00     0.000 N
ATOM    104  HD  NAG B   7       5.342 -17.814  -2.0780  0.00  0.00     0.000 HD
ATOM    104   O  NAG B   7       5.934 -19.323  -1.9360  0.00  0.00     0.000 OA
ATOM    105   C  NAG B   7       5.559 -18.648  -2.9140  0.00  0.00     0.000 C
ATOM    106   C  NAG B   7       5.818 -19.156  -4.2920  0.00  0.00     0.000 C
ENDBRANCH 97 104
ATOM    107   O  NAG B   7       1.595 -13.122  -6.2540  0.00  0.00     0.000 O
ATOM    109  HD  NAG B   7       1.620 -13.680  -5.5920  0.00  0.00     0.000 HD
ATOM    109   O  NAG B   7       1.595 -13.122  -6.2540  0.00  0.00     0.000 O
ATOM    111  HD  NAG B   7       1.620 -13.680  -5.5920  0.00  0.00     0.000 HD
ENDBRANCH 95 98
ENDBRANCH 82 95
ENDBRANCH 81 85
ENDBRANCH 65 81
ENDBRANCH 64 67
ENDBRANCH 51 64
ENDBRANCH 50 54
ENDBRANCH 34 50
ENDBRANCH 33 36
ENDBRANCH 20 33
ENDBRANCH 19 23
ENDBRANCH 1 19
TORSDOF 19
ENDMDL
MODEL 17
REMARK VINA RESULT:      -8.0     13.026     16.640
ROOT
ATOM      1  C1  NAG B   1       7.606  -9.134  15.9150  0.00  0.00     0.000 C
ATOM      2  C2  NAG B   1       6.141  -9.550  16.0170  0.00  0.00     0.000 C
ATOM      3  C3  NAG B   1       5.962 -11.039  15.8040  0.00  0.00     0.000 C
ATOM      4  C4  NAG B   1       6.554 -11.330  14.4290  0.00  0.00     0.000 C
ATOM      5  C5  NAG B   1       8.054 -11.010  14.4500  0.00  0.00     0.000 C
ATOM      6  O5  NAG B   1       8.285  -9.616  14.7440  0.00  0.00     0.000 O
ATOM      7   O  NAG B   1       4.572 -11.435  15.8610  0.00  0.00     0.000 O
ATOM      9  HD  NAG B   1       4.608 -10.796  16.4440  0.00  0.00     0.000 HD
ATOM      9   O  NAG B   1       6.358 -12.693  14.0910  0.00  0.00     0.000 O
ATOM     11  HD  NAG B   1       6.395 -12.054  14.6750  0.00  0.00     0.000 HD
ATOM     11   C  NAG B   1       8.696 -11.424  13.1200  0.00  0.00     0.000 C
ATOM     12   O  NAG B   1       9.829 -10.611  12.8170  0.00  0.00     0.000 O
ATOM     14  HD  NAG B   1       9.865  -9.972  13.4000  0.00  0.00     0.000 HD
ENDROOT
BRANCH 2 16
ATOM     14   N  NAG B   1       5.567  -9.119  17.3040  0.00  0.00     0.000 N
ATOM     16  HD  NAG B   1       5.604  -8.492  17.9000  0.00  0.00     0.000 HD
ATOM     16   C  NAG B   1       4.610  -8.181  17.4040  0.00  0.00     0.000 C
ATOM     17   C  NAG B   1       4.094  -7.498  16.1650  0.00  0.00     0.000 C
ATOM     18   O  NAG B   1       4.119  -7.883  18.4930  0.00  0.00     0.000 OA
ENDBRANCH 2 16
BRANCH 1 19
ATOM     19  O4  BDP B   2       7.533  -7.722  15.7720  0.00  0.00     0.000 O
BRANCH 19 23
ATOM     20  C1  BDP B   2      10.067  -4.552  16.4560  0.00  0.00     0.000 C
ATOM     21  C2  BDP B   2      10.563  -5.616  15.4990  0.00  0.00     0.000 C
ATOM     22  C3  BDP B   2       9.427  -6.482  15.0050  0.00  0.00     0.000 C
ATOM     23  C4  BDP B   2       8.675  -7.029  16.2150  0.00  0.00     0.000 C
ATOM     24  C5  BDP B   2       8.219  -5.877  17.0880  0.00  0.00     0.000 C
ATOM     25  O5  BDP B   2       9.345  -5.141  17.5280  0.00  0.00     0.000 O
ATOM     26   O  BDP B   2      11.220  -5.020  14.4010  0.00  0.00     0.000 O
ATOM     28  HD  BDP B   2      11.146  -4.338  14.9300  0.00  0.00     0.000 HD
ATOM     28   O  BDP B   2       9.955  -7.531  14.1780  0.00  0.00     0.000 O
ATOM     30  HD  BDP B   2       9.882  -6.849  14.7070  0.00  0.00     0.000 HD
BRANCH 24 30
ATOM     30   C  BDP B   2       7.486  -6.342  18.2950  0.00  0.00     0.000 C
ATOM     31   O  BDP B   2       7.859  -7.420  18.8130  0.00  0.00     0.000 OA
ATOM     32   O  BDP B   2       6.530  -5.637  18.7280  0.00  0.00     0.000 OA
ENDBRANCH 24 30
BRANCH 20 33
ATOM     33  O3  NAG B   3      11.245  -3.969  16.9570  0.00  0.00     0.000 O
BRANCH 33 36
ATOM     34  C1  NAG B   3      11.449  -0.256  17.5280  0.00  0.00     0.000 C
ATOM     35  C2  NAG B   3      11.514  -1.569  16.7720  0.00  0.00     0.000 C
ATOM     36  C3  NAG B   3      10.981  -2.732  17.6240  0.00  0.00     0.000 C
ATOM     37  C4  NAG B   3      11.692  -2.736  18.9740  0.00  0.00     0.000 C
ATOM     38  C5  NAG B   3      11.639  -1.347  19.6050  0.00  0.00     0.000 C
ATOM     39  O5  NAG B   3      12.205  -0.394  18.7220  0.00  0.00     0.000 O
ATOM     40   O  NAG B   3      11.069  -3.685  19.8540  0.00  0.00     0.000 O
ATOM     42  HD  NAG B   3      11.020  -2.989  20.3680  0.00  0.00     0.000 HD
ATOM     42   C  NAG B   3      12.439  -1.227  20.9000  0.00  0.00     0.000 C
ATOM     43   O  NAG B   3      13.834  -1.394  20.6190  0.00  0.00     0.000 O
ATOM     45  HD  NAG B   3      13.785  -0.699  21.1330  0.00  0.00     0.000 HD
BRANCH 35 47
ATOM     45   N  NAG B   3      12.043  -1.639  15.4160  0.00  0.00     0.000 N
ATOM     47  HD  NAG B   3      12.569  -2.006  15.9980  0.00  0.00     0.000 HD
ATOM     47   C  NAG B   3      11.283  -1.850  14.3590  0.00  0.00     0.000 C
ATOM     48   C  NAG B   3      11.991  -1.913  13.0380  0.00  0.00     0.000 C
ATOM     49   O  NAG B   3      10.068  -2.012  14.4530  0.00  0.00     0.000 OA
ENDBRANCH 35 47
BRANCH 34 50
ATOM     50  O4  BDP B   4      12.072   0.663  16.6550  0.00  0.00     0.000 O
BRANCH 50 54
ATOM     51  C1  BDP B   4      11.812   4.494  15.3090  0.00  0.00     0.000 C
ATOM     52  C2  BDP B   4      12.838   4.281  16.4160  0.00  0.00     0.000 C
ATOM     53  C3  BDP B   4      13.100   2.813  16.5520  0.00  0.00     0.000 C
ATOM     54  C4  BDP B   4      11.759   2.060  16.7870  0.00  0.00     0.000 C
ATOM     55  C5  BDP B   4      10.690   2.450  15.7750  0.00  0.00     0.000 C
ATOM     56  O5  BDP B   4      10.595   3.868  15.6740  0.00  0.00     0.000 O
ATOM     57   O  BDP B   4      14.044   4.944  16.1000  0.00  0.00     0.000 O
ATOM     59  HD  BDP B   4      14.038   5.655  16.5940  0.00  0.00     0.000 HD
ATOM     59   O  BDP B   4      13.919   2.639  17.7260  0.00  0.00     0.000 O
ATOM     61  HD  BDP B   4      13.913   3.350  18.2200  0.00  0.00     0.000 HD
BRANCH 55 61
ATOM     61   C  BDP B   4       9.351   1.890  16.2200  0.00  0.00     0.000 C
ATOM     62   O  BDP B   4       8.939   0.836  15.6690  0.00  0.00     0.000 OA
ATOM     63   O  BDP B   4       8.712   2.509  17.1250  0.00  0.00     0.000 OA
ENDBRANCH 55 61
BRANCH 51 64
ATOM     64  O3  NAG B   5      11.631   5.915  15.1610  0.00  0.00     0.000 O
BRANCH 64 67
ATOM     65  C1  NAG B   5      12.248   8.192  12.3270  0.00  0.00     0.000 C
ATOM     66  C2  NAG B   5      12.441   7.544  13.6870  0.00  0.00     0.000 C
ATOM     67  C3  NAG B   5      11.549   6.315  13.8070  0.00  0.00     0.000 C
ATOM     68  C4  NAG B   5      10.092   6.656  13.4630  0.00  0.00     0.000 C
ATOM     69  C5  NAG B   5      10.010   7.383  12.1300  0.00  0.00     0.000 C
ATOM     70  O5  NAG B   5      10.890   8.517  12.1370  0.00  0.00     0.000 O
ATOM     71   O  NAG B   5       9.342   5.460  13.4400  0.00  0.00     0.000 O
ATOM     73  HD  NAG B   5       8.765   5.957  13.8550  0.00  0.00     0.000 HD
ATOM     73   C  NAG B   5       8.603   7.876  11.7640  0.00  0.00     0.000 C
ATOM     74   O  NAG B   5       8.174   8.865  12.7230  0.00  0.00     0.000 O
ATOM     76  HD  NAG B   5       7.597   9.362  13.1370  0.00  0.00     0.000 HD
BRANCH 66 78
ATOM     76   N  NAG B   5      13.909   7.400  13.7270  0.00  0.00     0.000 N
ATOM     78  HD  NAG B   5      13.285   7.708  14.2420  0.00  0.00     0.000 HD
ATOM     78   C  NAG B   5      14.690   7.577  14.8040  0.00  0.00     0.000 C
ATOM     79   C  NAG B   5      16.151   7.339  14.5300  0.00  0.00     0.000 C
ATOM     80   O  NAG B   5      14.237   7.925  15.9520  0.00  0.00     0.000 OA
ENDBRANCH 66 78
BRANCH 65 81
ATOM     81  O4  BDP B   6      13.051   9.375  12.2270  0.00  0.00     0.000 O
BRANCH 81 85
ATOM     82  C1  BDP B   6      14.023  12.467   9.4240  0.00  0.00     0.000 C
ATOM     83  C2  BDP B   6      12.643  12.514  10.0750  0.00  0.00     0.000 C
ATOM     84  C3  BDP B   6      12.547  11.639  11.3280  0.00  0.00     0.000 C
ATOM     85  C4  BDP B   6      13.032  10.211  11.0670  0.00  0.00     0.000 C
ATOM     86  C5  BDP B   6      14.414  10.296  10.3780  0.00  0.00     0.000 C
ATOM     87  O5  BDP B   6      14.370  11.114   9.1650  0.00  0.00     0.000 O
ATOM     88   O  BDP B   6      12.436  13.878  10.4290  0.00  0.00     0.000 O
ATOM     90  HD  BDP B   6      12.122  14.359  11.0770  0.00  0.00     0.000 HD
ATOM     90   O  BDP B   6      11.203  11.643  11.8140  0.00  0.00     0.000 O
ATOM     92  HD  BDP B   6      10.889  12.124  12.4620  0.00  0.00     0.000 HD
BRANCH 86 92
ATOM     92   C  BDP B   6      14.842   8.937   9.8800  0.00  0.00     0.000 C
ATOM     93   O  BDP B   6      14.343   8.480   8.8070  0.00  0.00     0.000 OA
ATOM     94   O  BDP B   6      15.715   8.312  10.5580  0.00  0.00     0.000 OA
ENDBRANCH 86 92
BRANCH 82 95
ATOM     95  O3  NAG B   7      13.951  13.155   8.1590  0.00  0.00     0.000 O
BRANCH 95 98
ATOM     96  C1  NAG B   7      15.598  15.874   6.3600  0.00  0.00     0.000 C
ATOM     97  C2  NAG B   7      14.445  14.957   6.7470  0.00  0.00     0.000 C
ATOM     98  C3  NAG B   7      15.046  13.973   7.7500  0.00  0.00     0.000 C
ATOM     99  C4  NAG B   7      16.184  13.194   7.0950  0.00  0.00     0.000 C
ATOM    100  C5  NAG B   7      17.218  14.145   6.4890  0.00  0.00     0.000 C
ATOM    101  O5  NAG B   7      16.551  15.075   5.6500  0.00  0.00     0.000 O
BRANCH 97 104
ATOM    102   N  NAG B   7      13.014  15.133   7.0310  0.00  0.00     0.000 N
ATOM    104  HD  NAG B   7      12.161  15.247   6.9340  0.00  0.00     0.000 HD
ATOM    104   O  NAG B   7      11.166  16.153   7.8500  0.00  0.00     0.000 OA
ATOM    105   C  NAG B   7      12.407  16.100   7.7440  0.00  0.00     0.000 C
ATOM    106   C  NAG B   7      13.241  17.140   8.4110  0.00  0.00     0.000 C
ENDBRANCH 97 104
ATOM    107   O  NAG B   7      19.325  14.241   5.4630  0.00  0.00     0.000 O
ATOM    109  HD  NAG B   7      18.794  14.628   6.0270  0.00  0.00     0.000 HD
ATOM    109   O  NAG B   7      19.325  14.241   5.4630  0.00  0.00     0.000 O
ATOM    111  HD  NAG B   7      18.794  14.628   6.0270  0.00  0.00     0.000 HD
ENDBRANCH 95 98
ENDBRANCH 82 95
ENDBRANCH 81 85
ENDBRANCH 65 81
ENDBRANCH 64 67
ENDBRANCH 51 64
ENDBRANCH 50 54
ENDBRANCH 34 50
ENDBRANCH 33 36
ENDBRANCH 20 33
ENDBRANCH 19 23
ENDBRANCH 1 19
TORSDOF 19
ENDMDL
MODEL 18
REMARK VINA RESULT:      -7.6      5.051      7.035
ROOT
ATOM      1  C1  NAG B   1       5.601  -9.976  20.8640  0.00  0.00     0.000 C
ATOM      2  C2  NAG B   1       4.961  -8.704  21.4130  0.00  0.00     0.000 C
ATOM      3  C3  NAG B   1       4.437  -8.898  22.8210  0.00  0.00     0.000 C
ATOM      4  C4  NAG B   1       3.447 -10.055  22.7320  0.00  0.00     0.000 C
ATOM      5  C5  NAG B   1       4.194 -11.324  22.3010  0.00  0.00     0.000 C
ATOM      6  O5  NAG B   1       4.796 -11.158  21.0000  0.00  0.00     0.000 O
ATOM      7   O  NAG B   1       3.795  -7.709  23.3330  0.00  0.00     0.000 O
ATOM      9  HD  NAG B   1       4.433  -7.382  22.8470  0.00  0.00     0.000 HD
ATOM      9   O  NAG B   1       2.828 -10.266  23.9900  0.00  0.00     0.000 O
ATOM     11  HD  NAG B   1       3.466  -9.939  23.5040  0.00  0.00     0.000 HD
ATOM     11   C  NAG B   1       3.244 -12.528  22.3380  0.00  0.00     0.000 C
ATOM     12   O  NAG B   1       3.627 -13.519  21.3850  0.00  0.00     0.000 O
ATOM     14  HD  NAG B   1       4.265 -13.192  20.8990  0.00  0.00     0.000 HD
ENDROOT
BRANCH 2 16
ATOM     14   N  NAG B   1       4.917  -7.584  20.4560  0.00  0.00     0.000 N
ATOM     16  HD  NAG B   1       4.618  -6.778  20.3510  0.00  0.00     0.000 HD
ATOM     16   C  NAG B   1       5.726  -6.514  20.5390  0.00  0.00     0.000 C
ATOM     17   C  NAG B   1       6.719  -6.408  21.6660  0.00  0.00     0.000 C
ATOM     18   O  NAG B   1       5.694  -5.622  19.6910  0.00  0.00     0.000 OA
ENDBRANCH 2 16
BRANCH 1 19
ATOM     19  O4  BDP B   2       5.686  -9.719  19.4680  0.00  0.00     0.000 O
BRANCH 19 23
ATOM     20  C1  BDP B   2       7.654 -11.470  16.3060  0.00  0.00     0.000 C
ATOM     21  C2  BDP B   2       6.307 -12.059  16.6690  0.00  0.00     0.000 C
ATOM     22  C3  BDP B   2       5.508 -11.108  17.5310  0.00  0.00     0.000 C
ATOM     23  C4  BDP B   2       6.362 -10.710  18.7310  0.00  0.00     0.000 C
ATOM     24  C5  BDP B   2       7.673 -10.125  18.2450  0.00  0.00     0.000 C
ATOM     25  O5  BDP B   2       8.365 -11.090  17.4750  0.00  0.00     0.000 O
ATOM     26   O  BDP B   2       5.578 -12.371  15.5020  0.00  0.00     0.000 O
ATOM     28  HD  BDP B   2       6.359 -12.215  15.1620  0.00  0.00     0.000 HD
ATOM     28   O  BDP B   2       4.283 -11.744  17.9270  0.00  0.00     0.000 O
ATOM     30  HD  BDP B   2       5.064 -11.588  17.5880  0.00  0.00     0.000 HD
BRANCH 24 30
ATOM     30   C  BDP B   2       8.561  -9.725  19.3680  0.00  0.00     0.000 C
ATOM     31   O  BDP B   2       8.951  -8.535  19.3970  0.00  0.00     0.000 OA
ATOM     32   O  BDP B   2       8.880 -10.600  20.2240  0.00  0.00     0.000 OA
ENDBRANCH 24 30
BRANCH 20 33
ATOM     33  O3  NAG B   3       8.331 -12.531  15.6770  0.00  0.00     0.000 O
BRANCH 33 36
ATOM     34  C1  NAG B   3      10.543 -12.078  12.6690  0.00  0.00     0.000 C
ATOM     35  C2  NAG B   3       9.275 -12.349  13.4550  0.00  0.00     0.000 C
ATOM     36  C3  NAG B   3       9.476 -12.074  14.9530  0.00  0.00     0.000 C
ATOM     37  C4  NAG B   3      10.707 -12.830  15.4460  0.00  0.00     0.000 C
ATOM     38  C5  NAG B   3      11.899 -12.550  14.5350  0.00  0.00     0.000 C
ATOM     39  O5  NAG B   3      11.577 -12.895  13.1980  0.00  0.00     0.000 O
ATOM     40   O  NAG B   3      11.026 -12.428  16.7870  0.00  0.00     0.000 O
ATOM     42  HD  NAG B   3      11.798 -12.275  16.4250  0.00  0.00     0.000 HD
ATOM     42   C  NAG B   3      13.142 -13.368  14.8760  0.00  0.00     0.000 C
ATOM     43   O  NAG B   3      12.881 -14.757  14.6410  0.00  0.00     0.000 O
ATOM     45  HD  NAG B   3      13.653 -14.604  14.2790  0.00  0.00     0.000 HD
BRANCH 35 47
ATOM     45   N  NAG B   3       8.057 -12.830  12.8150  0.00  0.00     0.000 N
ATOM     47  HD  NAG B   3       8.428 -13.429  13.3180  0.00  0.00     0.000 HD
ATOM     47   C  NAG B   3       6.993 -12.073  12.6380  0.00  0.00     0.000 C
ATOM     48   C  NAG B   3       5.816 -12.730  11.9800  0.00  0.00     0.000 C
ATOM     49   O  NAG B   3       6.956 -10.903  13.0140  0.00  0.00     0.000 OA
ENDBRANCH 35 47
BRANCH 34 50
ATOM     50  O4  BDP B   4      10.217 -12.485  11.3570  0.00  0.00     0.000 O
BRANCH 50 54
ATOM     51  C1  BDP B   4      10.973 -11.854   7.4090  0.00  0.00     0.000 C
ATOM     52  C2  BDP B   4      12.200 -12.221   8.2370  0.00  0.00     0.000 C
ATOM     53  C3  BDP B   4      11.743 -12.782   9.5480  0.00  0.00     0.000 C
ATOM     54  C4  BDP B   4      10.792 -11.770  10.2500  0.00  0.00     0.000 C
ATOM     55  C5  BDP B   4       9.691 -11.272   9.3240  0.00  0.00     0.000 C
ATOM     56  O5  BDP B   4      10.240 -10.845   8.0810  0.00  0.00     0.000 O
ATOM     57   O  BDP B   4      12.976 -13.186   7.5600  0.00  0.00     0.000 O
ATOM     59  HD  BDP B   4      13.645 -12.740   7.2370  0.00  0.00     0.000 HD
ATOM     59   O  BDP B   4      12.917 -12.934  10.3720  0.00  0.00     0.000 O
ATOM     61  HD  BDP B   4      13.586 -12.488  10.0480  0.00  0.00     0.000 HD
BRANCH 55 61
ATOM     61   C  BDP B   4       8.975 -10.105   9.9800  0.00  0.00     0.000 C
ATOM     62   O  BDP B   4       7.717 -10.124  10.0090  0.00  0.00     0.000 OA
ATOM     63   O  BDP B   4       9.677  -9.168  10.4700  0.00  0.00     0.000 OA
ENDBRANCH 55 61
BRANCH 51 64
ATOM     64  O3  NAG B   5      11.445 -11.379   6.1330  0.00  0.00     0.000 O
BRANCH 64 67
ATOM     65  C1  NAG B   5       9.691 -12.214   3.0000  0.00  0.00     0.000 C
ATOM     66  C2  NAG B   5      10.615 -12.390   4.1920  0.00  0.00     0.000 C
ATOM     67  C3  NAG B   5      10.406 -11.251   5.1820  0.00  0.00     0.000 C
ATOM     68  C4  NAG B   5      10.516  -9.888   4.4860  0.00  0.00     0.000 C
ATOM     69  C5  NAG B   5       9.626  -9.841   3.2540  0.00  0.00     0.000 C
ATOM     70  O5  NAG B   5       9.913 -10.958   2.4000  0.00  0.00     0.000 O
ATOM     71   O  NAG B   5      10.166  -8.879   5.4090  0.00  0.00     0.000 O
ATOM     73  HD  NAG B   5      10.846  -8.483   5.0490  0.00  0.00     0.000 HD
ATOM     73   C  NAG B   5       9.768  -8.559   2.4200  0.00  0.00     0.000 C
ATOM     74   O  NAG B   5      11.105  -8.477   1.8830  0.00  0.00     0.000 O
ATOM     76  HD  NAG B   5      11.785  -8.080   1.5240  0.00  0.00     0.000 HD
BRANCH 66 78
ATOM     76   N  NAG B   5      11.487 -13.571   4.3420  0.00  0.00     0.000 N
ATOM     78  HD  NAG B   5      10.753 -13.273   4.6910  0.00  0.00     0.000 HD
ATOM     78   C  NAG B   5      11.192 -14.689   5.0240  0.00  0.00     0.000 C
ATOM     79   C  NAG B   5      12.282 -15.725   4.9760  0.00  0.00     0.000 C
ATOM     80   O  NAG B   5      10.092 -14.853   5.6630  0.00  0.00     0.000 OA
ENDBRANCH 66 78
BRANCH 65 81
ATOM     81  O4  BDP B   6       9.916 -13.258   2.0430  0.00  0.00     0.000 O
BRANCH 81 85
ATOM     82  C1  BDP B   6       7.873 -15.334  -1.1000  0.00  0.00     0.000 C
ATOM     83  C2  BDP B   6       8.382 -13.927  -1.3990  0.00  0.00     0.000 C
ATOM     84  C3  BDP B   6       9.427 -13.444  -0.3880  0.00  0.00     0.000 C
ATOM     85  C4  BDP B   6       8.944 -13.606   1.0550  0.00  0.00     0.000 C
ATOM     86  C5  BDP B   6       8.424 -15.054   1.2230  0.00  0.00     0.000 C
ATOM     87  O5  BDP B   6       7.394 -15.382   0.2360  0.00  0.00     0.000 O
ATOM     88   O  BDP B   6       8.971 -14.002  -2.6940  0.00  0.00     0.000 O
ATOM     90  HD  BDP B   6       9.666 -13.722  -3.1280  0.00  0.00     0.000 HD
ATOM     90   O  BDP B   6       9.769 -12.084  -0.6650  0.00  0.00     0.000 O
ATOM     92  HD  BDP B   6      10.464 -11.804  -1.0990  0.00  0.00     0.000 HD
BRANCH 86 92
ATOM     92   C  BDP B   6       7.717 -15.212   2.5470  0.00  0.00     0.000 C
ATOM     93   O  BDP B   6       8.095 -16.116   3.3520  0.00  0.00     0.000 OA
ATOM     94   O  BDP B   6       6.773 -14.403   2.8080  0.00  0.00     0.000 OA
ENDBRANCH 86 92
BRANCH 82 95
ATOM     95  O3  NAG B   7       6.765 -15.612  -1.9780  0.00  0.00     0.000 O
BRANCH 95 98
ATOM     96  C1  NAG B   7       6.079 -17.914  -4.7290  0.00  0.00     0.000 C
ATOM     97  C2  NAG B   7       6.089 -16.576  -4.0020  0.00  0.00     0.000 C
ATOM     98  C3  NAG B   7       6.698 -16.877  -2.6340  0.00  0.00     0.000 C
ATOM     99  C4  NAG B   7       5.842 -17.906  -1.9000  0.00  0.00     0.000 C
ATOM    100  C5  NAG B   7       5.636 -19.156  -2.7560  0.00  0.00     0.000 C
ATOM    101  O5  NAG B   7       5.160 -18.764  -4.0350  0.00  0.00     0.000 O
BRANCH 97 104
ATOM    102   N  NAG B   7       6.946 -15.462  -4.4300  0.00  0.00     0.000 N
ATOM    104  HD  NAG B   7       7.472 -14.774  -4.4220  0.00  0.00     0.000 HD
ATOM    104   O  NAG B   7       7.453 -13.490  -5.4230  0.00  0.00     0.000 OA
ATOM    105   C  NAG B   7       6.628 -14.395  -5.1890  0.00  0.00     0.000 C
ATOM    106   C  NAG B   7       5.251 -14.289  -5.7490  0.00  0.00     0.000 C
ENDBRANCH 97 104
ATOM    107   O  NAG B   7       4.766 -21.335  -2.7440  0.00  0.00     0.000 O
ATOM    109  HD  NAG B   7       5.415 -20.833  -3.0210  0.00  0.00     0.000 HD
ATOM    109   O  NAG B   7       4.766 -21.335  -2.7440  0.00  0.00     0.000 O
ATOM    111  HD  NAG B   7       5.415 -20.833  -3.0210  0.00  0.00     0.000 HD
ENDBRANCH 95 98
ENDBRANCH 82 95
ENDBRANCH 81 85
ENDBRANCH 65 81
ENDBRANCH 64 67
ENDBRANCH 51 64
ENDBRANCH 50 54
ENDBRANCH 34 50
ENDBRANCH 33 36
ENDBRANCH 20 33
ENDBRANCH 19 23
ENDBRANCH 1 19
TORSDOF 19
ENDMDL
MODEL 19
REMARK VINA RESULT:      -7.6      9.026     18.249
ROOT
ATOM      1  C1  NAG B   1      10.270   6.929  14.5550  0.00  0.00     0.000 C
ATOM      2  C2  NAG B   1       9.873   7.627  13.2580  0.00  0.00     0.000 C
ATOM      3  C3  NAG B   1       9.571   9.096  13.4760  0.00  0.00     0.000 C
ATOM      4  C4  NAG B   1       8.459   9.132  14.5210  0.00  0.00     0.000 C
ATOM      5  C5  NAG B   1       8.982   8.533  15.8330  0.00  0.00     0.000 C
ATOM      6  O5  NAG B   1       9.375   7.156  15.6550  0.00  0.00     0.000 O
ATOM      7   O  NAG B   1       9.156   9.755  12.2580  0.00  0.00     0.000 O
ATOM      9  HD  NAG B   1       9.736   9.180  11.9710  0.00  0.00     0.000 HD
ATOM      9   O  NAG B   1       8.037  10.469  14.7370  0.00  0.00     0.000 O
ATOM     11  HD  NAG B   1       8.618   9.894  14.4500  0.00  0.00     0.000 HD
ATOM     11   C  NAG B   1       7.926   8.685  16.9340  0.00  0.00     0.000 C
ATOM     12   O  NAG B   1       8.036   7.644  17.9040  0.00  0.00     0.000 O
ATOM     14  HD  NAG B   1       8.616   7.070  17.6170  0.00  0.00     0.000 HD
ENDROOT
BRANCH 2 16
ATOM     14   N  NAG B   1       9.750   6.805  12.0410  0.00  0.00     0.000 N
ATOM     16  HD  NAG B   1       9.573   6.849  11.1940  0.00  0.00     0.000 HD
ATOM     16   C  NAG B   1      10.717   6.719  11.1110  0.00  0.00     0.000 C
ATOM     17   C  NAG B   1      11.989   7.508  11.2750  0.00  0.00     0.000 C
ATOM     18   O  NAG B   1      10.598   5.983  10.1320  0.00  0.00     0.000 OA
ENDBRANCH 2 16
BRANCH 1 19
ATOM     19  O4  BDP B   2      10.151   5.551  14.2310  0.00  0.00     0.000 O
BRANCH 19 23
ATOM     20  C1  BDP B   2      11.415   2.004  15.8950  0.00  0.00     0.000 C
ATOM     21  C2  BDP B   2      10.500   2.859  16.7470  0.00  0.00     0.000 C
ATOM     22  C3  BDP B   2       9.777   3.891  15.9100  0.00  0.00     0.000 C
ATOM     23  C4  BDP B   2      10.814   4.681  15.1170  0.00  0.00     0.000 C
ATOM     24  C5  BDP B   2      11.659   3.725  14.2980  0.00  0.00     0.000 C
ATOM     25  O5  BDP B   2      12.319   2.818  15.1610  0.00  0.00     0.000 O
ATOM     26   O  BDP B   2       9.560   2.050  17.4200  0.00  0.00     0.000 O
ATOM     28  HD  BDP B   2      10.104   1.445  17.1230  0.00  0.00     0.000 HD
ATOM     28   O  BDP B   2       8.997   4.736  16.7700  0.00  0.00     0.000 O
ATOM     30  HD  BDP B   2       9.541   4.131  16.4740  0.00  0.00     0.000 HD
BRANCH 24 30
ATOM     30   C  BDP B   2      12.701   4.432  13.5080  0.00  0.00     0.000 C
ATOM     31   O  BDP B   2      12.763   4.177  12.2830  0.00  0.00     0.000 OA
ATOM     32   O  BDP B   2      13.467   5.239  14.1070  0.00  0.00     0.000 OA
ENDBRANCH 24 30
BRANCH 20 33
ATOM     33  O3  NAG B   3      12.136   1.240  16.8310  0.00  0.00     0.000 O
BRANCH 33 36
ATOM     34  C1  NAG B   3      12.814  -2.418  16.2760  0.00  0.00     0.000 C
ATOM     35  C2  NAG B   3      12.065  -1.177  16.7240  0.00  0.00     0.000 C
ATOM     36  C3  NAG B   3      12.751   0.102  16.2230  0.00  0.00     0.000 C
ATOM     37  C4  NAG B   3      14.227   0.071  16.6130  0.00  0.00     0.000 C
ATOM     38  C5  NAG B   3      14.858  -1.253  16.1910  0.00  0.00     0.000 C
ATOM     39  O5  NAG B   3      14.145  -2.334  16.7660  0.00  0.00     0.000 O
ATOM     40   O  NAG B   3      14.925   1.156  15.9830  0.00  0.00     0.000 O
ATOM     42  HD  NAG B   3      15.429   0.508  15.7070  0.00  0.00     0.000 HD
ATOM     42   C  NAG B   3      16.302  -1.425  16.6570  0.00  0.00     0.000 C
ATOM     43   O  NAG B   3      16.337  -1.499  18.0880  0.00  0.00     0.000 O
ATOM     45  HD  NAG B   3      16.841  -2.147  17.8120  0.00  0.00     0.000 HD
BRANCH 35 47
ATOM     45   N  NAG B   3      10.679  -1.240  16.2770  0.00  0.00     0.000 N
ATOM     47  HD  NAG B   3      11.174  -1.854  15.9180  0.00  0.00     0.000 HD
ATOM     47   C  NAG B   3       9.657  -1.003  17.0740  0.00  0.00     0.000 C
ATOM     48   C  NAG B   3       8.295  -1.131  16.4590  0.00  0.00     0.000 C
ATOM     49   O  NAG B   3       9.808  -0.721  18.2610  0.00  0.00     0.000 OA
ENDBRANCH 35 47
BRANCH 34 50
ATOM     50  O4  BDP B   4      12.122  -3.473  16.9090  0.00  0.00     0.000 O
BRANCH 50 54
ATOM     51  C1  BDP B   4      10.624  -7.188  16.1950  0.00  0.00     0.000 C
ATOM     52  C2  BDP B   4      11.956  -7.176  16.9370  0.00  0.00     0.000 C
ATOM     53  C3  BDP B   4      12.201  -5.793  17.4580  0.00  0.00     0.000 C
ATOM     54  C4  BDP B   4      12.126  -4.770  16.2880  0.00  0.00     0.000 C
ATOM     55  C5  BDP B   4      10.870  -4.946  15.4450  0.00  0.00     0.000 C
ATOM     56  O5  BDP B   4      10.700  -6.314  15.0840  0.00  0.00     0.000 O
ATOM     57   O  BDP B   4      11.923  -8.083  18.0180  0.00  0.00     0.000 O
ATOM     59  HD  BDP B   4      12.375  -8.768  17.7420  0.00  0.00     0.000 HD
ATOM     59   O  BDP B   4      13.546  -5.773  17.9800  0.00  0.00     0.000 O
ATOM     61  HD  BDP B   4      13.999  -6.458  17.7030  0.00  0.00     0.000 HD
BRANCH 55 61
ATOM     61   C  BDP B   4      10.992  -4.108  14.1850  0.00  0.00     0.000 C
ATOM     62   O  BDP B   4      11.799  -4.490  13.2970  0.00  0.00     0.000 OA
ATOM     63   O  BDP B   4      10.274  -3.066  14.0850  0.00  0.00     0.000 OA
ENDBRANCH 55 61
BRANCH 51 64
ATOM     64  O3  NAG B   5      10.388  -8.543  15.7640  0.00  0.00     0.000 O
BRANCH 64 67
ATOM     65  C1  NAG B   5       7.133 -10.263  15.9550  0.00  0.00     0.000 C
ATOM     66  C2  NAG B   5       8.502  -9.775  16.3970  0.00  0.00     0.000 C
ATOM     67  C3  NAG B   5       9.043  -8.768  15.3910  0.00  0.00     0.000 C
ATOM     68  C4  NAG B   5       8.997  -9.334  13.9650  0.00  0.00     0.000 C
ATOM     69  C5  NAG B   5       7.614  -9.880  13.6480  0.00  0.00     0.000 C
ATOM     70  O5  NAG B   5       7.213 -10.815  14.6610  0.00  0.00     0.000 O
ATOM     71   O  NAG B   5       9.363  -8.313  13.0610  0.00  0.00     0.000 O
ATOM     73  HD  NAG B   5       9.807  -8.961  12.6970  0.00  0.00     0.000 HD
ATOM     73   C  NAG B   5       7.508 -10.582  12.2860  0.00  0.00     0.000 C
ATOM     74   O  NAG B   5       8.351 -11.753  12.2800  0.00  0.00     0.000 O
ATOM     76  HD  NAG B   5       8.795 -12.402  11.9150  0.00  0.00     0.000 HD
BRANCH 66 78
ATOM     76   N  NAG B   5       8.256  -9.293  17.7690  0.00  0.00     0.000 N
ATOM     78  HD  NAG B   5       8.784  -9.855  17.3770  0.00  0.00     0.000 HD
ATOM     78   C  NAG B   5       9.034  -9.523  18.8380  0.00  0.00     0.000 C
ATOM     79   C  NAG B   5       8.526  -8.880  20.1000  0.00  0.00     0.000 C
ATOM     80   O  NAG B   5      10.103 -10.231  18.7910  0.00  0.00     0.000 OA
ENDBRANCH 66 78
BRANCH 65 81
ATOM     81  O4  BDP B   6       6.639 -11.246  16.8740  0.00  0.00     0.000 O
BRANCH 81 85
ATOM     82  C1  BDP B   6       2.943 -12.953  18.2110  0.00  0.00     0.000 C
ATOM     83  C2  BDP B   6       3.272 -13.059  16.7240  0.00  0.00     0.000 C
ATOM     84  C3  BDP B   6       4.751 -12.801  16.4230  0.00  0.00     0.000 C
ATOM     85  C4  BDP B   6       5.242 -11.492  17.0460  0.00  0.00     0.000 C
ATOM     86  C5  BDP B   6       4.820 -11.487  18.5350  0.00  0.00     0.000 C
ATOM     87  O5  BDP B   6       3.380 -11.691  18.6950  0.00  0.00     0.000 O
ATOM     88   O  BDP B   6       2.937 -14.394  16.3550  0.00  0.00     0.000 O
ATOM     90  HD  BDP B   6       3.240 -15.051  15.8800  0.00  0.00     0.000 HD
ATOM     90   O  BDP B   6       4.960 -12.804  15.0080  0.00  0.00     0.000 O
ATOM     92  HD  BDP B   6       5.263 -13.462  14.5320  0.00  0.00     0.000 HD
BRANCH 86 92
ATOM     92   C  BDP B   6       5.062 -10.129  19.1490  0.00  0.00     0.000 C
ATOM     93   O  BDP B   6       5.319  -9.141  18.3970  0.00  0.00     0.000 OA
ATOM     94   O  BDP B   6       4.973 -10.034  20.4120  0.00  0.00     0.000 OA
ENDBRANCH 86 92
BRANCH 82 95
ATOM     95  O3  NAG B   7       1.511 -13.014  18.3640  0.00  0.00     0.000 O
BRANCH 95 98
ATOM     96  C1  NAG B   7      -0.810 -15.003  20.3630  0.00  0.00     0.000 C
ATOM     97  C2  NAG B   7      -0.263 -14.355  19.0980  0.00  0.00     0.000 C
ATOM     98  C3  NAG B   7       0.963 -13.569  19.5580  0.00  0.00     0.000 C
ATOM     99  C4  NAG B   7       0.550 -12.521  20.5890  0.00  0.00     0.000 C
ATOM    100  C5  NAG B   7      -0.222 -13.164  21.7420  0.00  0.00     0.000 C
ATOM    101  O5  NAG B   7      -1.279 -13.946  21.2080  0.00  0.00     0.000 O
BRANCH 97 104
ATOM    102   N  NAG B   7      -0.098 -14.776  17.7000  0.00  0.00     0.000 N
ATOM    104  HD  NAG B   7      -0.262 -14.984  16.8750  0.00  0.00     0.000 HD
ATOM    104   O  NAG B   7       0.408 -16.179  15.9950  0.00  0.00     0.000 OA
ATOM    105   C  NAG B   7       0.383 -15.938  17.2180  0.00  0.00     0.000 C
ATOM    106   C  NAG B   7       0.885 -16.966  18.1740  0.00  0.00     0.000 C
ENDBRANCH 97 104
ATOM    107   O  NAG B   7      -1.163 -12.751  23.8510  0.00  0.00     0.000 O
ATOM    109  HD  NAG B   7      -0.725 -13.323  23.3710  0.00  0.00     0.000 HD
ATOM    109   O  NAG B   7      -1.163 -12.751  23.8510  0.00  0.00     0.000 O
ATOM    111  HD  NAG B   7      -0.725 -13.323  23.3710  0.00  0.00     0.000 HD
ENDBRANCH 95 98
ENDBRANCH 82 95
ENDBRANCH 81 85
ENDBRANCH 65 81
ENDBRANCH 64 67
ENDBRANCH 51 64
ENDBRANCH 50 54
ENDBRANCH 34 50
ENDBRANCH 33 36
ENDBRANCH 20 33
ENDBRANCH 19 23
ENDBRANCH 1 19
TORSDOF 19
ENDMDL
MODEL 20
REMARK VINA RESULT:      -7.5     11.033     19.656
ROOT
ATOM      1  C1  NAG B   1      -2.286 -14.585 -11.0450  0.00  0.00     0.000 C
ATOM      2  C2  NAG B   1      -3.023 -13.886 -12.1840  0.00  0.00     0.000 C
ATOM      3  C3  NAG B   1      -4.164 -13.029 -11.6760  0.00  0.00     0.000 C
ATOM      4  C4  NAG B   1      -5.068 -13.975 -10.8930  0.00  0.00     0.000 C
ATOM      5  C5  NAG B   1      -4.294 -14.532  -9.6920  0.00  0.00     0.000 C
ATOM      6  O5  NAG B   1      -3.136 -15.281 -10.1210  0.00  0.00     0.000 O
ATOM      7   O  NAG B   1      -4.891 -12.394 -12.7530  0.00  0.00     0.000 O
ATOM      9  HD  NAG B   1      -4.079 -12.397 -13.0520  0.00  0.00     0.000 HD
ATOM      9   O  NAG B   1      -6.223 -13.286 -10.4430  0.00  0.00     0.000 O
ATOM     11  HD  NAG B   1      -5.410 -13.289 -10.7420  0.00  0.00     0.000 HD
ATOM     11   C  NAG B   1      -5.225 -15.378  -8.8150  0.00  0.00     0.000 C
ATOM     12   O  NAG B   1      -4.503 -16.399  -8.1280  0.00  0.00     0.000 O
ATOM     14  HD  NAG B   1      -3.691 -16.402  -8.4280  0.00  0.00     0.000 HD
ENDROOT
BRANCH 2 16
ATOM     14   N  NAG B   1      -2.481 -14.255 -13.5040  0.00  0.00     0.000 N
ATOM     16  HD  NAG B   1      -2.632 -14.188 -14.3540  0.00  0.00     0.000 HD
ATOM     16   C  NAG B   1      -1.790 -13.403 -14.2800  0.00  0.00     0.000 C
ATOM     17   C  NAG B   1      -1.562 -11.986 -13.8220  0.00  0.00     0.000 C
ATOM     18   O  NAG B   1      -1.310 -13.763 -15.3550  0.00  0.00     0.000 OA
ENDBRANCH 2 16
BRANCH 1 19
ATOM     19  O4  BDP B   2      -1.532 -15.587 -11.7140  0.00  0.00     0.000 O
BRANCH 19 23
ATOM     20  C1  BDP B   2       1.510 -15.545  -8.9420  0.00  0.00     0.000 C
ATOM     21  C2  BDP B   2       1.760 -14.783 -10.2270  0.00  0.00     0.000 C
ATOM     22  C3  BDP B   2       0.468 -14.513 -10.9640  0.00  0.00     0.000 C
ATOM     23  C4  BDP B   2      -0.266 -15.838 -11.1540  0.00  0.00     0.000 C
ATOM     24  C5  BDP B   2      -0.468 -16.500  -9.8060  0.00  0.00     0.000 C
ATOM     25  O5  BDP B   2       0.789 -16.741  -9.2030  0.00  0.00     0.000 O
ATOM     26   O  BDP B   2       2.415 -13.563  -9.9530  0.00  0.00     0.000 O
ATOM     28  HD  BDP B   2       2.489 -13.957  -9.1860  0.00  0.00     0.000 HD
ATOM     28   O  BDP B   2       0.761 -13.874 -12.2160  0.00  0.00     0.000 O
ATOM     30  HD  BDP B   2       0.836 -14.269 -11.4490  0.00  0.00     0.000 HD
BRANCH 24 30
ATOM     30   C  BDP B   2      -1.169 -17.806  -9.9210  0.00  0.00     0.000 C
ATOM     31   O  BDP B   2      -0.854 -18.544 -10.8820  0.00  0.00     0.000 OA
ATOM     32   O  BDP B   2      -2.043 -18.097  -9.0550  0.00  0.00     0.000 OA
ENDBRANCH 24 30
BRANCH 20 33
ATOM     33  O3  NAG B   3       2.800 -15.873  -8.4850  0.00  0.00     0.000 O
BRANCH 33 36
ATOM     34  C1  NAG B   3       4.018 -15.598  -4.9360  0.00  0.00     0.000 C
ATOM     35  C2  NAG B   3       3.813 -15.209  -6.3880  0.00  0.00     0.000 C
ATOM     36  C3  NAG B   3       2.810 -16.144  -7.0810  0.00  0.00     0.000 C
ATOM     37  C4  NAG B   3       3.235 -17.594  -6.8610  0.00  0.00     0.000 C
ATOM     38  C5  NAG B   3       3.496 -17.850  -5.3790  0.00  0.00     0.000 C
ATOM     39  O5  NAG B   3       4.472 -16.943  -4.8960  0.00  0.00     0.000 O
ATOM     40   O  NAG B   3       2.208 -18.483  -7.3260  0.00  0.00     0.000 O
ATOM     42  HD  NAG B   3       2.282 -18.792  -6.5210  0.00  0.00     0.000 HD
ATOM     42   C  NAG B   3       4.052 -19.240  -5.0820  0.00  0.00     0.000 C
ATOM     43   O  NAG B   3       5.356 -19.368  -5.6600  0.00  0.00     0.000 O
ATOM     45  HD  NAG B   3       5.431 -19.677  -4.8550  0.00  0.00     0.000 HD
BRANCH 35 47
ATOM     45   N  NAG B   3       4.520 -14.098  -7.0130  0.00  0.00     0.000 N
ATOM     47  HD  NAG B   3       4.767 -14.868  -7.3230  0.00  0.00     0.000 HD
ATOM     47   C  NAG B   3       3.939 -12.950  -7.3010  0.00  0.00     0.000 C
ATOM     48   C  NAG B   3       4.806 -11.919  -7.9610  0.00  0.00     0.000 C
ATOM     49   O  NAG B   3       2.750 -12.745  -7.0680  0.00  0.00     0.000 OA
ENDBRANCH 35 47
BRANCH 34 50
ATOM     50  O4  BDP B   4       5.034 -14.722  -4.4960  0.00  0.00     0.000 O
BRANCH 50 54
ATOM     51  C1  BDP B   4       6.425 -12.624  -1.3000  0.00  0.00     0.000 C
ATOM     52  C2  BDP B   4       6.183 -14.104  -1.0270  0.00  0.00     0.000 C
ATOM     53  C3  BDP B   4       6.044 -14.816  -2.3370  0.00  0.00     0.000 C
ATOM     54  C4  BDP B   4       4.926 -14.143  -3.1850  0.00  0.00     0.000 C
ATOM     55  C5  BDP B   4       5.093 -12.632  -3.2680  0.00  0.00     0.000 C
ATOM     56  O5  BDP B   4       5.302 -12.082  -1.9710  0.00  0.00     0.000 O
ATOM     57   O  BDP B   4       7.267 -14.653  -0.3090  0.00  0.00     0.000 O
ATOM     59  HD  BDP B   4       6.979 -14.719   0.5050  0.00  0.00     0.000 HD
ATOM     59   O  BDP B   4       5.625 -16.164  -2.0400  0.00  0.00     0.000 O
ATOM     61  HD  BDP B   4       5.337 -16.230  -1.2260  0.00  0.00     0.000 HD
BRANCH 55 61
ATOM     61   C  BDP B   4       3.840 -12.023  -3.8730  0.00  0.00     0.000 C
ATOM     62   O  BDP B   4       2.736 -12.576  -3.6270  0.00  0.00     0.000 OA
ATOM     63   O  BDP B   4       3.964 -10.986  -4.5930  0.00  0.00     0.000 OA
ENDBRANCH 55 61
BRANCH 51 64
ATOM     64  O3  NAG B   5       6.619 -11.980  -0.0260  0.00  0.00     0.000 O
BRANCH 64 67
ATOM     65  C1  NAG B   5       9.207  -9.676   1.2320  0.00  0.00     0.000 C
ATOM     66  C2  NAG B   5       8.399 -10.955   1.0950  0.00  0.00     0.000 C
ATOM     67  C3  NAG B   5       7.471 -10.855  -0.1080  0.00  0.00     0.000 C
ATOM     68  C4  NAG B   5       6.630  -9.572  -0.0500  0.00  0.00     0.000 C
ATOM     69  C5  NAG B   5       7.516  -8.358   0.1810  0.00  0.00     0.000 C
ATOM     70  O5  NAG B   5       8.341  -8.569   1.3360  0.00  0.00     0.000 O
ATOM     71   O  NAG B   5       5.904  -9.453  -1.2550  0.00  0.00     0.000 O
ATOM     73  HD  NAG B   5       5.274  -9.216  -0.7110  0.00  0.00     0.000 HD
ATOM     73   C  NAG B   5       6.748  -7.044   0.3800  0.00  0.00     0.000 C
ATOM     74   O  NAG B   5       5.954  -7.125   1.5820  0.00  0.00     0.000 O
ATOM     76  HD  NAG B   5       5.323  -6.887   2.1260  0.00  0.00     0.000 HD
BRANCH 66 78
ATOM     76   N  NAG B   5       9.314 -12.099   0.9170  0.00  0.00     0.000 N
ATOM     78  HD  NAG B   5       8.789 -11.793   1.5350  0.00  0.00     0.000 HD
ATOM     78   C  NAG B   5       9.407 -13.167   1.7250  0.00  0.00     0.000 C
ATOM     79   C  NAG B   5      10.422 -14.179   1.2660  0.00  0.00     0.000 C
ATOM     80   O  NAG B   5       8.705 -13.308   2.7890  0.00  0.00     0.000 OA
ENDBRANCH 66 78
BRANCH 65 81
ATOM     81  O4  BDP B   6      10.049  -9.746   2.3910  0.00  0.00     0.000 O
BRANCH 81 85
ATOM     82  C1  BDP B   6      13.167  -7.538   4.3310  0.00  0.00     0.000 C
ATOM     83  C2  BDP B   6      11.885  -6.788   3.9800  0.00  0.00     0.000 C
ATOM     84  C3  BDP B   6      10.711  -7.725   3.6800  0.00  0.00     0.000 C
ATOM     85  C4  BDP B   6      11.079  -8.787   2.6420  0.00  0.00     0.000 C
ATOM     86  C5  BDP B   6      12.405  -9.448   3.0870  0.00  0.00     0.000 C
ATOM     87  O5  BDP B   6      13.465  -8.460   3.2920  0.00  0.00     0.000 O
ATOM     88   O  BDP B   6      11.582  -5.997   5.1260  0.00  0.00     0.000 O
ATOM     90  HD  BDP B   6      10.906  -5.756   5.6110  0.00  0.00     0.000 HD
ATOM     90   O  BDP B   6       9.584  -6.958   3.2510  0.00  0.00     0.000 O
ATOM     92  HD  BDP B   6       8.908  -6.717   3.7360  0.00  0.00     0.000 HD
BRANCH 86 92
ATOM     92   C  BDP B   6      12.948 -10.336   1.9930  0.00  0.00     0.000 C
ATOM     93   O  BDP B   6      13.551  -9.814   1.0070  0.00  0.00     0.000 OA
ATOM     94   O  BDP B   6      12.792 -11.590   2.1240  0.00  0.00     0.000 OA
ENDBRANCH 86 92
BRANCH 82 95
ATOM     95  O3  NAG B   7      14.246  -6.585   4.3990  0.00  0.00     0.000 O
BRANCH 95 98
ATOM     96  C1  NAG B   7      17.076  -6.406   6.7010  0.00  0.00     0.000 C
ATOM     97  C2  NAG B   7      15.781  -5.943   6.0470  0.00  0.00     0.000 C
ATOM     98  C3  NAG B   7      15.492  -6.985   4.9680  0.00  0.00     0.000 C
ATOM     99  C4  NAG B   7      16.641  -7.025   3.9640  0.00  0.00     0.000 C
ATOM    100  C5  NAG B   7      17.978  -7.246   4.6730  0.00  0.00     0.000 C
ATOM    101  O5  NAG B   7      18.109  -6.292   5.7160  0.00  0.00     0.000 O
BRANCH 97 104
ATOM    102   N  NAG B   7      14.536  -5.338   6.5400  0.00  0.00     0.000 N
ATOM    104  HD  NAG B   7      13.962  -4.775   6.8620  0.00  0.00     0.000 HD
ATOM    104   O  NAG B   7      12.751  -5.072   7.9090  0.00  0.00     0.000 OA
ATOM    105   C  NAG B   7      13.757  -5.725   7.5680  0.00  0.00     0.000 C
ATOM    106   C  NAG B   7      14.116  -6.959   8.3240  0.00  0.00     0.000 C
ENDBRANCH 97 104
ATOM    107   O  NAG B   7      20.262  -7.651   4.3210  0.00  0.00     0.000 O
ATOM    109  HD  NAG B   7      19.576  -7.843   4.8140  0.00  0.00     0.000 HD
ATOM    109   O  NAG B   7      20.262  -7.651   4.3210  0.00  0.00     0.000 O
ATOM    111  HD  NAG B   7      19.576  -7.843   4.8140  0.00  0.00     0.000 HD
ENDBRANCH 95 98
ENDBRANCH 82 95
ENDBRANCH 81 85
ENDBRANCH 65 81
ENDBRANCH 64 67
ENDBRANCH 51 64
ENDBRANCH 50 54
ENDBRANCH 34 50
ENDBRANCH 33 36
ENDBRANCH 20 33
ENDBRANCH 19 23
ENDBRANCH 1 19
TORSDOF 19
ENDMDL
MODEL 21
REMARK VINA RESULT:      -7.4     12.327     17.878
ROOT
ATOM      1  C1  NAG B   1      -2.222 -15.989  -7.7080  0.00  0.00     0.000 C
ATOM      2  C2  NAG B   1      -3.597 -16.022  -8.3690  0.00  0.00     0.000 C
ATOM      3  C3  NAG B   1      -4.710 -16.142  -7.3490  0.00  0.00     0.000 C
ATOM      4  C4  NAG B   1      -4.411 -17.416  -6.5660  0.00  0.00     0.000 C
ATOM      5  C5  NAG B   1      -3.077 -17.250  -5.8260  0.00  0.00     0.000 C
ATOM      6  O5  NAG B   1      -1.991 -17.036  -6.7530  0.00  0.00     0.000 O
ATOM      7   O  NAG B   1      -6.014 -16.213  -7.9710  0.00  0.00     0.000 O
ATOM      9  HD  NAG B   1      -5.584 -15.678  -8.4990  0.00  0.00     0.000 HD
ATOM      9   O  NAG B   1      -5.449 -17.671  -5.6340  0.00  0.00     0.000 O
ATOM     11  HD  NAG B   1      -5.019 -17.137  -6.1630  0.00  0.00     0.000 HD
ATOM     11   C  NAG B   1      -2.824 -18.465  -4.9250  0.00  0.00     0.000 C
ATOM     12   O  NAG B   1      -1.428 -18.698  -4.7500  0.00  0.00     0.000 O
ATOM     14  HD  NAG B   1      -0.998 -18.163  -5.2790  0.00  0.00     0.000 HD
ENDROOT
BRANCH 2 16
ATOM     14   N  NAG B   1      -3.538 -14.860  -9.2750  0.00  0.00     0.000 N
ATOM     16  HD  NAG B   1      -3.057 -14.492  -9.8930  0.00  0.00     0.000 HD
ATOM     16   C  NAG B   1      -3.885 -14.922 -10.5720  0.00  0.00     0.000 C
ATOM     17   C  NAG B   1      -4.333 -16.229 -11.1690  0.00  0.00     0.000 C
ATOM     18   O  NAG B   1      -3.870 -13.919 -11.2850  0.00  0.00     0.000 OA
ENDBRANCH 2 16
BRANCH 1 19
ATOM     19  O4  BDP B   2      -1.336 -16.244  -8.7900  0.00  0.00     0.000 O
BRANCH 19 23
ATOM     20  C1  BDP B   2       2.118 -15.472  -6.6890  0.00  0.00     0.000 C
ATOM     21  C2  BDP B   2       1.448 -14.281  -7.3430  0.00  0.00     0.000 C
ATOM     22  C3  BDP B   2       0.015 -14.593  -7.7100  0.00  0.00     0.000 C
ATOM     23  C4  BDP B   2      -0.001 -15.863  -8.5560  0.00  0.00     0.000 C
ATOM     24  C5  BDP B   2       0.684 -16.983  -7.7980  0.00  0.00     0.000 C
ATOM     25  O5  BDP B   2       2.023 -16.619  -7.5220  0.00  0.00     0.000 O
ATOM     26   O  BDP B   2       1.485 -13.165  -6.4810  0.00  0.00     0.000 O
ATOM     28  HD  BDP B   2       2.033 -13.697  -6.0720  0.00  0.00     0.000 HD
ATOM     28   O  BDP B   2      -0.549 -13.472  -8.4090  0.00  0.00     0.000 O
ATOM     30  HD  BDP B   2      -0.002 -14.005  -8.0000  0.00  0.00     0.000 HD
BRANCH 24 30
ATOM     30   C  BDP B   2       0.713 -18.251  -8.5730  0.00  0.00     0.000 C
ATOM     31   O  BDP B   2       0.208 -19.264  -8.0370  0.00  0.00     0.000 OA
ATOM     32   O  BDP B   2       1.248 -18.243  -9.7190  0.00  0.00     0.000 OA
ENDBRANCH 24 30
BRANCH 20 33
ATOM     33  O3  NAG B   3       3.467 -15.088  -6.5850  0.00  0.00     0.000 O
BRANCH 33 36
ATOM     34  C1  NAG B   3       5.845 -14.782  -3.6850  0.00  0.00     0.000 C
ATOM     35  C2  NAG B   3       5.094 -14.375  -4.9390  0.00  0.00     0.000 C
ATOM     36  C3  NAG B   3       4.009 -15.401  -5.2990  0.00  0.00     0.000 C
ATOM     37  C4  NAG B   3       4.628 -16.795  -5.3490  0.00  0.00     0.000 C
ATOM     38  C5  NAG B   3       5.428 -17.065  -4.0780  0.00  0.00     0.000 C
ATOM     39  O5  NAG B   3       6.416 -16.063  -3.9060  0.00  0.00     0.000 O
ATOM     40   O  NAG B   3       3.598 -17.786  -5.4850  0.00  0.00     0.000 O
ATOM     42  HD  NAG B   3       3.987 -18.109  -4.7820  0.00  0.00     0.000 HD
ATOM     42   C  NAG B   3       6.191 -18.388  -4.0980  0.00  0.00     0.000 C
ATOM     43   O  NAG B   3       7.207 -18.339  -5.1080  0.00  0.00     0.000 O
ATOM     45  HD  NAG B   3       7.596 -18.662  -4.4050  0.00  0.00     0.000 HD
BRANCH 35 47
ATOM     45   N  NAG B   3       5.369 -13.195  -5.7490  0.00  0.00     0.000 N
ATOM     47  HD  NAG B   3       5.491 -13.933  -6.1840  0.00  0.00     0.000 HD
ATOM     47   C  NAG B   3       4.655 -12.089  -5.6710  0.00  0.00     0.000 C
ATOM     48   C  NAG B   3       5.060 -10.975  -6.5900  0.00  0.00     0.000 C
ATOM     49   O  NAG B   3       3.697 -11.985  -4.9090  0.00  0.00     0.000 OA
ENDBRANCH 35 47
BRANCH 34 50
ATOM     50  O4  BDP B   4       6.858 -13.805  -3.5700  0.00  0.00     0.000 O
BRANCH 50 54
ATOM     51  C1  BDP B   4       9.237 -11.797  -0.9510  0.00  0.00     0.000 C
ATOM     52  C2  BDP B   4       9.359 -13.315  -0.8790  0.00  0.00     0.000 C
ATOM     53  C3  BDP B   4       8.741 -13.904  -2.1100  0.00  0.00     0.000 C
ATOM     54  C4  BDP B   4       7.277 -13.398  -2.2570  0.00  0.00     0.000 C
ATOM     55  C5  BDP B   4       7.171 -11.885  -2.1230  0.00  0.00     0.000 C
ATOM     56  O5  BDP B   4       7.868 -11.437  -0.9630  0.00  0.00     0.000 O
ATOM     57   O  BDP B   4      10.716 -13.696  -0.8090  0.00  0.00     0.000 O
ATOM     59  HD  BDP B   4      10.843 -13.902   0.0220  0.00  0.00     0.000 HD
ATOM     59   O  BDP B   4       8.700 -15.333  -1.9160  0.00  0.00     0.000 O
ATOM     61  HD  BDP B   4       8.826 -15.540  -1.0850  0.00  0.00     0.000 HD
BRANCH 55 61
ATOM     61   C  BDP B   4       5.709 -11.493  -2.0090  0.00  0.00     0.000 C
ATOM     62   O  BDP B   4       5.361 -10.370  -2.4590  0.00  0.00     0.000 OA
ATOM     63   O  BDP B   4       4.907 -12.315  -1.4680  0.00  0.00     0.000 OA
ENDBRANCH 55 61
BRANCH 51 64
ATOM     64  O3  NAG B   5       9.896 -11.261   0.2120  0.00  0.00     0.000 O
BRANCH 64 67
ATOM     65  C1  NAG B   5      11.671  -8.029   0.1640  0.00  0.00     0.000 C
ATOM     66  C2  NAG B   5      11.442  -9.519  -0.0260  0.00  0.00     0.000 C
ATOM     67  C3  NAG B   5       9.971  -9.848   0.1920  0.00  0.00     0.000 C
ATOM     68  C4  NAG B   5       9.474  -9.292   1.5340  0.00  0.00     0.000 C
ATOM     69  C5  NAG B   5       9.831  -7.820   1.6700  0.00  0.00     0.000 C
ATOM     70  O5  NAG B   5      11.236  -7.635   1.4450  0.00  0.00     0.000 O
ATOM     71   O  NAG B   5       8.079  -9.490   1.6170  0.00  0.00     0.000 O
ATOM     73  HD  NAG B   5       8.281  -9.712   2.4290  0.00  0.00     0.000 HD
ATOM     73   C  NAG B   5       9.486  -7.210   3.0360  0.00  0.00     0.000 C
ATOM     74   O  NAG B   5      10.269  -7.851   4.0640  0.00  0.00     0.000 O
ATOM     76  HD  NAG B   5      10.470  -8.073   4.8770  0.00  0.00     0.000 HD
BRANCH 66 78
ATOM     76   N  NAG B   5      12.537 -10.408  -0.4580  0.00  0.00     0.000 N
ATOM     78  HD  NAG B   5      11.815 -10.075  -0.8000  0.00  0.00     0.000 HD
ATOM     78   C  NAG B   5      12.781 -10.806  -1.7160  0.00  0.00     0.000 C
ATOM     79   C  NAG B   5      13.986 -11.699  -1.8400  0.00  0.00     0.000 C
ATOM     80   O  NAG B   5      12.052 -10.466  -2.7150  0.00  0.00     0.000 OA
ENDBRANCH 66 78
BRANCH 65 81
ATOM     81  O4  BDP B   6      13.062  -7.721   0.0050  0.00  0.00     0.000 O
BRANCH 81 85
ATOM     82  C1  BDP B   6      15.559  -4.485  -1.2810  0.00  0.00     0.000 C
ATOM     83  C2  BDP B   6      15.080  -4.473   0.1680  0.00  0.00     0.000 C
ATOM     84  C3  BDP B   6      14.558  -5.835   0.6330  0.00  0.00     0.000 C
ATOM     85  C4  BDP B   6      13.517  -6.408  -0.3310  0.00  0.00     0.000 C
ATOM     86  C5  BDP B   6      14.101  -6.334  -1.7620  0.00  0.00     0.000 C
ATOM     87  O5  BDP B   6      14.517  -4.975  -2.1120  0.00  0.00     0.000 O
ATOM     88   O  BDP B   6      16.220  -4.109   0.9420  0.00  0.00     0.000 O
ATOM     90  HD  BDP B   6      16.619  -4.320   1.6820  0.00  0.00     0.000 HD
ATOM     90   O  BDP B   6      14.024  -5.718   1.9540  0.00  0.00     0.000 O
ATOM     92  HD  BDP B   6      14.423  -5.929   2.6930  0.00  0.00     0.000 HD
BRANCH 86 92
ATOM     92   C  BDP B   6      13.041  -6.661  -2.7850  0.00  0.00     0.000 C
ATOM     93   O  BDP B   6      13.234  -7.611  -3.6020  0.00  0.00     0.000 OA
ATOM     94   O  BDP B   6      11.975  -5.971  -2.7650  0.00  0.00     0.000 OA
ENDBRANCH 86 92
BRANCH 82 95
ATOM     95  O3  NAG B   7      15.840  -3.128  -1.6770  0.00  0.00     0.000 O
BRANCH 95 98
ATOM     96  C1  NAG B   7      18.472  -1.169  -3.2810  0.00  0.00     0.000 C
ATOM     97  C2  NAG B   7      17.291  -1.419  -2.3530  0.00  0.00     0.000 C
ATOM     98  C3  NAG B   7      16.905  -2.877  -2.5930  0.00  0.00     0.000 C
ATOM     99  C4  NAG B   7      16.518  -3.077  -4.0560  0.00  0.00     0.000 C
ATOM    100  C5  NAG B   7      17.628  -2.587  -4.9860  0.00  0.00     0.000 C
ATOM    101  O5  NAG B   7      17.980  -1.261  -4.6230  0.00  0.00     0.000 O
BRANCH 97 104
ATOM    102   N  NAG B   7      17.578  -1.313  -0.9160  0.00  0.00     0.000 N
ATOM    104  HD  NAG B   7      17.689  -1.508  -0.0790  0.00  0.00     0.000 HD
ATOM    104   O  NAG B   7      17.292  -0.606   1.2170  0.00  0.00     0.000 OA
ATOM    105   C  NAG B   7      16.976  -0.545   0.0120  0.00  0.00     0.000 C
ATOM    106   C  NAG B   7      15.896   0.390  -0.4120  0.00  0.00     0.000 C
ENDBRANCH 97 104
ATOM    107   O  NAG B   7      18.316  -2.498  -7.2270  0.00  0.00     0.000 O
ATOM    109  HD  NAG B   7      18.579  -2.610  -6.4100  0.00  0.00     0.000 HD
ATOM    109   O  NAG B   7      18.316  -2.498  -7.2270  0.00  0.00     0.000 O
ATOM    111  HD  NAG B   7      18.579  -2.610  -6.4100  0.00  0.00     0.000 HD
ENDBRANCH 95 98
ENDBRANCH 82 95
ENDBRANCH 81 85
ENDBRANCH 65 81
ENDBRANCH 64 67
ENDBRANCH 51 64
ENDBRANCH 50 54
ENDBRANCH 34 50
ENDBRANCH 33 36
ENDBRANCH 20 33
ENDBRANCH 19 23
ENDBRANCH 1 19
TORSDOF 19
ENDMDL
MODEL 22
REMARK VINA RESULT:      -7.4      2.148      2.993
ROOT
ATOM      1  C1  NAG B   1       3.858 -14.896  18.1200  0.00  0.00     0.000 C
ATOM      2  C2  NAG B   1       2.365 -14.717  17.8620  0.00  0.00     0.000 C
ATOM      3  C3  NAG B   1       1.561 -15.903  18.3540  0.00  0.00     0.000 C
ATOM      4  C4  NAG B   1       2.135 -17.115  17.6270  0.00  0.00     0.000 C
ATOM      5  C5  NAG B   1       3.600 -17.303  18.0420  0.00  0.00     0.000 C
ATOM      6  O5  NAG B   1       4.395 -16.153  17.6800  0.00  0.00     0.000 O
ATOM      7   O  NAG B   1       0.149 -15.757  18.0780  0.00  0.00     0.000 O
ATOM      9  HD  NAG B   1       0.392 -14.942  18.2410  0.00  0.00     0.000 HD
ATOM      9   O  NAG B   1       1.391 -18.277  17.9530  0.00  0.00     0.000 O
ATOM     11  HD  NAG B   1       1.634 -17.462  18.1160  0.00  0.00     0.000 HD
ATOM     11   C  NAG B   1       4.156 -18.594  17.4300  0.00  0.00     0.000 C
ATOM     12   O  NAG B   1       5.563 -18.500  17.2120  0.00  0.00     0.000 O
ATOM     14  HD  NAG B   1       5.806 -17.685  17.3760  0.00  0.00     0.000 HD
ENDROOT
BRANCH 2 16
ATOM     14   N  NAG B   1       1.961 -13.427  18.4490  0.00  0.00     0.000 N
ATOM     16  HD  NAG B   1       2.221 -12.608  18.5600  0.00  0.00     0.000 HD
ATOM     16   C  NAG B   1       1.448 -12.417  17.7250  0.00  0.00     0.000 C
ATOM     17   C  NAG B   1       1.289 -12.567  16.2350  0.00  0.00     0.000 C
ATOM     18   O  NAG B   1       1.076 -11.373  18.2580  0.00  0.00     0.000 OA
ENDBRANCH 2 16
BRANCH 1 19
ATOM     19  O4  BDP B   2       4.451 -13.906  17.2910  0.00  0.00     0.000 O
BRANCH 19 23
ATOM     20  C1  BDP B   2       7.479 -13.848  14.5030  0.00  0.00     0.000 C
ATOM     21  C2  BDP B   2       6.134 -14.355  14.0250  0.00  0.00     0.000 C
ATOM     22  C3  BDP B   2       5.027 -13.947  14.9710  0.00  0.00     0.000 C
ATOM     23  C4  BDP B   2       5.403 -14.399  16.3790  0.00  0.00     0.000 C
ATOM     24  C5  BDP B   2       6.756 -13.823  16.7500  0.00  0.00     0.000 C
ATOM     25  O5  BDP B   2       7.732 -14.279  15.8330  0.00  0.00     0.000 O
ATOM     26   O  BDP B   2       5.858 -13.866  12.7310  0.00  0.00     0.000 O
ATOM     28  HD  BDP B   2       6.694 -13.653  12.8040  0.00  0.00     0.000 HD
ATOM     28   O  BDP B   2       3.789 -14.527  14.5300  0.00  0.00     0.000 O
ATOM     30  HD  BDP B   2       4.626 -14.314  14.6040  0.00  0.00     0.000 HD
BRANCH 24 30
ATOM     30   C  BDP B   2       7.188 -14.236  18.1100  0.00  0.00     0.000 C
ATOM     31   O  BDP B   2       7.206 -13.354  19.0000  0.00  0.00     0.000 OA
ATOM     32   O  BDP B   2       7.521 -15.442  18.2950  0.00  0.00     0.000 OA
ENDBRANCH 24 30
BRANCH 20 33
ATOM     33  O3  NAG B   3       8.401 -14.461  13.6350  0.00  0.00     0.000 O
BRANCH 33 36
ATOM     34  C1  NAG B   3      11.763 -12.927  12.9320  0.00  0.00     0.000 C
ATOM     35  C2  NAG B   3      10.279 -13.197  12.7750  0.00  0.00     0.000 C
ATOM     36  C3  NAG B   3       9.744 -14.064  13.9250  0.00  0.00     0.000 C
ATOM     37  C4  NAG B   3      10.610 -15.315  14.0600  0.00  0.00     0.000 C
ATOM     38  C5  NAG B   3      12.086 -14.932  14.1240  0.00  0.00     0.000 C
ATOM     39  O5  NAG B   3      12.439 -14.176  12.9780  0.00  0.00     0.000 O
ATOM     40   O  NAG B   3      10.251 -16.034  15.2500  0.00  0.00     0.000 O
ATOM     42  HD  NAG B   3      11.099 -15.955  15.4050  0.00  0.00     0.000 HD
ATOM     42   C  NAG B   3      13.034 -16.128  14.1290  0.00  0.00     0.000 C
ATOM     43   O  NAG B   3      12.940 -16.819  12.8770  0.00  0.00     0.000 O
ATOM     45  HD  NAG B   3      13.788 -16.740  13.0320  0.00  0.00     0.000 HD
BRANCH 35 47
ATOM     45   N  NAG B   3       9.484 -12.715  11.6530  0.00  0.00     0.000 N
ATOM     47  HD  NAG B   3       9.559 -13.578  11.6620  0.00  0.00     0.000 HD
ATOM     47   C  NAG B   3       8.649 -11.700  11.7490  0.00  0.00     0.000 C
ATOM     48   C  NAG B   3       7.893 -11.346  10.5030  0.00  0.00     0.000 C
ATOM     49   O  NAG B   3       8.478 -11.095  12.8050  0.00  0.00     0.000 OA
ENDBRANCH 35 47
BRANCH 34 50
ATOM     50  O4  BDP B   4      12.102 -12.228  11.7530  0.00  0.00     0.000 O
BRANCH 50 54
ATOM     51  C1  BDP B   4      14.606  -9.432  10.1820  0.00  0.00     0.000 C
ATOM     52  C2  BDP B   4      15.308 -10.563  10.9250  0.00  0.00     0.000 C
ATOM     53  C3  BDP B   4      14.336 -11.686  11.1170  0.00  0.00     0.000 C
ATOM     54  C4  BDP B   4      13.061 -11.160  11.8370  0.00  0.00     0.000 C
ATOM     55  C5  BDP B   4      12.501  -9.906  11.1790  0.00  0.00     0.000 C
ATOM     56  O5  BDP B   4      13.535  -8.948  10.9720  0.00  0.00     0.000 O
ATOM     57   O  BDP B   4      16.415 -11.025  10.1810  0.00  0.00     0.000 O
ATOM     59  HD  BDP B   4      17.104 -10.681  10.5770  0.00  0.00     0.000 HD
ATOM     59   O  BDP B   4      14.972 -12.647  11.9850  0.00  0.00     0.000 O
ATOM     61  HD  BDP B   4      15.660 -12.303  12.3820  0.00  0.00     0.000 HD
BRANCH 55 61
ATOM     61   C  BDP B   4      11.435  -9.303  12.0760  0.00  0.00     0.000 C
ATOM     62   O  BDP B   4      11.580  -9.414  13.3220  0.00  0.00     0.000 OA
ATOM     63   O  BDP B   4      10.451  -8.716  11.5300  0.00  0.00     0.000 OA
ENDBRANCH 55 61
BRANCH 51 64
ATOM     64  O3  NAG B   5      15.583  -8.398   9.9560  0.00  0.00     0.000 O
BRANCH 64 67
ATOM     65  C1  NAG B   5      14.661  -6.175   7.1630  0.00  0.00     0.000 C
ATOM     66  C2  NAG B   5      15.034  -7.459   7.8840  0.00  0.00     0.000 C
ATOM     67  C3  NAG B   5      15.020  -7.231   9.3900  0.00  0.00     0.000 C
ATOM     68  C4  NAG B   5      15.874  -6.014   9.7710  0.00  0.00     0.000 C
ATOM     69  C5  NAG B   5      15.490  -4.805   8.9330  0.00  0.00     0.000 C
ATOM     70  O5  NAG B   5      15.540  -5.140   7.5390  0.00  0.00     0.000 O
ATOM     71   O  NAG B   5      15.704  -5.757  11.1480  0.00  0.00     0.000 O
ATOM     73  HD  NAG B   5      16.560  -5.633  11.1070  0.00  0.00     0.000 HD
ATOM     73   C  NAG B   5      16.379  -3.573   9.1570  0.00  0.00     0.000 C
ATOM     74   O  NAG B   5      17.728  -3.868   8.7380  0.00  0.00     0.000 O
ATOM     76  HD  NAG B   5      18.584  -3.744   8.6970  0.00  0.00     0.000 HD
BRANCH 66 78
ATOM     76   N  NAG B   5      15.226  -8.673   7.0660  0.00  0.00     0.000 N
ATOM     78  HD  NAG B   5      14.676  -8.395   7.6760  0.00  0.00     0.000 HD
ATOM     78   C  NAG B   5      14.356  -9.687   6.9440  0.00  0.00     0.000 C
ATOM     79   C  NAG B   5      14.831 -10.776   6.0200  0.00  0.00     0.000 C
ATOM     80   O  NAG B   5      13.232  -9.729   7.5620  0.00  0.00     0.000 OA
ENDBRANCH 66 78
BRANCH 65 81
ATOM     81  O4  BDP B   6      14.718  -6.372   5.7440  0.00  0.00     0.000 O
BRANCH 81 85
ATOM     82  C1  BDP B   6      12.555  -5.366   2.1850  0.00  0.00     0.000 C
ATOM     83  C2  BDP B   6      13.304  -4.242   2.8960  0.00  0.00     0.000 C
ATOM     84  C3  BDP B   6      14.351  -4.760   3.8860  0.00  0.00     0.000 C
ATOM     85  C4  BDP B   6      13.763  -5.786   4.8560  0.00  0.00     0.000 C
ATOM     86  C5  BDP B   6      13.004  -6.847   4.0240  0.00  0.00     0.000 C
ATOM     87  O5  BDP B   6      11.995  -6.238   3.1550  0.00  0.00     0.000 O
ATOM     88   O  BDP B   6      13.949  -3.502   1.8630  0.00  0.00     0.000 O
ATOM     90  HD  BDP B   6      14.706  -3.117   1.6910  0.00  0.00     0.000 HD
ATOM     90   O  BDP B   6      14.928  -3.659   4.5930  0.00  0.00     0.000 O
ATOM     92  HD  BDP B   6      15.684  -3.273   4.4210  0.00  0.00     0.000 HD
BRANCH 86 92
ATOM     92   C  BDP B   6      12.202  -7.754   4.9250  0.00  0.00     0.000 C
ATOM     93   O  BDP B   6      11.659  -7.277   5.9680  0.00  0.00     0.000 OA
ATOM     94   O  BDP B   6      12.087  -8.971   4.5800  0.00  0.00     0.000 OA
ENDBRANCH 86 92
BRANCH 82 95
ATOM     95  O3  NAG B   7      11.470  -4.784   1.4350  0.00  0.00     0.000 O
BRANCH 95 98
ATOM     96  C1  NAG B   7       9.282  -6.095  -1.1790  0.00  0.00     0.000 C
ATOM     97  C2  NAG B   7      10.294  -5.141  -0.5580  0.00  0.00     0.000 C
ATOM     98  C3  NAG B   7      10.475  -5.639   0.8740  0.00  0.00     0.000 C
ATOM     99  C4  NAG B   7       9.139  -5.593   1.6120  0.00  0.00     0.000 C
ATOM    100  C5  NAG B   7       8.063  -6.356   0.8400  0.00  0.00     0.000 C
ATOM    101  O5  NAG B   7       8.038  -5.889  -0.5000  0.00  0.00     0.000 O
BRANCH 97 104
ATOM    102   N  NAG B   7      11.506  -4.471  -1.0480  0.00  0.00     0.000 N
ATOM    104  HD  NAG B   7      12.042  -3.943  -1.4780  0.00  0.00     0.000 HD
ATOM    104   O  NAG B   7      13.507  -4.294  -2.0940  0.00  0.00     0.000 OA
ATOM    105   C  NAG B   7      12.569  -5.003  -1.6810  0.00  0.00     0.000 C
ATOM    106   C  NAG B   7      12.617  -6.476  -1.9030  0.00  0.00     0.000 C
ENDBRANCH 97 104
ATOM    107   O  NAG B   7       5.853  -7.137   0.9480  0.00  0.00     0.000 O
ATOM    109  HD  NAG B   7       6.658  -7.323   0.6880  0.00  0.00     0.000 HD
ATOM    109   O  NAG B   7       5.853  -7.137   0.9480  0.00  0.00     0.000 O
ATOM    111  HD  NAG B   7       6.658  -7.323   0.6880  0.00  0.00     0.000 HD
ENDBRANCH 95 98
ENDBRANCH 82 95
ENDBRANCH 81 85
ENDBRANCH 65 81
ENDBRANCH 64 67
ENDBRANCH 51 64
ENDBRANCH 50 54
ENDBRANCH 34 50
ENDBRANCH 33 36
ENDBRANCH 20 33
ENDBRANCH 19 23
ENDBRANCH 1 19
TORSDOF 19
ENDMDL
MODEL 23
REMARK VINA RESULT:      -7.4     10.288     17.296
ROOT
ATOM      1  C1  NAG B   1      -1.763 -16.080  -7.4240  0.00  0.00     0.000 C
ATOM      2  C2  NAG B   1      -3.056 -16.052  -8.2350  0.00  0.00     0.000 C
ATOM      3  C3  NAG B   1      -4.281 -16.140  -7.3480  0.00  0.00     0.000 C
ATOM      4  C4  NAG B   1      -4.119 -17.434  -6.5570  0.00  0.00     0.000 C
ATOM      5  C5  NAG B   1      -2.871 -17.329  -5.6700  0.00  0.00     0.000 C
ATOM      6  O5  NAG B   1      -1.681 -17.147  -6.4660  0.00  0.00     0.000 O
ATOM      7   O  NAG B   1      -5.508 -16.153  -8.1120  0.00  0.00     0.000 O
ATOM      9  HD  NAG B   1      -5.002 -15.629  -8.5800  0.00  0.00     0.000 HD
ATOM      9   O  NAG B   1      -5.263 -17.660  -5.7510  0.00  0.00     0.000 O
ATOM     11  HD  NAG B   1      -4.757 -17.136  -6.2200  0.00  0.00     0.000 HD
ATOM     11   C  NAG B   1      -2.766 -18.564  -4.7660  0.00  0.00     0.000 C
ATOM     12   O  NAG B   1      -1.408 -18.853  -4.4410  0.00  0.00     0.000 O
ATOM     14  HD  NAG B   1      -0.902 -18.329  -4.9090  0.00  0.00     0.000 HD
ENDROOT
BRANCH 2 16
ATOM     14   N  NAG B   1      -2.819 -14.893  -9.1150  0.00  0.00     0.000 N
ATOM     16  HD  NAG B   1      -2.255 -14.563  -9.6830  0.00  0.00     0.000 HD
ATOM     16   C  NAG B   1      -3.054 -14.915 -10.4380  0.00  0.00     0.000 C
ATOM     17   C  NAG B   1      -3.558 -16.174 -11.0910  0.00  0.00     0.000 C
ATOM     18   O  NAG B   1      -2.891 -13.912 -11.1320  0.00  0.00     0.000 OA
ENDBRANCH 2 16
BRANCH 1 19
ATOM     19  O4  BDP B   2      -0.772 -16.356  -8.4040  0.00  0.00     0.000 O
BRANCH 19 23
ATOM     20  C1  BDP B   2       2.435 -15.324  -6.0400  0.00  0.00     0.000 C
ATOM     21  C2  BDP B   2       1.796 -14.203  -6.8340  0.00  0.00     0.000 C
ATOM     22  C3  BDP B   2       0.416 -14.591  -7.3150  0.00  0.00     0.000 C
ATOM     23  C4  BDP B   2       0.521 -15.913  -8.0700  0.00  0.00     0.000 C
ATOM     24  C5  BDP B   2       1.162 -16.955  -7.1750  0.00  0.00     0.000 C
ATOM     25  O5  BDP B   2       2.456 -16.525  -6.7980  0.00  0.00     0.000 O
ATOM     26   O  BDP B   2       1.716 -13.032  -6.0510  0.00  0.00     0.000 O
ATOM     28  HD  BDP B   2       2.236 -13.517  -5.5570  0.00  0.00     0.000 HD
ATOM     28   O  BDP B   2      -0.110 -13.539  -8.1400  0.00  0.00     0.000 O
ATOM     30  HD  BDP B   2       0.410 -14.023  -7.6450  0.00  0.00     0.000 HD
BRANCH 24 30
ATOM     30   C  BDP B   2       1.306 -18.269  -7.8560  0.00  0.00     0.000 C
ATOM     31   O  BDP B   2       0.490 -19.168  -7.5460  0.00  0.00     0.000 OA
ATOM     32   O  BDP B   2       2.238 -18.412  -8.6970  0.00  0.00     0.000 OA
ENDBRANCH 24 30
BRANCH 20 33
ATOM     33  O3  NAG B   3       3.755 -14.884  -5.8330  0.00  0.00     0.000 O
BRANCH 33 36
ATOM     34  C1  NAG B   3       5.876 -14.973  -2.7270  0.00  0.00     0.000 C
ATOM     35  C2  NAG B   3       5.076 -14.374  -3.8690  0.00  0.00     0.000 C
ATOM     36  C3  NAG B   3       4.326 -15.460  -4.6560  0.00  0.00     0.000 C
ATOM     37  C4  NAG B   3       5.308 -16.555  -5.0670  0.00  0.00     0.000 C
ATOM     38  C5  NAG B   3       6.116 -17.023  -3.8600  0.00  0.00     0.000 C
ATOM     39  O5  NAG B   3       6.784 -15.920  -3.2690  0.00  0.00     0.000 O
ATOM     40   O  NAG B   3       4.594 -17.670  -5.6250  0.00  0.00     0.000 O
ATOM     42  HD  NAG B   3       5.039 -18.099  -5.0180  0.00  0.00     0.000 HD
ATOM     42   C  NAG B   3       7.214 -18.026  -4.2030  0.00  0.00     0.000 C
ATOM     43   O  NAG B   3       8.204 -17.391  -5.0210  0.00  0.00     0.000 O
ATOM     45  HD  NAG B   3       8.649 -17.820  -4.4140  0.00  0.00     0.000 HD
BRANCH 35 47
ATOM     45   N  NAG B   3       5.080 -12.943  -4.1400  0.00  0.00     0.000 N
ATOM     47  HD  NAG B   3       5.500 -13.398  -4.7450  0.00  0.00     0.000 HD
ATOM     47   C  NAG B   3       4.045 -12.164  -3.8960  0.00  0.00     0.000 C
ATOM     48   C  NAG B   3       4.208 -10.716  -4.2530  0.00  0.00     0.000 C
ATOM     49   O  NAG B   3       2.996 -12.602  -3.4270  0.00  0.00     0.000 OA
ENDBRANCH 35 47
BRANCH 34 50
ATOM     50  O4  BDP B   4       6.576 -13.868  -2.1950  0.00  0.00     0.000 O
BRANCH 50 54
ATOM     51  C1  BDP B   4       9.585 -12.748   0.3050  0.00  0.00     0.000 C
ATOM     52  C2  BDP B   4      10.010 -13.698  -0.8100  0.00  0.00     0.000 C
ATOM     53  C3  BDP B   4       8.932 -13.729  -1.8500  0.00  0.00     0.000 C
ATOM     54  C4  BDP B   4       7.575 -14.105  -1.1890  0.00  0.00     0.000 C
ATOM     55  C5  BDP B   4       7.279 -13.264   0.0450  0.00  0.00     0.000 C
ATOM     56  O5  BDP B   4       8.407 -13.242   0.9160  0.00  0.00     0.000 O
ATOM     57   O  BDP B   4      11.214 -13.255  -1.3980  0.00  0.00     0.000 O
ATOM     59  HD  BDP B   4      11.822 -13.778  -1.0700  0.00  0.00     0.000 HD
ATOM     59   O  BDP B   4       9.278 -14.775  -2.7810  0.00  0.00     0.000 O
ATOM     61  HD  BDP B   4       9.886 -15.297  -2.4530  0.00  0.00     0.000 HD
BRANCH 55 61
ATOM     61   C  BDP B   4       6.091 -13.856   0.7820  0.00  0.00     0.000 C
ATOM     62   O  BDP B   4       6.274 -14.908   1.4500  0.00  0.00     0.000 OA
ATOM     63   O  BDP B   4       4.972 -13.264   0.6930  0.00  0.00     0.000 OA
ENDBRANCH 55 61
BRANCH 51 64
ATOM     64  O3  NAG B   5      10.667 -12.691   1.2530  0.00  0.00     0.000 O
BRANCH 64 67
ATOM     65  C1  NAG B   5      11.963  -9.554   2.6930  0.00  0.00     0.000 C
ATOM     66  C2  NAG B   5      11.806 -10.696   1.7040  0.00  0.00     0.000 C
ATOM     67  C3  NAG B   5      10.602 -11.549   2.0850  0.00  0.00     0.000 C
ATOM     68  C4  NAG B   5      10.677 -11.983   3.5550  0.00  0.00     0.000 C
ATOM     69  C5  NAG B   5      10.928 -10.785   4.4570  0.00  0.00     0.000 C
ATOM     70  O5  NAG B   5      12.081 -10.063   4.0010  0.00  0.00     0.000 O
ATOM     71   O  NAG B   5       9.473 -12.636   3.8950  0.00  0.00     0.000 O
ATOM     73  HD  NAG B   5      10.019 -13.174   4.2980  0.00  0.00     0.000 HD
ATOM     73   C  NAG B   5      11.144 -11.140   5.9350  0.00  0.00     0.000 C
ATOM     74   O  NAG B   5      12.343 -11.931   6.0720  0.00  0.00     0.000 O
ATOM     76  HD  NAG B   5      12.890 -12.468   6.4740  0.00  0.00     0.000 HD
BRANCH 66 78
ATOM     76   N  NAG B   5      11.656 -10.098   0.3640  0.00  0.00     0.000 N
ATOM     78  HD  NAG B   5      12.234 -10.590   0.7810  0.00  0.00     0.000 HD
ATOM     78   C  NAG B   5      12.406 -10.377  -0.7140  0.00  0.00     0.000 C
ATOM     79   C  NAG B   5      11.995  -9.615  -1.9440  0.00  0.00     0.000 C
ATOM     80   O  NAG B   5      13.384 -11.206  -0.6940  0.00  0.00     0.000 OA
ENDBRANCH 66 78
BRANCH 65 81
ATOM     81  O4  BDP B   6      13.122  -8.775   2.3660  0.00  0.00     0.000 O
BRANCH 81 85
ATOM     82  C1  BDP B   6      14.802  -4.903   3.1040  0.00  0.00     0.000 C
ATOM     83  C2  BDP B   6      14.848  -5.920   4.2410  0.00  0.00     0.000 C
ATOM     84  C3  BDP B   6      14.610  -7.356   3.7650  0.00  0.00     0.000 C
ATOM     85  C4  BDP B   6      13.343  -7.474   2.9150  0.00  0.00     0.000 C
ATOM     86  C5  BDP B   6      13.397  -6.376   1.8260  0.00  0.00     0.000 C
ATOM     87  O5  BDP B   6      13.574  -5.043   2.4040  0.00  0.00     0.000 O
ATOM     88   O  BDP B   6      16.156  -5.812   4.7950  0.00  0.00     0.000 O
ATOM     90  HD  BDP B   6      16.798  -6.311   5.0940  0.00  0.00     0.000 HD
ATOM     90   O  BDP B   6      14.554  -8.232   4.8930  0.00  0.00     0.000 O
ATOM     92  HD  BDP B   6      15.195  -8.731   5.1920  0.00  0.00     0.000 HD
BRANCH 86 92
ATOM     92   C  BDP B   6      12.075  -6.282   1.1030  0.00  0.00     0.000 C
ATOM     93   O  BDP B   6      11.022  -6.018   1.7600  0.00  0.00     0.000 OA
ATOM     94   O  BDP B   6      12.081  -6.451  -0.1550  0.00  0.00     0.000 OA
ENDBRANCH 86 92
BRANCH 82 95
ATOM     95  O3  NAG B   7      14.837  -3.581   3.6770  0.00  0.00     0.000 O
BRANCH 95 98
ATOM     96  C1  NAG B   7      16.905  -0.596   3.2860  0.00  0.00     0.000 C
ATOM     97  C2  NAG B   7      16.149  -1.677   4.0470  0.00  0.00     0.000 C
ATOM     98  C3  NAG B   7      15.493  -2.532   2.9650  0.00  0.00     0.000 C
ATOM     99  C4  NAG B   7      14.548  -1.674   2.1270  0.00  0.00     0.000 C
ATOM    100  C5  NAG B   7      15.274  -0.449   1.5690  0.00  0.00     0.000 C
ATOM    101  O5  NAG B   7      15.927   0.223   2.6340  0.00  0.00     0.000 O
BRANCH 97 104
ATOM    102   N  NAG B   7      16.694  -2.774   4.8580  0.00  0.00     0.000 N
ATOM    104  HD  NAG B   7      16.766  -3.504   5.3180  0.00  0.00     0.000 HD
ATOM    104   O  NAG B   7      17.640  -3.751   6.6690  0.00  0.00     0.000 OA
ATOM    105   C  NAG B   7      17.276  -2.719   6.0710  0.00  0.00     0.000 C
ATOM    106   C  NAG B   7      17.476  -1.392   6.7190  0.00  0.00     0.000 C
ENDBRANCH 97 104
ATOM    107   O  NAG B   7      15.052   1.384   0.1220  0.00  0.00     0.000 O
ATOM    109  HD  NAG B   7      15.590   0.768   0.4070  0.00  0.00     0.000 HD
ATOM    109   O  NAG B   7      15.052   1.384   0.1220  0.00  0.00     0.000 O
ATOM    111  HD  NAG B   7      15.590   0.768   0.4070  0.00  0.00     0.000 HD
ENDBRANCH 95 98
ENDBRANCH 82 95
ENDBRANCH 81 85
ENDBRANCH 65 81
ENDBRANCH 64 67
ENDBRANCH 51 64
ENDBRANCH 50 54
ENDBRANCH 34 50
ENDBRANCH 33 36
ENDBRANCH 20 33
ENDBRANCH 19 23
ENDBRANCH 1 19
TORSDOF 19
ENDMDL
MODEL 24
REMARK VINA RESULT:      -7.3      8.185     14.478
ROOT
ATOM      1  C1  NAG B   1      10.942   6.020  14.6490  0.00  0.00     0.000 C
ATOM      2  C2  NAG B   1      10.239   6.992  13.7060  0.00  0.00     0.000 C
ATOM      3  C3  NAG B   1       9.875   8.288  14.4010  0.00  0.00     0.000 C
ATOM      4  C4  NAG B   1       8.996   7.886  15.5810  0.00  0.00     0.000 C
ATOM      5  C5  NAG B   1       9.816   7.020  16.5460  0.00  0.00     0.000 C
ATOM      6  O5  NAG B   1      10.271   5.811  15.9020  0.00  0.00     0.000 O
ATOM      7   O  NAG B   1       9.174   9.199  13.5230  0.00  0.00     0.000 O
ATOM      9  HD  NAG B   1       9.727   8.809  12.9840  0.00  0.00     0.000 HD
ATOM      9   O  NAG B   1       8.525   9.041  16.2540  0.00  0.00     0.000 O
ATOM     11  HD  NAG B   1       9.079   8.651  15.7150  0.00  0.00     0.000 HD
ATOM     11   C  NAG B   1       8.995   6.719  17.8060  0.00  0.00     0.000 C
ATOM     12   O  NAG B   1       9.377   5.474  18.3870  0.00  0.00     0.000 O
ATOM     14  HD  NAG B   1       9.931   5.084  17.8480  0.00  0.00     0.000 HD
ENDROOT
BRANCH 2 16
ATOM     14   N  NAG B   1       9.965   6.494  12.3460  0.00  0.00     0.000 N
ATOM     16  HD  NAG B   1       9.599   6.713  11.5930  0.00  0.00     0.000 HD
ATOM     16   C  NAG B   1      10.702   6.837  11.2760  0.00  0.00     0.000 C
ATOM     17   C  NAG B   1      11.854   7.794  11.4320  0.00  0.00     0.000 C
ATOM     18   O  NAG B   1      10.473   6.361  10.1640  0.00  0.00     0.000 OA
ENDBRANCH 2 16
BRANCH 1 19
ATOM     19  O4  BDP B   2      10.866   4.783  13.9540  0.00  0.00     0.000 O
BRANCH 19 23
ATOM     20  C1  BDP B   2      12.562   1.063  14.4390  0.00  0.00     0.000 C
ATOM     21  C2  BDP B   2      11.301   1.337  15.2320  0.00  0.00     0.000 C
ATOM     22  C3  BDP B   2      10.550   2.525  14.6760  0.00  0.00     0.000 C
ATOM     23  C4  BDP B   2      11.510   3.709  14.5980  0.00  0.00     0.000 C
ATOM     24  C5  BDP B   2      12.723   3.322  13.7740  0.00  0.00     0.000 C
ATOM     25  O5  BDP B   2      13.378   2.225  14.3810  0.00  0.00     0.000 O
ATOM     26   O  BDP B   2      10.463   0.201  15.2270  0.00  0.00     0.000 O
ATOM     28  HD  BDP B   2      11.191  -0.139  14.9020  0.00  0.00     0.000 HD
ATOM     28   O  BDP B   2       9.417   2.804  15.5130  0.00  0.00     0.000 O
ATOM     30  HD  BDP B   2      10.145   2.464  15.1880  0.00  0.00     0.000 HD
BRANCH 24 30
ATOM     30   C  BDP B   2      13.707   4.431  13.6680  0.00  0.00     0.000 C
ATOM     31   O  BDP B   2      14.420   4.665  14.6710  0.00  0.00     0.000 OA
ATOM     32   O  BDP B   2      13.768   5.079  12.5840  0.00  0.00     0.000 OA
ENDBRANCH 24 30
BRANCH 20 33
ATOM     33  O3  NAG B   3      13.224   0.070  15.1830  0.00  0.00     0.000 O
BRANCH 33 36
ATOM     34  C1  NAG B   3      14.848  -2.937  13.6130  0.00  0.00     0.000 C
ATOM     35  C2  NAG B   3      13.760  -2.104  14.2620  0.00  0.00     0.000 C
ATOM     36  C3  NAG B   3      14.184  -0.633  14.3910  0.00  0.00     0.000 C
ATOM     37  C4  NAG B   3      15.544  -0.558  15.0820  0.00  0.00     0.000 C
ATOM     38  C5  NAG B   3      16.536  -1.498  14.4010  0.00  0.00     0.000 C
ATOM     39  O5  NAG B   3      16.025  -2.820  14.3980  0.00  0.00     0.000 O
ATOM     40   O  NAG B   3      16.047   0.786  15.0320  0.00  0.00     0.000 O
ATOM     42  HD  NAG B   3      16.730   0.385  14.6810  0.00  0.00     0.000 HD
ATOM     42   C  NAG B   3      17.887  -1.586  15.1060  0.00  0.00     0.000 C
ATOM     43   O  NAG B   3      17.716  -2.186  16.3960  0.00  0.00     0.000 O
ATOM     45  HD  NAG B   3      18.399  -2.586  16.0450  0.00  0.00     0.000 HD
BRANCH 35 47
ATOM     45   N  NAG B   3      12.483  -2.607  14.7530  0.00  0.00     0.000 N
ATOM     47  HD  NAG B   3      12.974  -2.273  15.3830  0.00  0.00     0.000 HD
ATOM     47   C  NAG B   3      11.357  -2.486  14.0780  0.00  0.00     0.000 C
ATOM     48   C  NAG B   3      10.129  -3.042  14.7370  0.00  0.00     0.000 C
ATOM     49   O  NAG B   3      11.310  -1.926  12.9850  0.00  0.00     0.000 OA
ENDBRANCH 35 47
BRANCH 34 50
ATOM     50  O4  BDP B   4      14.343  -4.255  13.6770  0.00  0.00     0.000 O
BRANCH 50 54
ATOM     51  C1  BDP B   4      14.747  -7.706  11.5600  0.00  0.00     0.000 C
ATOM     52  C2  BDP B   4      15.163  -7.810  13.0240  0.00  0.00     0.000 C
ATOM     53  C3  BDP B   4      14.624  -6.622  13.7600  0.00  0.00     0.000 C
ATOM     54  C4  BDP B   4      15.099  -5.313  13.0650  0.00  0.00     0.000 C
ATOM     55  C5  BDP B   4      14.846  -5.331  11.5630  0.00  0.00     0.000 C
ATOM     56  O5  BDP B   4      15.325  -6.545  10.9920  0.00  0.00     0.000 O
ATOM     57   O  BDP B   4      14.644  -8.990  13.5980  0.00  0.00     0.000 O
ATOM     59  HD  BDP B   4      15.319  -9.531  13.6340  0.00  0.00     0.000 HD
ATOM     59   O  BDP B   4      15.196  -6.654  15.0840  0.00  0.00     0.000 O
ATOM     61  HD  BDP B   4      15.871  -7.194  15.1200  0.00  0.00     0.000 HD
BRANCH 55 61
ATOM     61   C  BDP B   4      15.565  -4.159  10.9210  0.00  0.00     0.000 C
ATOM     62   O  BDP B   4      16.804  -4.045  11.1180  0.00  0.00     0.000 OA
ATOM     63   O  BDP B   4      14.887  -3.351  10.2150  0.00  0.00     0.000 OA
ENDBRANCH 55 61
BRANCH 51 64
ATOM     64  O3  NAG B   5      15.224  -8.892  10.8960  0.00  0.00     0.000 O
BRANCH 64 67
ATOM     65  C1  NAG B   5      13.717 -10.025   7.7280  0.00  0.00     0.000 C
ATOM     66  C2  NAG B   5      13.872  -9.816   9.2240  0.00  0.00     0.000 C
ATOM     67  C3  NAG B   5      15.019  -8.852   9.4980  0.00  0.00     0.000 C
ATOM     68  C4  NAG B   5      16.299  -9.301   8.7800  0.00  0.00     0.000 C
ATOM     69  C5  NAG B   5      16.024  -9.574   7.3100  0.00  0.00     0.000 C
ATOM     70  O5  NAG B   5      14.928 -10.491   7.1800  0.00  0.00     0.000 O
ATOM     71   O  NAG B   5      17.281  -8.300   8.9400  0.00  0.00     0.000 O
ATOM     73  HD  NAG B   5      17.789  -8.989   9.0700  0.00  0.00     0.000 HD
ATOM     73   C  NAG B   5      17.220 -10.151   6.5390  0.00  0.00     0.000 C
ATOM     74   O  NAG B   5      17.558 -11.448   7.0720  0.00  0.00     0.000 O
ATOM     76  HD  NAG B   5      18.066 -12.137   7.2030  0.00  0.00     0.000 HD
BRANCH 66 78
ATOM     76   N  NAG B   5      12.460  -9.547   9.5590  0.00  0.00     0.000 N
ATOM     78  HD  NAG B   5      13.121  -9.993   9.8970  0.00  0.00     0.000 HD
ATOM     78   C  NAG B   5      11.857  -9.830  10.7250  0.00  0.00     0.000 C
ATOM     79   C  NAG B   5      10.411  -9.416  10.7680  0.00  0.00     0.000 C
ATOM     80   O  NAG B   5      12.454 -10.407  11.7030  0.00  0.00     0.000 OA
ENDBRANCH 66 78
BRANCH 65 81
ATOM     81  O4  BDP B   6      12.669 -10.967   7.4670  0.00  0.00     0.000 O
BRANCH 81 85
ATOM     82  C1  BDP B   6      10.334 -12.423   4.1820  0.00  0.00     0.000 C
ATOM     83  C2  BDP B   6      11.701 -13.060   4.4130  0.00  0.00     0.000 C
ATOM     84  C3  BDP B   6      12.262 -12.776   5.8090  0.00  0.00     0.000 C
ATOM     85  C4  BDP B   6      12.242 -11.282   6.1400  0.00  0.00     0.000 C
ATOM     86  C5  BDP B   6      10.823 -10.747   5.8340  0.00  0.00     0.000 C
ATOM     87  O5  BDP B   6      10.417 -11.032   4.4570  0.00  0.00     0.000 O
ATOM     88   O  BDP B   6      11.498 -14.462   4.2570  0.00  0.00     0.000 O
ATOM     90  HD  BDP B   6      11.728 -15.214   4.6200  0.00  0.00     0.000 HD
ATOM     90   O  BDP B   6      13.587 -13.305   5.9100  0.00  0.00     0.000 O
ATOM     92  HD  BDP B   6      13.816 -14.057   6.2730  0.00  0.00     0.000 HD
BRANCH 86 92
ATOM     92   C  BDP B   6      10.797  -9.239   5.9120  0.00  0.00     0.000 C
ATOM     93   O  BDP B   6      10.651  -8.675   7.0380  0.00  0.00     0.000 OA
ATOM     94   O  BDP B   6      10.948  -8.594   4.8280  0.00  0.00     0.000 OA
ENDBRANCH 86 92
BRANCH 82 95
ATOM     95  O3  NAG B   7       9.989 -12.579   2.7910  0.00  0.00     0.000 O
BRANCH 95 98
ATOM     96  C1  NAG B   7       6.837 -13.289   1.0890  0.00  0.00     0.000 C
ATOM     97  C2  NAG B   7       8.291 -13.516   1.4790  0.00  0.00     0.000 C
ATOM     98  C3  NAG B   7       8.647 -12.333   2.3760  0.00  0.00     0.000 C
ATOM     99  C4  NAG B   7       8.472 -11.026   1.6050  0.00  0.00     0.000 C
ATOM    100  C5  NAG B   7       7.068 -10.929   1.0060  0.00  0.00     0.000 C
ATOM    101  O5  NAG B   7       6.798 -12.114   0.2720  0.00  0.00     0.000 O
BRANCH 97 104
ATOM    102   N  NAG B   7       9.123 -14.648   1.9130  0.00  0.00     0.000 N
ATOM    104  HD  NAG B   7       9.652 -15.333   1.9090  0.00  0.00     0.000 HD
ATOM    104   O  NAG B   7       9.571 -16.661   2.8470  0.00  0.00     0.000 OA
ATOM    105   C  NAG B   7       8.760 -15.748   2.5990  0.00  0.00     0.000 C
ATOM    106   C  NAG B   7       7.349 -15.882   3.0600  0.00  0.00     0.000 C
ENDBRANCH 97 104
ATOM    107   O  NAG B   7       5.591  -9.504  -0.1300  0.00  0.00     0.000 O
ATOM    109  HD  NAG B   7       5.659 -10.107   0.4880  0.00  0.00     0.000 HD
ATOM    109   O  NAG B   7       5.591  -9.504  -0.1300  0.00  0.00     0.000 O
ATOM    111  HD  NAG B   7       5.659 -10.107   0.4880  0.00  0.00     0.000 HD
ENDBRANCH 95 98
ENDBRANCH 82 95
ENDBRANCH 81 85
ENDBRANCH 65 81
ENDBRANCH 64 67
ENDBRANCH 51 64
ENDBRANCH 50 54
ENDBRANCH 34 50
ENDBRANCH 33 36
ENDBRANCH 20 33
ENDBRANCH 19 23
ENDBRANCH 1 19
TORSDOF 19
ENDMDL
MODEL 25
REMARK VINA RESULT:      -7.3     13.152     16.340
ROOT
ATOM      1  C1  NAG B   1       6.927  -8.791  18.2910  0.00  0.00     0.000 C
ATOM      2  C2  NAG B   1       6.483 -10.029  17.5170  0.00  0.00     0.000 C
ATOM      3  C3  NAG B   1       4.974 -10.123  17.4200  0.00  0.00     0.000 C
ATOM      4  C4  NAG B   1       4.472 -10.127  18.8600  0.00  0.00     0.000 C
ATOM      5  C5  NAG B   1       4.844  -8.796  19.5260  0.00  0.00     0.000 C
ATOM      6  O5  NAG B   1       6.275  -8.612  19.5590  0.00  0.00     0.000 O
ATOM      7   O  NAG B   1       4.546 -11.313  16.7210  0.00  0.00     0.000 O
ATOM      9  HD  NAG B   1       5.276 -11.106  16.3050  0.00  0.00     0.000 HD
ATOM      9   O  NAG B   1       3.065 -10.300  18.8860  0.00  0.00     0.000 O
ATOM     11  HD  NAG B   1       3.796 -10.093  18.4700  0.00  0.00     0.000 HD
ATOM     11   C  NAG B   1       4.230  -8.724  20.9300  0.00  0.00     0.000 C
ATOM     12   O  NAG B   1       5.018  -7.912  21.7980  0.00  0.00     0.000 O
ATOM     14  HD  NAG B   1       5.749  -7.704  21.3830  0.00  0.00     0.000 HD
ENDROOT
BRANCH 2 16
ATOM     14   N  NAG B   1       7.622 -10.865  17.0970  0.00  0.00     0.000 N
ATOM     16  HD  NAG B   1       7.823 -11.633  16.7510  0.00  0.00     0.000 HD
ATOM     16   C  NAG B   1       8.016 -10.982  15.8170  0.00  0.00     0.000 C
ATOM     17   C  NAG B   1       7.263 -10.261  14.7310  0.00  0.00     0.000 C
ATOM     18   O  NAG B   1       9.003 -11.650  15.5120  0.00  0.00     0.000 OA
ENDBRANCH 2 16
BRANCH 1 19
ATOM     19  O4  BDP B   2       8.290  -9.066  18.5870  0.00  0.00     0.000 O
BRANCH 19 23
ATOM     20  C1  BDP B   2       9.363  -5.100  18.8410  0.00  0.00     0.000 C
ATOM     21  C2  BDP B   2       9.608  -5.780  17.5100  0.00  0.00     0.000 C
ATOM     22  C3  BDP B   2       8.814  -7.061  17.3950  0.00  0.00     0.000 C
ATOM     23  C4  BDP B   2       9.124  -7.932  18.6090  0.00  0.00     0.000 C
ATOM     24  C5  BDP B   2       8.830  -7.153  19.8760  0.00  0.00     0.000 C
ATOM     25  O5  BDP B   2       9.635  -5.990  19.9150  0.00  0.00     0.000 O
ATOM     26   O  BDP B   2       9.270  -4.913  16.4490  0.00  0.00     0.000 O
ATOM     28  HD  BDP B   2       9.249  -4.361  17.1150  0.00  0.00     0.000 HD
ATOM     28   O  BDP B   2       9.149  -7.716  16.1610  0.00  0.00     0.000 O
ATOM     30  HD  BDP B   2       9.129  -7.164  16.8280  0.00  0.00     0.000 HD
BRANCH 24 30
ATOM     30   C  BDP B   2       9.122  -7.943  21.1010  0.00  0.00     0.000 C
ATOM     31   O  BDP B   2       8.249  -7.954  21.9990  0.00  0.00     0.000 OA
ATOM     32   O  BDP B   2      10.229  -8.550  21.1760  0.00  0.00     0.000 OA
ENDBRANCH 24 30
BRANCH 20 33
ATOM     33  O3  NAG B   3      10.298  -4.049  18.8640  0.00  0.00     0.000 O
BRANCH 33 36
ATOM     34  C1  NAG B   3       9.604  -0.498  19.8940  0.00  0.00     0.000 C
ATOM     35  C2  NAG B   3       9.823  -1.677  18.9650  0.00  0.00     0.000 C
ATOM     36  C3  NAG B   3       9.891  -2.999  19.7450  0.00  0.00     0.000 C
ATOM     37  C4  NAG B   3      10.918  -2.871  20.8680  0.00  0.00     0.000 C
ATOM     38  C5  NAG B   3      10.654  -1.609  21.6850  0.00  0.00     0.000 C
ATOM     39  O5  NAG B   3      10.666  -0.473  20.8370  0.00  0.00     0.000 O
ATOM     40   O  NAG B   3      10.851  -4.019  21.7280  0.00  0.00     0.000 O
ATOM     42  HD  NAG B   3      10.753  -3.407  22.3320  0.00  0.00     0.000 HD
ATOM     42   C  NAG B   3      11.711  -1.331  22.7510  0.00  0.00     0.000 C
ATOM     43   O  NAG B   3      12.964  -1.043  22.1190  0.00  0.00     0.000 O
ATOM     45  HD  NAG B   3      12.866  -0.431  22.7230  0.00  0.00     0.000 HD
BRANCH 35 47
ATOM     45   N  NAG B   3       9.968  -1.516  17.5240  0.00  0.00     0.000 N
ATOM     47  HD  NAG B   3      10.705  -1.762  17.9080  0.00  0.00     0.000 HD
ATOM     47   C  NAG B   3       9.028  -1.860  16.6660  0.00  0.00     0.000 C
ATOM     48   C  NAG B   3       9.347  -1.647  15.2160  0.00  0.00     0.000 C
ATOM     49   O  NAG B   3       7.962  -2.351  17.0300  0.00  0.00     0.000 OA
ENDBRANCH 35 47
BRANCH 34 50
ATOM     50  O4  BDP B   4       9.680   0.622  19.0370  0.00  0.00     0.000 O
BRANCH 50 54
ATOM     51  C1  BDP B   4       9.044   4.633  18.7920  0.00  0.00     0.000 C
ATOM     52  C2  BDP B   4       9.891   4.199  19.9830  0.00  0.00     0.000 C
ATOM     53  C3  BDP B   4      10.356   2.794  19.7540  0.00  0.00     0.000 C
ATOM     54  C4  BDP B   4       9.132   1.872  19.4860  0.00  0.00     0.000 C
ATOM     55  C5  BDP B   4       8.199   2.441  18.4250  0.00  0.00     0.000 C
ATOM     56  O5  BDP B   4       7.898   3.805  18.7070  0.00  0.00     0.000 O
ATOM     57   O  BDP B   4      11.012   5.046  20.1210  0.00  0.00     0.000 O
ATOM     59  HD  BDP B   4      10.810   5.569  20.7810  0.00  0.00     0.000 HD
ATOM     59   O  BDP B   4      10.984   2.355  20.9760  0.00  0.00     0.000 O
ATOM     61  HD  BDP B   4      10.783   2.878  21.6360  0.00  0.00     0.000 HD
BRANCH 55 61
ATOM     61   C  BDP B   4       6.910   1.638  18.4090  0.00  0.00     0.000 C
ATOM     62   O  BDP B   4       6.741   0.813  17.4740  0.00  0.00     0.000 OA
ATOM     63   O  BDP B   4       6.068   1.836  19.3370  0.00  0.00     0.000 OA
ENDBRANCH 55 61
BRANCH 51 64
ATOM     64  O3  NAG B   5       8.667   6.006  19.0120  0.00  0.00     0.000 O
BRANCH 64 67
ATOM     65  C1  NAG B   5       9.083   8.407  16.2460  0.00  0.00     0.000 C
ATOM     66  C2  NAG B   5       9.474   7.486  17.3890  0.00  0.00     0.000 C
ATOM     67  C3  NAG B   5       8.270   6.659  17.8230  0.00  0.00     0.000 C
ATOM     68  C4  NAG B   5       7.060   7.557  18.1130  0.00  0.00     0.000 C
ATOM     69  C5  NAG B   5       6.804   8.506  16.9520  0.00  0.00     0.000 C
ATOM     70  O5  NAG B   5       8.005   9.226  16.6350  0.00  0.00     0.000 O
ATOM     71   O  NAG B   5       5.938   6.738  18.3600  0.00  0.00     0.000 O
ATOM     73  HD  NAG B   5       5.804   7.318  18.9880  0.00  0.00     0.000 HD
ATOM     73   C  NAG B   5       5.690   9.530  17.2060  0.00  0.00     0.000 C
ATOM     74   O  NAG B   5       6.074  10.405  18.2870  0.00  0.00     0.000 O
ATOM     76  HD  NAG B   5       5.940  10.986  18.9150  0.00  0.00     0.000 HD
BRANCH 66 78
ATOM     76   N  NAG B   5      10.579   6.632  16.9110  0.00  0.00     0.000 N
ATOM     78  HD  NAG B   5      10.466   7.259  17.4980  0.00  0.00     0.000 HD
ATOM     78   C  NAG B   5      11.781   6.498  17.4930  0.00  0.00     0.000 C
ATOM     79   C  NAG B   5      12.690   5.537  16.7760  0.00  0.00     0.000 C
ATOM     80   O  NAG B   5      12.124   7.135  18.5520  0.00  0.00     0.000 OA
ENDBRANCH 66 78
BRANCH 65 81
ATOM     81  O4  BDP B   6      10.200   9.220  15.8640  0.00  0.00     0.000 O
BRANCH 81 85
ATOM     82  C1  BDP B   6      12.178   9.987  12.1410  0.00  0.00     0.000 C
ATOM     83  C2  BDP B   6      11.564  11.178  12.8720  0.00  0.00     0.000 C
ATOM     84  C3  BDP B   6      11.256  10.880  14.3420  0.00  0.00     0.000 C
ATOM     85  C4  BDP B   6      10.438   9.597  14.5060  0.00  0.00     0.000 C
ATOM     86  C5  BDP B   6      11.138   8.479  13.6970  0.00  0.00     0.000 C
ATOM     87  O5  BDP B   6      11.330   8.858  12.2960  0.00  0.00     0.000 O
ATOM     88   O  BDP B   6      12.536  12.217  12.7890  0.00  0.00     0.000 O
ATOM     90  HD  BDP B   6      12.892  12.838  13.2770  0.00  0.00     0.000 HD
ATOM     90   O  BDP B   6      10.582  11.996  14.9270  0.00  0.00     0.000 O
ATOM     92  HD  BDP B   6      10.938  12.617  15.4140  0.00  0.00     0.000 HD
BRANCH 86 92
ATOM     92   C  BDP B   6      10.261   7.253  13.6210  0.00  0.00     0.000 C
ATOM     93   O  BDP B   6       9.112   7.339  13.0910  0.00  0.00     0.000 OA
ATOM     94   O  BDP B   6      10.732   6.166  14.0790  0.00  0.00     0.000 OA
ENDBRANCH 86 92
BRANCH 82 95
ATOM     95  O3  NAG B   7      12.244  10.301  10.7360  0.00  0.00     0.000 O
BRANCH 95 98
ATOM     96  C1  NAG B   7      14.602  10.568   7.9600  0.00  0.00     0.000 C
ATOM     97  C2  NAG B   7      13.286  10.785   8.6960  0.00  0.00     0.000 C
ATOM     98  C3  NAG B   7      13.452  10.045  10.0220  0.00  0.00     0.000 C
ATOM     99  C4  NAG B   7      13.710   8.563   9.7610  0.00  0.00     0.000 C
ATOM    100  C5  NAG B   7      14.894   8.374   8.8130  0.00  0.00     0.000 C
ATOM    101  O5  NAG B   7      14.691   9.172   7.6570  0.00  0.00     0.000 O
BRANCH 97 104
ATOM    102   N  NAG B   7      12.360  11.920   8.8060  0.00  0.00     0.000 N
ATOM    104  HD  NAG B   7      11.784  12.538   8.6140  0.00  0.00     0.000 HD
ATOM    104   O  NAG B   7      11.732  14.064   9.1790  0.00  0.00     0.000 OA
ATOM    105   C  NAG B   7      12.616  13.184   9.1920  0.00  0.00     0.000 C
ATOM    106   C  NAG B   7      13.994  13.543   9.6330  0.00  0.00     0.000 C
ENDBRANCH 97 104
ATOM    107   O  NAG B   7      16.307   6.768   7.8490  0.00  0.00     0.000 O
ATOM    109  HD  NAG B   7      16.268   7.561   8.1940  0.00  0.00     0.000 HD
ATOM    109   O  NAG B   7      16.307   6.768   7.8490  0.00  0.00     0.000 O
ATOM    111  HD  NAG B   7      16.268   7.561   8.1940  0.00  0.00     0.000 HD
ENDBRANCH 95 98
ENDBRANCH 82 95
ENDBRANCH 81 85
ENDBRANCH 65 81
ENDBRANCH 64 67
ENDBRANCH 51 64
ENDBRANCH 50 54
ENDBRANCH 34 50
ENDBRANCH 33 36
ENDBRANCH 20 33
ENDBRANCH 19 23
ENDBRANCH 1 19
TORSDOF 19
ENDMDL
MODEL 26
REMARK VINA RESULT:      -7.3     17.784     21.994
ROOT
ATOM      1  C1  NAG B   1      -8.936  -6.366  17.9480  0.00  0.00     0.000 C
ATOM      2  C2  NAG B   1      -9.797  -7.541  17.4900  0.00  0.00     0.000 C
ATOM      3  C3  NAG B   1     -11.093  -7.078  16.8570  0.00  0.00     0.000 C
ATOM      4  C4  NAG B   1     -11.785  -6.230  17.9200  0.00  0.00     0.000 C
ATOM      5  C5  NAG B   1     -10.918  -5.002  18.2270  0.00  0.00     0.000 C
ATOM      6  O5  NAG B   1      -9.629  -5.393  18.7460  0.00  0.00     0.000 O
ATOM      7   O  NAG B   1     -11.931  -8.186  16.4560  0.00  0.00     0.000 O
ATOM      9  HD  NAG B   1     -11.134  -8.491  16.3090  0.00  0.00     0.000 HD
ATOM      9   O  NAG B   1     -13.060  -5.814  17.4580  0.00  0.00     0.000 O
ATOM     11  HD  NAG B   1     -12.263  -6.119  17.3110  0.00  0.00     0.000 HD
ATOM     11   C  NAG B   1     -11.658  -4.067  19.1910  0.00  0.00     0.000 C
ATOM     12   O  NAG B   1     -10.744  -3.323  19.9950  0.00  0.00     0.000 O
ATOM     14  HD  NAG B   1      -9.947  -3.629  19.8490  0.00  0.00     0.000 HD
ENDROOT
BRANCH 2 16
ATOM     14   N  NAG B   1      -9.121  -8.451  16.5480  0.00  0.00     0.000 N
ATOM     16  HD  NAG B   1      -8.341  -8.739  16.3070  0.00  0.00     0.000 HD
ATOM     16   C  NAG B   1      -8.680  -9.672  16.8940  0.00  0.00     0.000 C
ATOM     17   C  NAG B   1      -8.843 -10.156  18.3100  0.00  0.00     0.000 C
ATOM     18   O  NAG B   1      -8.165 -10.424  16.0660  0.00  0.00     0.000 OA
ENDBRANCH 2 16
BRANCH 1 19
ATOM     19  O4  BDP B   2      -7.988  -6.978  18.8120  0.00  0.00     0.000 O
BRANCH 19 23
ATOM     20  C1  BDP B   2      -5.196  -3.955  18.7040  0.00  0.00     0.000 C
ATOM     21  C2  BDP B   2      -5.183  -4.925  17.5410  0.00  0.00     0.000 C
ATOM     22  C3  BDP B   2      -6.475  -5.708  17.4660  0.00  0.00     0.000 C
ATOM     23  C4  BDP B   2      -6.723  -6.361  18.8230  0.00  0.00     0.000 C
ATOM     24  C5  BDP B   2      -6.725  -5.296  19.9020  0.00  0.00     0.000 C
ATOM     25  O5  BDP B   2      -5.473  -4.637  19.9190  0.00  0.00     0.000 O
ATOM     26   O  BDP B   2      -4.976  -4.233  16.3280  0.00  0.00     0.000 O
ATOM     28  HD  BDP B   2      -4.792  -3.608  16.9000  0.00  0.00     0.000 HD
ATOM     28   O  BDP B   2      -6.381  -6.677  16.4100  0.00  0.00     0.000 O
ATOM     30  HD  BDP B   2      -6.197  -6.052  16.9810  0.00  0.00     0.000 HD
BRANCH 24 30
ATOM     30   C  BDP B   2      -6.951  -5.868  21.2550  0.00  0.00     0.000 C
ATOM     31   O  BDP B   2      -8.000  -5.533  21.8520  0.00  0.00     0.000 OA
ATOM     32   O  BDP B   2      -6.079  -6.648  21.7320  0.00  0.00     0.000 OA
ENDBRANCH 24 30
BRANCH 20 33
ATOM     33  O3  NAG B   3      -3.882  -3.455  18.7440  0.00  0.00     0.000 O
BRANCH 33 36
ATOM     34  C1  NAG B   3      -3.367   0.082  19.9160  0.00  0.00     0.000 C
ATOM     35  C2  NAG B   3      -3.721  -1.050  18.9710  0.00  0.00     0.000 C
ATOM     36  C3  NAG B   3      -3.746  -2.402  19.7010  0.00  0.00     0.000 C
ATOM     37  C4  NAG B   3      -2.435  -2.590  20.4610  0.00  0.00     0.000 C
ATOM     38  C5  NAG B   3      -2.135  -1.359  21.3120  0.00  0.00     0.000 C
ATOM     39  O5  NAG B   3      -2.101  -0.202  20.4950  0.00  0.00     0.000 O
ATOM     40   O  NAG B   3      -2.519  -3.747  21.3060  0.00  0.00     0.000 O
ATOM     42  HD  NAG B   3      -2.285  -3.171  21.9090  0.00  0.00     0.000 HD
ATOM     42   C  NAG B   3      -0.777  -1.405  22.0070  0.00  0.00     0.000 C
ATOM     43   O  NAG B   3       0.265  -1.372  21.0240  0.00  0.00     0.000 O
ATOM     45  HD  NAG B   3       0.500  -0.796  21.6270  0.00  0.00     0.000 HD
BRANCH 35 47
ATOM     45   N  NAG B   3      -3.971  -0.848  17.5490  0.00  0.00     0.000 N
ATOM     47  HD  NAG B   3      -3.245  -1.296  17.7000  0.00  0.00     0.000 HD
ATOM     47   C  NAG B   3      -5.178  -0.889  17.0210  0.00  0.00     0.000 C
ATOM     48   C  NAG B   3      -5.257  -0.681  15.5370  0.00  0.00     0.000 C
ATOM     49   O  NAG B   3      -6.179  -1.110  17.6990  0.00  0.00     0.000 OA
ENDBRANCH 35 47
BRANCH 34 50
ATOM     50  O4  BDP B   4      -3.280   1.209  19.0700  0.00  0.00     0.000 O
BRANCH 50 54
ATOM     51  C1  BDP B   4      -4.571   5.040  18.6070  0.00  0.00     0.000 C
ATOM     52  C2  BDP B   4      -3.257   4.903  19.3680  0.00  0.00     0.000 C
ATOM     53  C3  BDP B   4      -2.715   3.525  19.1460  0.00  0.00     0.000 C
ATOM     54  C4  BDP B   4      -3.784   2.469  19.5460  0.00  0.00     0.000 C
ATOM     55  C5  BDP B   4      -5.143   2.754  18.9200  0.00  0.00     0.000 C
ATOM     56  O5  BDP B   4      -5.510   4.115  19.1250  0.00  0.00     0.000 O
ATOM     57   O  BDP B   4      -2.322   5.855  18.9060  0.00  0.00     0.000 O
ATOM     59  HD  BDP B   4      -2.316   6.469  19.5160  0.00  0.00     0.000 HD
ATOM     59   O  BDP B   4      -1.585   3.371  20.0290  0.00  0.00     0.000 O
ATOM     61  HD  BDP B   4      -1.579   3.985  20.6390  0.00  0.00     0.000 HD
BRANCH 55 61
ATOM     61   C  BDP B   4      -6.186   1.854  19.5570  0.00  0.00     0.000 C
ATOM     62   O  BDP B   4      -7.109   1.408  18.8250  0.00  0.00     0.000 OA
ATOM     63   O  BDP B   4      -6.079   1.591  20.7940  0.00  0.00     0.000 OA
ENDBRANCH 55 61
BRANCH 51 64
ATOM     64  O3  NAG B   5      -5.032   6.392  18.7890  0.00  0.00     0.000 O
BRANCH 64 67
ATOM     65  C1  NAG B   5      -6.206   8.598  16.0780  0.00  0.00     0.000 C
ATOM     66  C2  NAG B   5      -5.235   7.932  17.0380  0.00  0.00     0.000 C
ATOM     67  C3  NAG B   5      -5.934   6.800  17.7790  0.00  0.00     0.000 C
ATOM     68  C4  NAG B   5      -7.238   7.287  18.4260  0.00  0.00     0.000 C
ATOM     69  C5  NAG B   5      -8.101   8.020  17.4110  0.00  0.00     0.000 C
ATOM     70  O5  NAG B   5      -7.337   9.059  16.7810  0.00  0.00     0.000 O
ATOM     71   O  NAG B   5      -7.918   6.174  18.9660  0.00  0.00     0.000 O
ATOM     73  HD  NAG B   5      -8.052   6.726  19.6200  0.00  0.00     0.000 HD
ATOM     73   C  NAG B   5      -9.369   8.654  17.9990  0.00  0.00     0.000 C
ATOM     74   O  NAG B   5      -9.003   9.681  18.9450  0.00  0.00     0.000 O
ATOM     76  HD  NAG B   5      -9.137  10.232  19.5990  0.00  0.00     0.000 HD
BRANCH 66 78
ATOM     76   N  NAG B   5      -4.095   7.452  16.2340  0.00  0.00     0.000 N
ATOM     78  HD  NAG B   5      -4.234   8.038  16.8560  0.00  0.00     0.000 HD
ATOM     78   C  NAG B   5      -2.801   7.736  16.4510  0.00  0.00     0.000 C
ATOM     79   C  NAG B   5      -1.870   7.079  15.4690  0.00  0.00     0.000 C
ATOM     80   O  NAG B   5      -2.399   8.501  17.3990  0.00  0.00     0.000 OA
ENDBRANCH 66 78
BRANCH 65 81
ATOM     81  O4  BDP B   6      -5.566   9.694  15.4110  0.00  0.00     0.000 O
BRANCH 81 85
ATOM     82  C1  BDP B   6      -5.912  11.753  11.6690  0.00  0.00     0.000 C
ATOM     83  C2  BDP B   6      -6.528  12.416  12.8980  0.00  0.00     0.000 C
ATOM     84  C3  BDP B   6      -6.009  11.829  14.2140  0.00  0.00     0.000 C
ATOM     85  C4  BDP B   6      -6.122  10.303  14.2440  0.00  0.00     0.000 C
ATOM     86  C5  BDP B   6      -5.498   9.754  12.9380  0.00  0.00     0.000 C
ATOM     87  O5  BDP B   6      -6.110  10.349  11.7490  0.00  0.00     0.000 O
ATOM     88   O  BDP B   6      -6.163  13.791  12.8130  0.00  0.00     0.000 O
ATOM     90  HD  BDP B   6      -5.888  14.440  13.3140  0.00  0.00     0.000 HD
ATOM     90   O  BDP B   6      -6.712  12.416  15.3110  0.00  0.00     0.000 O
ATOM     92  HD  BDP B   6      -6.436  13.066  15.8130  0.00  0.00     0.000 HD
BRANCH 86 92
ATOM     92   C  BDP B   6      -5.787   8.280  12.7920  0.00  0.00     0.000 C
ATOM     93   O  BDP B   6      -6.912   7.906  12.3430  0.00  0.00     0.000 OA
ATOM     94   O  BDP B   6      -4.864   7.468  13.1110  0.00  0.00     0.000 OA
ENDBRANCH 86 92
BRANCH 82 95
ATOM     95  O3  NAG B   7      -6.605  12.232  10.5000  0.00  0.00     0.000 O
BRANCH 95 98
ATOM     96  C1  NAG B   7      -5.520  13.563   7.2770  0.00  0.00     0.000 C
ATOM     97  C2  NAG B   7      -6.286  13.553   8.5930  0.00  0.00     0.000 C
ATOM     98  C3  NAG B   7      -5.937  12.214   9.2390  0.00  0.00     0.000 C
ATOM     99  C4  NAG B   7      -6.374  11.068   8.3290  0.00  0.00     0.000 C
ATOM    100  C5  NAG B   7      -5.787  11.231   6.9270  0.00  0.00     0.000 C
ATOM    101  O5  NAG B   7      -6.083  12.536   6.4530  0.00  0.00     0.000 O
BRANCH 97 104
ATOM    102   N  NAG B   7      -5.946  14.479   9.6810  0.00  0.00     0.000 N
ATOM    104  HD  NAG B   7      -5.787  14.808  10.4660  0.00  0.00     0.000 HD
ATOM    104   O  NAG B   7      -6.190  16.280  11.0320  0.00  0.00     0.000 OA
ATOM    105   C  NAG B   7      -6.559  15.623  10.0390  0.00  0.00     0.000 C
ATOM    106   C  NAG B   7      -7.718  16.107   9.2350  0.00  0.00     0.000 C
ENDBRANCH 97 104
ATOM    107   O  NAG B   7      -5.548  10.180   4.8430  0.00  0.00     0.000 O
ATOM    109  HD  NAG B   7      -5.154  10.671   5.4380  0.00  0.00     0.000 HD
ATOM    109   O  NAG B   7      -5.548  10.180   4.8430  0.00  0.00     0.000 O
ATOM    111  HD  NAG B   7      -5.154  10.671   5.4380  0.00  0.00     0.000 HD
ENDBRANCH 95 98
ENDBRANCH 82 95
ENDBRANCH 81 85
ENDBRANCH 65 81
ENDBRANCH 64 67
ENDBRANCH 51 64
ENDBRANCH 50 54
ENDBRANCH 34 50
ENDBRANCH 33 36
ENDBRANCH 20 33
ENDBRANCH 19 23
ENDBRANCH 1 19
TORSDOF 19
ENDMDL
MODEL 27
REMARK VINA RESULT:      -7.2     10.447     13.594
ROOT
ATOM      1  C1  NAG B   1       0.818 -13.759  19.7660  0.00  0.00     0.000 C
ATOM      2  C2  NAG B   1      -0.492 -14.514  19.9720  0.00  0.00     0.000 C
ATOM      3  C3  NAG B   1      -1.411 -13.795  20.9390  0.00  0.00     0.000 C
ATOM      4  C4  NAG B   1      -0.613 -13.653  22.2310  0.00  0.00     0.000 C
ATOM      5  C5  NAG B   1       0.616 -12.773  21.9680  0.00  0.00     0.000 C
ATOM      6  O5  NAG B   1       1.481 -13.369  20.9780  0.00  0.00     0.000 O
ATOM      7   O  NAG B   1      -2.638 -14.524  21.1690  0.00  0.00     0.000 O
ATOM      9  HD  NAG B   1      -2.471 -14.697  20.3370  0.00  0.00     0.000 HD
ATOM      9   O  NAG B   1      -1.418 -13.065  23.2390  0.00  0.00     0.000 O
ATOM     11  HD  NAG B   1      -1.251 -13.238  22.4070  0.00  0.00     0.000 HD
ATOM     11   C  NAG B   1       1.358 -12.504  23.2830  0.00  0.00     0.000 C
ATOM     12   O  NAG B   1       2.751 -12.298  23.0590  0.00  0.00     0.000 O
ATOM     14  HD  NAG B   1       2.918 -12.471  22.2270  0.00  0.00     0.000 HD
ENDROOT
BRANCH 2 16
ATOM     14   N  NAG B   1      -1.140 -14.758  18.6700  0.00  0.00     0.000 N
ATOM     16  HD  NAG B   1      -0.972 -14.931  17.8390  0.00  0.00     0.000 HD
ATOM     16   C  NAG B   1      -1.315 -15.987  18.1560  0.00  0.00     0.000 C
ATOM     17   C  NAG B   1      -0.814 -17.193  18.9040  0.00  0.00     0.000 C
ATOM     18   O  NAG B   1      -1.905 -16.154  17.0890  0.00  0.00     0.000 OA
ENDBRANCH 2 16
BRANCH 1 19
ATOM     19  O4  BDP B   2       1.658 -14.729  19.1550  0.00  0.00     0.000 O
BRANCH 19 23
ATOM     20  C1  BDP B   2       4.475 -12.070  17.7630  0.00  0.00     0.000 C
ATOM     21  C2  BDP B   2       3.259 -12.284  16.8850  0.00  0.00     0.000 C
ATOM     22  C3  BDP B   2       2.130 -12.925  17.6590  0.00  0.00     0.000 C
ATOM     23  C4  BDP B   2       2.658 -14.196  18.3200  0.00  0.00     0.000 C
ATOM     24  C5  BDP B   2       3.860 -13.856  19.1780  0.00  0.00     0.000 C
ATOM     25  O5  BDP B   2       4.874 -13.290  18.3700  0.00  0.00     0.000 O
ATOM     26   O  BDP B   2       2.826 -11.056  16.3400  0.00  0.00     0.000 O
ATOM     28  HD  BDP B   2       3.595 -10.823  16.6630  0.00  0.00     0.000 HD
ATOM     28   O  BDP B   2       1.038 -13.195  16.7660  0.00  0.00     0.000 O
ATOM     30  HD  BDP B   2       1.807 -12.961  17.0890  0.00  0.00     0.000 HD
BRANCH 24 30
ATOM     30   C  BDP B   2       4.432 -15.056  19.8440  0.00  0.00     0.000 C
ATOM     31   O  BDP B   2       4.139 -16.174  19.3630  0.00  0.00     0.000 OA
ATOM     32   O  BDP B   2       5.170 -14.887  20.8560  0.00  0.00     0.000 OA
ENDBRANCH 24 30
BRANCH 20 33
ATOM     33  O3  NAG B   3       5.474 -11.651  16.8660  0.00  0.00     0.000 O
BRANCH 33 36
ATOM     34  C1  NAG B   3       8.199  -9.275  17.9040  0.00  0.00     0.000 C
ATOM     35  C2  NAG B   3       6.849  -9.725  17.3800  0.00  0.00     0.000 C
ATOM     36  C3  NAG B   3       6.661 -11.241  17.5500  0.00  0.00     0.000 C
ATOM     37  C4  NAG B   3       7.857 -11.970  16.9440  0.00  0.00     0.000 C
ATOM     38  C5  NAG B   3       9.161 -11.381  17.4750  0.00  0.00     0.000 C
ATOM     39  O5  NAG B   3       9.208  -9.990  17.2050  0.00  0.00     0.000 O
ATOM     40   O  NAG B   3       7.797 -13.367  17.2690  0.00  0.00     0.000 O
ATOM     42  HD  NAG B   3       8.594 -13.206  17.5660  0.00  0.00     0.000 HD
ATOM     42   C  NAG B   3      10.412 -11.963  16.8230  0.00  0.00     0.000 C
ATOM     43   O  NAG B   3      10.443 -11.602  15.4370  0.00  0.00     0.000 O
ATOM     45  HD  NAG B   3      11.240 -11.441  15.7340  0.00  0.00     0.000 HD
BRANCH 35 47
ATOM     45   N  NAG B   3       5.840  -8.890  16.7420  0.00  0.00     0.000 N
ATOM     47  HD  NAG B   3       6.126  -9.521  16.2230  0.00  0.00     0.000 HD
ATOM     47   C  NAG B   3       4.795  -8.409  17.3870  0.00  0.00     0.000 C
ATOM     48   C  NAG B   3       3.841  -7.583  16.5760  0.00  0.00     0.000 C
ATOM     49   O  NAG B   3       4.599  -8.645  18.5770  0.00  0.00     0.000 OA
ENDBRANCH 35 47
BRANCH 34 50
ATOM     50  O4  BDP B   4       8.247  -7.904  17.5700  0.00  0.00     0.000 O
BRANCH 50 54
ATOM     51  C1  BDP B   4       9.924  -4.334  18.5700  0.00  0.00     0.000 C
ATOM     52  C2  BDP B   4      10.770  -5.190  17.6330  0.00  0.00     0.000 C
ATOM     53  C3  BDP B   4       9.905  -6.268  17.0560  0.00  0.00     0.000 C
ATOM     54  C4  BDP B   4       9.233  -7.073  18.2050  0.00  0.00     0.000 C
ATOM     55  C5  BDP B   4       8.566  -6.169  19.2330  0.00  0.00     0.000 C
ATOM     56  O5  BDP B   4       9.458  -5.135  19.6400  0.00  0.00     0.000 O
ATOM     57   O  BDP B   4      11.293  -4.399  16.5860  0.00  0.00     0.000 O
ATOM     59  HD  BDP B   4      12.122  -4.272  16.8020  0.00  0.00     0.000 HD
ATOM     59   O  BDP B   4      10.776  -7.164  16.3350  0.00  0.00     0.000 O
ATOM     61  HD  BDP B   4      11.604  -7.036  16.5510  0.00  0.00     0.000 HD
BRANCH 55 61
ATOM     61   C  BDP B   4       8.172  -6.994  20.4450  0.00  0.00     0.000 C
ATOM     62   O  BDP B   4       9.078  -7.328  21.2520  0.00  0.00     0.000 OA
ATOM     63   O  BDP B   4       6.950  -7.306  20.5880  0.00  0.00     0.000 OA
ENDBRANCH 55 61
BRANCH 51 64
ATOM     64  O3  NAG B   5      10.767  -3.272  19.0550  0.00  0.00     0.000 O
BRANCH 64 67
ATOM     65  C1  NAG B   5       9.529   0.140  19.7040  0.00  0.00     0.000 C
ATOM     66  C2  NAG B   5      10.078  -1.039  18.9190  0.00  0.00     0.000 C
ATOM     67  C3  NAG B   5      10.047  -2.295  19.7810  0.00  0.00     0.000 C
ATOM     68  C4  NAG B   5      10.734  -2.053  21.1320  0.00  0.00     0.000 C
ATOM     69  C5  NAG B   5      10.184  -0.801  21.7980  0.00  0.00     0.000 C
ATOM     70  O5  NAG B   5      10.265   0.310  20.8940  0.00  0.00     0.000 O
ATOM     71   O  NAG B   5      10.545  -3.191  21.9460  0.00  0.00     0.000 O
ATOM     73  HD  NAG B   5      11.376  -3.042  22.1380  0.00  0.00     0.000 HD
ATOM     73   C  NAG B   5      10.902  -0.409  23.0970  0.00  0.00     0.000 C
ATOM     74   O  NAG B   5      12.274  -0.070  22.8080  0.00  0.00     0.000 O
ATOM     76  HD  NAG B   5      13.106   0.079  23.0000  0.00  0.00     0.000 HD
BRANCH 66 78
ATOM     76   N  NAG B   5       9.258  -0.990  17.6930  0.00  0.00     0.000 N
ATOM     78  HD  NAG B   5      10.099  -1.028  17.8960  0.00  0.00     0.000 HD
ATOM     78   C  NAG B   5       9.695  -1.206  16.4420  0.00  0.00     0.000 C
ATOM     79   C  NAG B   5       8.613  -1.103  15.4030  0.00  0.00     0.000 C
ATOM     80   O  NAG B   5      10.919  -1.465  16.1600  0.00  0.00     0.000 OA
ENDBRANCH 66 78
BRANCH 65 81
ATOM     81  O4  BDP B   6       9.599   1.334  18.9130  0.00  0.00     0.000 O
BRANCH 81 85
ATOM     82  C1  BDP B   6       7.808   5.223  18.7410  0.00  0.00     0.000 C
ATOM     83  C2  BDP B   6       9.039   5.052  19.6270  0.00  0.00     0.000 C
ATOM     84  C3  BDP B   6       9.828   3.778  19.3090  0.00  0.00     0.000 C
ATOM     85  C4  BDP B   6       8.931   2.539  19.2950  0.00  0.00     0.000 C
ATOM     86  C5  BDP B   6       7.709   2.846  18.3980  0.00  0.00     0.000 C
ATOM     87  O5  BDP B   6       7.005   4.055  18.8290  0.00  0.00     0.000 O
ATOM     88   O  BDP B   6       9.853   6.193  19.3710  0.00  0.00     0.000 O
ATOM     90  HD  BDP B   6      10.684   6.406  19.2490  0.00  0.00     0.000 HD
ATOM     90   O  BDP B   6      10.895   3.628  20.2500  0.00  0.00     0.000 O
ATOM     92  HD  BDP B   6      11.725   3.842  20.1270  0.00  0.00     0.000 HD
BRANCH 86 92
ATOM     92   C  BDP B   6       6.670   1.759  18.5280  0.00  0.00     0.000 C
ATOM     93   O  BDP B   6       5.851   1.791  19.4960  0.00  0.00     0.000 OA
ATOM     94   O  BDP B   6       6.648   0.859  17.6320  0.00  0.00     0.000 OA
ENDBRANCH 86 92
BRANCH 82 95
ATOM     95  O3  NAG B   7       7.036   6.330  19.2460  0.00  0.00     0.000 O
BRANCH 95 98
ATOM     96  C1  NAG B   7       4.683   8.503  17.4910  0.00  0.00     0.000 C
ATOM     97  C2  NAG B   7       5.962   8.151  18.2390  0.00  0.00     0.000 C
ATOM     98  C3  NAG B   7       5.811   6.675  18.6010  0.00  0.00     0.000 C
ATOM     99  C4  NAG B   7       4.578   6.480  19.4800  0.00  0.00     0.000 C
ATOM    100  C5  NAG B   7       3.333   7.067  18.8130  0.00  0.00     0.000 C
ATOM    101  O5  NAG B   7       3.606   8.406  18.4290  0.00  0.00     0.000 O
BRANCH 97 104
ATOM    102   N  NAG B   7       7.195   8.262  17.4470  0.00  0.00     0.000 N
ATOM    104  HD  NAG B   7       7.917   8.065  17.0110  0.00  0.00     0.000 HD
ATOM    104   O  NAG B   7       9.324   8.883  16.9900  0.00  0.00     0.000 OA
ATOM    105   C  NAG B   7       8.328   8.928  17.7380  0.00  0.00     0.000 C
ATOM    106   C  NAG B   7       8.396   9.729  18.9930  0.00  0.00     0.000 C
ENDBRANCH 97 104
ATOM    107   O  NAG B   7       1.002   7.252  18.9910  0.00  0.00     0.000 O
ATOM    109  HD  NAG B   7       1.664   7.141  18.4440  0.00  0.00     0.000 HD
ATOM    109   O  NAG B   7       1.002   7.252  18.9910  0.00  0.00     0.000 O
ATOM    111  HD  NAG B   7       1.664   7.141  18.4440  0.00  0.00     0.000 HD
ENDBRANCH 95 98
ENDBRANCH 82 95
ENDBRANCH 81 85
ENDBRANCH 65 81
ENDBRANCH 64 67
ENDBRANCH 51 64
ENDBRANCH 50 54
ENDBRANCH 34 50
ENDBRANCH 33 36
ENDBRANCH 20 33
ENDBRANCH 19 23
ENDBRANCH 1 19
TORSDOF 19
ENDMDL
MODEL 28
REMARK VINA RESULT:      -7.2     10.351     20.500
ROOT
ATOM      1  C1  NAG B   1      10.581   7.661  14.4040  0.00  0.00     0.000 C
ATOM      2  C2  NAG B   1      10.257   8.281  13.0470  0.00  0.00     0.000 C
ATOM      3  C3  NAG B   1      10.270   9.795  13.1000  0.00  0.00     0.000 C
ATOM      4  C4  NAG B   1       9.250  10.173  14.1690  0.00  0.00     0.000 C
ATOM      5  C5  NAG B   1       9.716   9.626  15.5250  0.00  0.00     0.000 C
ATOM      6  O5  NAG B   1       9.814   8.186  15.4990  0.00  0.00     0.000 O
ATOM      7   O  NAG B   1       9.926  10.388  11.8270  0.00  0.00     0.000 O
ATOM      9  HD  NAG B   1      10.362   9.678  11.5900  0.00  0.00     0.000 HD
ATOM      9   O  NAG B   1       9.118  11.583  14.2400  0.00  0.00     0.000 O
ATOM     11  HD  NAG B   1       9.554  10.873  14.0040  0.00  0.00     0.000 HD
ATOM     11   C  NAG B   1       8.777  10.112  16.6360  0.00  0.00     0.000 C
ATOM     12   O  NAG B   1       8.731   9.183  17.7180  0.00  0.00     0.000 O
ATOM     14  HD  NAG B   1       9.167   8.473  17.4810  0.00  0.00     0.000 HD
ENDROOT
BRANCH 2 16
ATOM     14   N  NAG B   1       9.938   7.293  12.0000  0.00  0.00     0.000 N
ATOM     16  HD  NAG B   1       9.662   7.221  11.1820  0.00  0.00     0.000 HD
ATOM     16   C  NAG B   1      10.777   6.989  10.9950  0.00  0.00     0.000 C
ATOM     17   C  NAG B   1      12.106   7.690  10.8880  0.00  0.00     0.000 C
ATOM     18   O  NAG B   1      10.496   6.123  10.1680  0.00  0.00     0.000 OA
ENDBRANCH 2 16
BRANCH 1 19
ATOM     19  O4  BDP B   2      10.169   6.310  14.2490  0.00  0.00     0.000 O
BRANCH 19 23
ATOM     20  C1  BDP B   2      11.055   2.725  16.0670  0.00  0.00     0.000 C
ATOM     21  C2  BDP B   2      10.454   3.797  16.9510  0.00  0.00     0.000 C
ATOM     22  C3  BDP B   2       9.794   4.880  16.1280  0.00  0.00     0.000 C
ATOM     23  C4  BDP B   2      10.808   5.401  15.1130  0.00  0.00     0.000 C
ATOM     24  C5  BDP B   2      11.329   4.245  14.2820  0.00  0.00     0.000 C
ATOM     25  O5  BDP B   2      11.954   3.298  15.1280  0.00  0.00     0.000 O
ATOM     26   O  BDP B   2       9.511   3.231  17.8360  0.00  0.00     0.000 O
ATOM     28  HD  BDP B   2       9.887   2.514  17.5260  0.00  0.00     0.000 HD
ATOM     28   O  BDP B   2       9.322   5.918  17.0020  0.00  0.00     0.000 O
ATOM     30  HD  BDP B   2       9.698   5.202  16.6920  0.00  0.00     0.000 HD
BRANCH 24 30
ATOM     30   C  BDP B   2      12.333   4.684  13.2780  0.00  0.00     0.000 C
ATOM     31   O  BDP B   2      12.298   4.134  12.1530  0.00  0.00     0.000 OA
ATOM     32   O  BDP B   2      13.168   5.573  13.6100  0.00  0.00     0.000 OA
ENDBRANCH 24 30
BRANCH 20 33
ATOM     33  O3  NAG B   3      11.777   1.912  16.9600  0.00  0.00     0.000 O
BRANCH 33 36
ATOM     34  C1  NAG B   3      11.666  -1.839  16.7020  0.00  0.00     0.000 C
ATOM     35  C2  NAG B   3      11.241  -0.444  17.1190  0.00  0.00     0.000 C
ATOM     36  C3  NAG B   3      12.066   0.631  16.3950  0.00  0.00     0.000 C
ATOM     37  C4  NAG B   3      13.553   0.335  16.5760  0.00  0.00     0.000 C
ATOM     38  C5  NAG B   3      13.851  -1.116  16.2100  0.00  0.00     0.000 C
ATOM     39  O5  NAG B   3      13.049  -1.986  16.9890  0.00  0.00     0.000 O
ATOM     40   O  NAG B   3      14.332   1.208  15.7440  0.00  0.00     0.000 O
ATOM     42  HD  NAG B   3      14.657   0.454  15.4690  0.00  0.00     0.000 HD
ATOM     42   C  NAG B   3      15.292  -1.538  16.4850  0.00  0.00     0.000 C
ATOM     43   O  NAG B   3      15.539  -1.509  17.8960  0.00  0.00     0.000 O
ATOM     45  HD  NAG B   3      15.863  -2.264  17.6220  0.00  0.00     0.000 HD
BRANCH 35 47
ATOM     45   N  NAG B   3       9.819  -0.239  16.8710  0.00  0.00     0.000 N
ATOM     47  HD  NAG B   3      10.124  -0.955  16.4910  0.00  0.00     0.000 HD
ATOM     47   C  NAG B   3       8.994   0.234  17.7830  0.00  0.00     0.000 C
ATOM     48   C  NAG B   3       7.557   0.364  17.3700  0.00  0.00     0.000 C
ATOM     49   O  NAG B   3       9.372   0.528  18.9150  0.00  0.00     0.000 OA
ENDBRANCH 35 47
BRANCH 34 50
ATOM     50  O4  BDP B   4      10.898  -2.684  17.5330  0.00  0.00     0.000 O
BRANCH 50 54
ATOM     51  C1  BDP B   4       9.071  -6.310  17.7880  0.00  0.00     0.000 C
ATOM     52  C2  BDP B   4      10.569  -6.375  17.5140  0.00  0.00     0.000 C
ATOM     53  C3  BDP B   4      11.170  -5.037  17.8140  0.00  0.00     0.000 C
ATOM     54  C4  BDP B   4      10.431  -3.935  17.0010  0.00  0.00     0.000 C
ATOM     55  C5  BDP B   4       8.918  -4.027  17.1430  0.00  0.00     0.000 C
ATOM     56  O5  BDP B   4       8.477  -5.363  16.9180  0.00  0.00     0.000 O
ATOM     57   O  BDP B   4      11.174  -7.354  18.3320  0.00  0.00     0.000 O
ATOM     59  HD  BDP B   4      11.308  -8.027  17.8040  0.00  0.00     0.000 HD
ATOM     59   O  BDP B   4      12.539  -5.080  17.3620  0.00  0.00     0.000 O
ATOM     61  HD  BDP B   4      12.672  -5.753  16.8340  0.00  0.00     0.000 HD
BRANCH 55 61
ATOM     61   C  BDP B   4       8.262  -3.108  16.1280  0.00  0.00     0.000 C
ATOM     62   O  BDP B   4       7.091  -2.710  16.3610  0.00  0.00     0.000 OA
ATOM     63   O  BDP B   4       8.925  -2.783  15.0960  0.00  0.00     0.000 OA
ENDBRANCH 55 61
BRANCH 51 64
ATOM     64  O3  NAG B   5       8.535  -7.627  17.5520  0.00  0.00     0.000 O
BRANCH 64 67
ATOM     65  C1  NAG B   5       5.786  -9.012  19.5810  0.00  0.00     0.000 C
ATOM     66  C2  NAG B   5       7.205  -8.631  19.1950  0.00  0.00     0.000 C
ATOM     67  C3  NAG B   5       7.185  -7.746  17.9560  0.00  0.00     0.000 C
ATOM     68  C4  NAG B   5       6.370  -8.394  16.8280  0.00  0.00     0.000 C
ATOM     69  C5  NAG B   5       5.002  -8.824  17.3330  0.00  0.00     0.000 C
ATOM     70  O5  NAG B   5       5.148  -9.650  18.4980  0.00  0.00     0.000 O
ATOM     71   O  NAG B   5       6.256  -7.471  15.7660  0.00  0.00     0.000 O
ATOM     73  HD  NAG B   5       6.411  -8.181  15.2940  0.00  0.00     0.000 HD
ATOM     73   C  NAG B   5       4.164  -9.597  16.3060  0.00  0.00     0.000 C
ATOM     74   O  NAG B   5       4.819 -10.842  15.9850  0.00  0.00     0.000 O
ATOM     76  HD  NAG B   5       4.974 -11.551  15.5120  0.00  0.00     0.000 HD
BRANCH 66 78
ATOM     76   N  NAG B   5       8.337  -9.041  20.0490  0.00  0.00     0.000 N
ATOM     78  HD  NAG B   5       7.927  -8.306  19.8440  0.00  0.00     0.000 HD
ATOM     78   C  NAG B   5       8.951  -8.277  20.9660  0.00  0.00     0.000 C
ATOM     79   C  NAG B   5      10.062  -8.987  21.6910  0.00  0.00     0.000 C
ATOM     80   O  NAG B   5       8.628  -7.057  21.1950  0.00  0.00     0.000 OA
ENDBRANCH 66 78
BRANCH 65 81
ATOM     81  O4  BDP B   6       5.801  -9.884  20.7190  0.00  0.00     0.000 O
BRANCH 81 85
ATOM     82  C1  BDP B   6       3.413 -10.851  24.1430  0.00  0.00     0.000 C
ATOM     83  C2  BDP B   6       2.997 -11.447  22.8010  0.00  0.00     0.000 C
ATOM     84  C3  BDP B   6       4.110 -11.387  21.7520  0.00  0.00     0.000 C
ATOM     85  C4  BDP B   6       4.695  -9.979  21.6190  0.00  0.00     0.000 C
ATOM     86  C5  BDP B   6       5.043  -9.472  23.0380  0.00  0.00     0.000 C
ATOM     87  O5  BDP B   6       3.889  -9.528  23.9370  0.00  0.00     0.000 O
ATOM     88   O  BDP B   6       2.672 -12.807  23.0740  0.00  0.00     0.000 O
ATOM     90  HD  BDP B   6       2.778 -13.599  22.7390  0.00  0.00     0.000 HD
ATOM     90   O  BDP B   6       3.612 -11.855  20.4960  0.00  0.00     0.000 O
ATOM     92  HD  BDP B   6       3.718 -12.647  20.1620  0.00  0.00     0.000 HD
BRANCH 86 92
ATOM     92   C  BDP B   6       5.402  -8.006  23.0050  0.00  0.00     0.000 C
ATOM     93   O  BDP B   6       6.466  -7.611  23.5680  0.00  0.00     0.000 OA
ATOM     94   O  BDP B   6       4.617  -7.225  22.3820  0.00  0.00     0.000 OA
ENDBRANCH 86 92
BRANCH 82 95
ATOM     95  O3  NAG B   7       2.248 -10.775  24.9870  0.00  0.00     0.000 O
BRANCH 95 98
ATOM     96  C1  NAG B   7       1.040  -9.445  28.1670  0.00  0.00     0.000 C
ATOM     97  C2  NAG B   7       0.958 -10.229  26.8640  0.00  0.00     0.000 C
ATOM     98  C3  NAG B   7       2.301  -9.989  26.1770  0.00  0.00     0.000 C
ATOM     99  C4  NAG B   7       2.493  -8.497  25.9200  0.00  0.00     0.000 C
ATOM    100  C5  NAG B   7       2.324  -7.694  27.2100  0.00  0.00     0.000 C
ATOM    101  O5  NAG B   7       1.095  -8.057  27.8200  0.00  0.00     0.000 O
BRANCH 97 104
ATOM    102   N  NAG B   7       0.870 -11.693  26.9580  0.00  0.00     0.000 N
ATOM    104  HD  NAG B   7       1.034 -12.538  26.8630  0.00  0.00     0.000 HD
ATOM    104   O  NAG B   7      -0.039 -13.746  26.6570  0.00  0.00     0.000 OA
ATOM    105   C  NAG B   7      -0.130 -12.506  26.5680  0.00  0.00     0.000 C
ATOM    106   C  NAG B   7      -1.372 -11.906  26.0010  0.00  0.00     0.000 C
ENDBRANCH 97 104
ATOM    107   O  NAG B   7       2.526  -5.552  28.1450  0.00  0.00     0.000 O
ATOM    109  HD  NAG B   7       2.647  -6.398  28.2820  0.00  0.00     0.000 HD
ATOM    109   O  NAG B   7       2.526  -5.552  28.1450  0.00  0.00     0.000 O
ATOM    111  HD  NAG B   7       2.647  -6.398  28.2820  0.00  0.00     0.000 HD
ENDBRANCH 95 98
ENDBRANCH 82 95
ENDBRANCH 81 85
ENDBRANCH 65 81
ENDBRANCH 64 67
ENDBRANCH 51 64
ENDBRANCH 50 54
ENDBRANCH 34 50
ENDBRANCH 33 36
ENDBRANCH 20 33
ENDBRANCH 19 23
ENDBRANCH 1 19
TORSDOF 19
ENDMDL
MODEL 29
REMARK VINA RESULT:      -7.1      8.496     16.947
ROOT
ATOM      1  C1  NAG B   1      10.296   6.582  15.2240  0.00  0.00     0.000 C
ATOM      2  C2  NAG B   1       9.482   7.519  14.3360  0.00  0.00     0.000 C
ATOM      3  C3  NAG B   1       9.144   8.815  15.0440  0.00  0.00     0.000 C
ATOM      4  C4  NAG B   1       8.389   8.407  16.3050  0.00  0.00     0.000 C
ATOM      5  C5  NAG B   1       9.318   7.580  17.2020  0.00  0.00     0.000 C
ATOM      6  O5  NAG B   1       9.748   6.374  16.5360  0.00  0.00     0.000 O
ATOM      7   O  NAG B   1       8.340   9.692  14.2230  0.00  0.00     0.000 O
ATOM      9  HD  NAG B   1       8.854   9.309  13.6400  0.00  0.00     0.000 HD
ATOM      9   O  NAG B   1       7.947   9.559  17.0030  0.00  0.00     0.000 O
ATOM     11  HD  NAG B   1       8.460   9.176  16.4210  0.00  0.00     0.000 HD
ATOM     11   C  NAG B   1       8.624   7.275  18.5350  0.00  0.00     0.000 C
ATOM     12   O  NAG B   1       9.093   6.050  19.0960  0.00  0.00     0.000 O
ATOM     14  HD  NAG B   1       9.607   5.668  18.5130  0.00  0.00     0.000 HD
ENDROOT
BRANCH 2 16
ATOM     14   N  NAG B   1      10.182   7.082  13.1150  0.00  0.00     0.000 N
ATOM     16  HD  NAG B   1      10.177   6.476  12.4970  0.00  0.00     0.000 HD
ATOM     16   C  NAG B   1       9.727   7.339  11.8760  0.00  0.00     0.000 C
ATOM     17   C  NAG B   1       8.431   8.081  11.6900  0.00  0.00     0.000 C
ATOM     18   O  NAG B   1      10.366   7.001  10.8800  0.00  0.00     0.000 OA
ENDBRANCH 2 16
BRANCH 1 19
ATOM     19  O4  BDP B   2      10.194   5.332  14.5550  0.00  0.00     0.000 O
BRANCH 19 23
ATOM     20  C1  BDP B   2      12.033   1.664  14.8800  0.00  0.00     0.000 C
ATOM     21  C2  BDP B   2      10.975   1.981  15.9180  0.00  0.00     0.000 C
ATOM     22  C3  BDP B   2      10.095   3.126  15.4700  0.00  0.00     0.000 C
ATOM     23  C4  BDP B   2      10.988   4.308  15.1040  0.00  0.00     0.000 C
ATOM     24  C5  BDP B   2      11.993   3.874  14.0550  0.00  0.00     0.000 C
ATOM     25  O5  BDP B   2      12.790   2.824  14.5680  0.00  0.00     0.000 O
ATOM     26   O  BDP B   2      10.182   0.842  16.1720  0.00  0.00     0.000 O
ATOM     28  HD  BDP B   2      10.825   0.487  15.7140  0.00  0.00     0.000 HD
ATOM     28   O  BDP B   2       9.172   3.452  16.5210  0.00  0.00     0.000 O
ATOM     30  HD  BDP B   2       9.815   3.096  16.0630  0.00  0.00     0.000 HD
BRANCH 24 30
ATOM     30   C  BDP B   2      12.906   4.980  13.6600  0.00  0.00     0.000 C
ATOM     31   O  BDP B   2      13.675   5.431  14.5400  0.00  0.00     0.000 OA
ATOM     32   O  BDP B   2      12.852   5.408  12.4720  0.00  0.00     0.000 OA
ENDBRANCH 24 30
BRANCH 20 33
ATOM     33  O3  NAG B   3      12.865   0.726  15.5180  0.00  0.00     0.000 O
BRANCH 33 36
ATOM     34  C1  NAG B   3      14.169  -2.493  14.0730  0.00  0.00     0.000 C
ATOM     35  C2  NAG B   3      13.296  -1.578  14.9110  0.00  0.00     0.000 C
ATOM     36  C3  NAG B   3      13.551  -0.101  14.5750  0.00  0.00     0.000 C
ATOM     37  C4  NAG B   3      15.048   0.187  14.6630  0.00  0.00     0.000 C
ATOM     38  C5  NAG B   3      15.833  -0.843  13.8540  0.00  0.00     0.000 C
ATOM     39  O5  NAG B   3      15.527  -2.150  14.3090  0.00  0.00     0.000 O
ATOM     40   O  NAG B   3      15.326   1.503  14.1600  0.00  0.00     0.000 O
ATOM     42  HD  NAG B   3      15.879   1.060  13.6610  0.00  0.00     0.000 HD
ATOM     42   C  NAG B   3      17.348  -0.710  13.9910  0.00  0.00     0.000 C
ATOM     43   O  NAG B   3      17.734  -1.004  15.3390  0.00  0.00     0.000 O
ATOM     45  HD  NAG B   3      18.287  -1.446  14.8400  0.00  0.00     0.000 HD
BRANCH 35 47
ATOM     45   N  NAG B   3      12.366  -2.078  15.9160  0.00  0.00     0.000 N
ATOM     47  HD  NAG B   3      13.033  -1.648  16.2630  0.00  0.00     0.000 HD
ATOM     47   C  NAG B   3      11.060  -2.090  15.7400  0.00  0.00     0.000 C
ATOM     48   C  NAG B   3      10.244  -2.619  16.8830  0.00  0.00     0.000 C
ATOM     49   O  NAG B   3      10.536  -1.668  14.7110  0.00  0.00     0.000 OA
ENDBRANCH 35 47
BRANCH 34 50
ATOM     50  O4  BDP B   4      13.890  -3.780  14.5850  0.00  0.00     0.000 O
BRANCH 50 54
ATOM     51  C1  BDP B   4      12.853  -7.491  13.2790  0.00  0.00     0.000 C
ATOM     52  C2  BDP B   4      14.277  -7.384  13.8140  0.00  0.00     0.000 C
ATOM     53  C3  BDP B   4      14.404  -6.109  14.5890  0.00  0.00     0.000 C
ATOM     54  C4  BDP B   4      13.977  -4.908  13.6980  0.00  0.00     0.000 C
ATOM     55  C5  BDP B   4      12.633  -5.138  13.0190  0.00  0.00     0.000 C
ATOM     56  O5  BDP B   4      12.606  -6.417  12.3910  0.00  0.00     0.000 O
ATOM     57   O  BDP B   4      14.566  -8.477  14.6600  0.00  0.00     0.000 O
ATOM     59  HD  BDP B   4      15.059  -9.001  14.1790  0.00  0.00     0.000 HD
ATOM     59   O  BDP B   4      15.801  -5.950  14.9100  0.00  0.00     0.000 O
ATOM     61  HD  BDP B   4      16.294  -6.474  14.4290  0.00  0.00     0.000 HD
BRANCH 55 61
ATOM     61   C  BDP B   4      12.410  -4.062  11.9720  0.00  0.00     0.000 C
ATOM     62   O  BDP B   4      13.196  -4.021  10.9900  0.00  0.00     0.000 OA
ATOM     63   O  BDP B   4      11.441  -3.258  12.1340  0.00  0.00     0.000 OA
ENDBRANCH 55 61
BRANCH 51 64
ATOM     64  O3  NAG B   5      12.747  -8.755  12.5960  0.00  0.00     0.000 O
BRANCH 64 67
ATOM     65  C1  NAG B   5       9.819 -10.968  12.9390  0.00  0.00     0.000 C
ATOM     66  C2  NAG B   5      11.158 -10.334  13.2730  0.00  0.00     0.000 C
ATOM     67  C3  NAG B   5      11.405  -9.137  12.3640  0.00  0.00     0.000 C
ATOM     68  C4  NAG B   5      11.231  -9.520  10.8880  0.00  0.00     0.000 C
ATOM     69  C5  NAG B   5       9.904 -10.230  10.6700  0.00  0.00     0.000 C
ATOM     70  O5  NAG B   5       9.786 -11.335  11.5790  0.00  0.00     0.000 O
ATOM     71   O  NAG B   5      11.320  -8.350  10.1040  0.00  0.00     0.000 O
ATOM     73  HD  NAG B   5      11.790  -8.871   9.5970  0.00  0.00     0.000 HD
ATOM     73   C  NAG B   5       9.699 -10.764   9.2460  0.00  0.00     0.000 C
ATOM     74   O  NAG B   5      10.684 -11.780   8.9640  0.00  0.00     0.000 O
ATOM     76  HD  NAG B   5      11.154 -12.301   8.4560  0.00  0.00     0.000 HD
BRANCH 66 78
ATOM     76   N  NAG B   5      11.057 -10.054  14.7180  0.00  0.00     0.000 N
ATOM     78  HD  NAG B   5      11.583 -10.494  14.1900  0.00  0.00     0.000 HD
ATOM     78   C  NAG B   5      11.999 -10.310  15.6400  0.00  0.00     0.000 C
ATOM     79   C  NAG B   5      11.606  -9.892  17.0310  0.00  0.00     0.000 C
ATOM     80   O  NAG B   5      13.121 -10.866  15.3620  0.00  0.00     0.000 OA
ENDBRANCH 66 78
BRANCH 65 81
ATOM     81  O4  BDP B   6       9.602 -12.123  13.7600  0.00  0.00     0.000 O
BRANCH 81 85
ATOM     82  C1  BDP B   6       6.144 -14.108  15.3300  0.00  0.00     0.000 C
ATOM     83  C2  BDP B   6       5.921 -13.046  14.2560  0.00  0.00     0.000 C
ATOM     84  C3  BDP B   6       7.199 -12.703  13.4860  0.00  0.00     0.000 C
ATOM     85  C4  BDP B   6       8.359 -12.363  14.4240  0.00  0.00     0.000 C
ATOM     86  C5  BDP B   6       8.461 -13.488  15.4810  0.00  0.00     0.000 C
ATOM     87  O5  BDP B   6       7.195 -13.689  16.1880  0.00  0.00     0.000 O
ATOM     88   O  BDP B   6       4.961 -13.604  13.3630  0.00  0.00     0.000 O
ATOM     90  HD  BDP B   6       4.798 -13.670  12.5150  0.00  0.00     0.000 HD
ATOM     90   O  BDP B   6       6.939 -11.626  12.5820  0.00  0.00     0.000 O
ATOM     92  HD  BDP B   6       6.775 -11.692  11.7340  0.00  0.00     0.000 HD
BRANCH 86 92
ATOM     92   C  BDP B   6       9.426 -13.100  16.5750  0.00  0.00     0.000 C
ATOM     93   O  BDP B   6       9.164 -12.104  17.3150  0.00  0.00     0.000 OA
ATOM     94   O  BDP B   6      10.464 -13.817  16.7220  0.00  0.00     0.000 OA
ENDBRANCH 86 92
BRANCH 82 95
ATOM     95  O3  NAG B   7       4.943 -14.213  16.1200  0.00  0.00     0.000 O
BRANCH 95 98
ATOM     96  C1  NAG B   7       2.642 -16.618  17.6250  0.00  0.00     0.000 C
ATOM     97  C2  NAG B   7       3.191 -15.238  17.2870  0.00  0.00     0.000 C
ATOM     98  C3  NAG B   7       4.465 -15.506  16.4890  0.00  0.00     0.000 C
ATOM     99  C4  NAG B   7       5.450 -16.307  17.3370  0.00  0.00     0.000 C
ATOM    100  C5  NAG B   7       4.797 -17.580  17.8760  0.00  0.00     0.000 C
ATOM    101  O5  NAG B   7       3.577 -17.236  18.5160  0.00  0.00     0.000 O
BRANCH 97 104
ATOM    102   N  NAG B   7       2.513 -13.975  16.9620  0.00  0.00     0.000 N
ATOM    104  HD  NAG B   7       1.993 -13.284  16.9990  0.00  0.00     0.000 HD
ATOM    104   O  NAG B   7       1.201 -12.565  15.7710  0.00  0.00     0.000 OA
ATOM    105   C  NAG B   7       1.768 -13.669  15.8830  0.00  0.00     0.000 C
ATOM    106   C  NAG B   7       1.607 -14.684  14.8040  0.00  0.00     0.000 C
ENDBRANCH 97 104
ATOM    107   O  NAG B   7       5.216 -19.575  19.0370  0.00  0.00     0.000 O
ATOM    109  HD  NAG B   7       4.777 -19.215  18.3830  0.00  0.00     0.000 HD
ATOM    109   O  NAG B   7       5.216 -19.575  19.0370  0.00  0.00     0.000 O
ATOM    111  HD  NAG B   7       4.777 -19.215  18.3830  0.00  0.00     0.000 HD
ENDBRANCH 95 98
ENDBRANCH 82 95
ENDBRANCH 81 85
ENDBRANCH 65 81
ENDBRANCH 64 67
ENDBRANCH 51 64
ENDBRANCH 50 54
ENDBRANCH 34 50
ENDBRANCH 33 36
ENDBRANCH 20 33
ENDBRANCH 19 23
ENDBRANCH 1 19
TORSDOF 19
ENDMDL
MODEL 30
REMARK VINA RESULT:      -7.1     17.994     21.901
ROOT
ATOM      1  C1  NAG B   1      -5.961  -4.555  17.5340  0.00  0.00     0.000 C
ATOM      2  C2  NAG B   1      -7.219  -5.369  17.8230  0.00  0.00     0.000 C
ATOM      3  C3  NAG B   1      -8.479  -4.599  17.4870  0.00  0.00     0.000 C
ATOM      4  C4  NAG B   1      -8.410  -3.322  18.3180  0.00  0.00     0.000 C
ATOM      5  C5  NAG B   1      -7.194  -2.499  17.8760  0.00  0.00     0.000 C
ATOM      6  O5  NAG B   1      -5.966  -3.229  18.0870  0.00  0.00     0.000 O
ATOM      7   O  NAG B   1      -9.676  -5.350  17.7940  0.00  0.00     0.000 O
ATOM      9  HD  NAG B   1      -9.128  -5.969  17.5370  0.00  0.00     0.000 HD
ATOM      9   O  NAG B   1      -9.594  -2.561  18.1440  0.00  0.00     0.000 O
ATOM     11  HD  NAG B   1      -9.046  -3.180  17.8870  0.00  0.00     0.000 HD
ATOM     11   C  NAG B   1      -7.183  -1.148  18.6030  0.00  0.00     0.000 C
ATOM     12   O  NAG B   1      -5.853  -0.656  18.7610  0.00  0.00     0.000 O
ATOM     14  HD  NAG B   1      -5.305  -1.275  18.5040  0.00  0.00     0.000 HD
ENDROOT
BRANCH 2 16
ATOM     14   N  NAG B   1      -6.965  -6.650  17.1380  0.00  0.00     0.000 N
ATOM     16  HD  NAG B   1      -6.370  -7.271  17.0370  0.00  0.00     0.000 HD
ATOM     16   C  NAG B   1      -7.079  -7.843  17.7460  0.00  0.00     0.000 C
ATOM     17   C  NAG B   1      -7.456  -7.912  19.2020  0.00  0.00     0.000 C
ATOM     18   O  NAG B   1      -6.907  -8.893  17.1280  0.00  0.00     0.000 OA
ENDBRANCH 2 16
BRANCH 1 19
ATOM     19  O4  BDP B   2      -4.948  -5.266  18.2330  0.00  0.00     0.000 O
BRANCH 19 23
ATOM     20  C1  BDP B   2      -2.512  -1.980  18.6960  0.00  0.00     0.000 C
ATOM     21  C2  BDP B   2      -2.216  -2.877  17.5110  0.00  0.00     0.000 C
ATOM     22  C3  BDP B   2      -3.388  -3.778  17.1990  0.00  0.00     0.000 C
ATOM     23  C4  BDP B   2      -3.773  -4.528  18.4710  0.00  0.00     0.000 C
ATOM     24  C5  BDP B   2      -4.057  -3.531  19.5780  0.00  0.00     0.000 C
ATOM     25  O5  BDP B   2      -2.901  -2.753  19.8230  0.00  0.00     0.000 O
ATOM     26   O  BDP B   2      -1.898  -2.099  16.3770  0.00  0.00     0.000 O
ATOM     28  HD  BDP B   2      -1.873  -1.493  16.9950  0.00  0.00     0.000 HD
ATOM     28   O  BDP B   2      -3.028  -4.672  16.1340  0.00  0.00     0.000 O
ATOM     30  HD  BDP B   2      -3.003  -4.065  16.7520  0.00  0.00     0.000 HD
BRANCH 24 30
ATOM     30   C  BDP B   2      -4.428  -4.199  20.8530  0.00  0.00     0.000 C
ATOM     31   O  BDP B   2      -3.525  -4.820  21.4610  0.00  0.00     0.000 OA
ATOM     32   O  BDP B   2      -5.625  -4.113  21.2510  0.00  0.00     0.000 OA
ENDBRANCH 24 30
BRANCH 20 33
ATOM     33  O3  NAG B   3      -1.281  -1.355  18.9660  0.00  0.00     0.000 O
BRANCH 33 36
ATOM     34  C1  NAG B   3      -1.425   2.124  20.3880  0.00  0.00     0.000 C
ATOM     35  C2  NAG B   3      -1.506   1.026  19.3460  0.00  0.00     0.000 C
ATOM     36  C3  NAG B   3      -1.404  -0.365  19.9910  0.00  0.00     0.000 C
ATOM     37  C4  NAG B   3      -0.166  -0.420  20.8820  0.00  0.00     0.000 C
ATOM     38  C5  NAG B   3      -0.144   0.775  21.8310  0.00  0.00     0.000 C
ATOM     39  O5  NAG B   3      -0.198   1.982  21.0900  0.00  0.00     0.000 O
ATOM     40   O  NAG B   3      -0.164  -1.636  21.6460  0.00  0.00     0.000 O
ATOM     42  HD  NAG B   3      -0.083  -1.078  22.3030  0.00  0.00     0.000 HD
ATOM     42   C  NAG B   3       1.126   0.873  22.6720  0.00  0.00     0.000 C
ATOM     43   O  NAG B   3       2.248   1.125  21.8170  0.00  0.00     0.000 O
ATOM     45  HD  NAG B   3       2.330   1.683  22.4740  0.00  0.00     0.000 HD
BRANCH 35 47
ATOM     45   N  NAG B   3      -1.616   1.205  17.9040  0.00  0.00     0.000 N
ATOM     47  HD  NAG B   3      -0.895   0.783  18.1340  0.00  0.00     0.000 HD
ATOM     47   C  NAG B   3      -2.760   1.120  17.2550  0.00  0.00     0.000 C
ATOM     48   C  NAG B   3      -2.693   1.311  15.7690  0.00  0.00     0.000 C
ATOM     49   O  NAG B   3      -3.818   0.871  17.8300  0.00  0.00     0.000 OA
ENDBRANCH 35 47
BRANCH 34 50
ATOM     50  O4  BDP B   4      -1.420   3.311  19.6230  0.00  0.00     0.000 O
BRANCH 50 54
ATOM     51  C1  BDP B   4      -3.135   6.995  19.4190  0.00  0.00     0.000 C
ATOM     52  C2  BDP B   4      -1.746   6.979  20.0460  0.00  0.00     0.000 C
ATOM     53  C3  BDP B   4      -1.090   5.671  19.7240  0.00  0.00     0.000 C
ATOM     54  C4  BDP B   4      -2.001   4.498  20.1880  0.00  0.00     0.000 C
ATOM     55  C5  BDP B   4      -3.437   4.654  19.7060  0.00  0.00     0.000 C
ATOM     56  O5  BDP B   4      -3.919   5.964  19.9930  0.00  0.00     0.000 O
ATOM     57   O  BDP B   4      -0.963   8.034  19.5300  0.00  0.00     0.000 O
ATOM     59  HD  BDP B   4      -0.960   8.631  20.1570  0.00  0.00     0.000 HD
ATOM     59   O  BDP B   4       0.132   5.615  20.4890  0.00  0.00     0.000 O
ATOM     61  HD  BDP B   4       0.135   6.211  21.1170  0.00  0.00     0.000 HD
BRANCH 55 61
ATOM     61   C  BDP B   4      -4.315   3.634  20.4080  0.00  0.00     0.000 C
ATOM     62   O  BDP B   4      -5.012   2.864  19.6970  0.00  0.00     0.000 OA
ATOM     63   O  BDP B   4      -4.304   3.604  21.6770  0.00  0.00     0.000 OA
ENDBRANCH 55 61
BRANCH 51 64
ATOM     64  O3  NAG B   5      -3.712   8.287  19.6910  0.00  0.00     0.000 O
BRANCH 64 67
ATOM     65  C1  NAG B   5      -5.490   9.727  16.8010  0.00  0.00     0.000 C
ATOM     66  C2  NAG B   5      -4.331   9.195  17.6250  0.00  0.00     0.000 C
ATOM     67  C3  NAG B   5      -4.855   8.550  18.9010  0.00  0.00     0.000 C
ATOM     68  C4  NAG B   5      -5.790   9.504  19.6570  0.00  0.00     0.000 C
ATOM     69  C5  NAG B   5      -6.860  10.056  18.7280  0.00  0.00     0.000 C
ATOM     70  O5  NAG B   5      -6.248  10.635  17.5670  0.00  0.00     0.000 O
ATOM     71   O  NAG B   5      -6.364   8.808  20.7430  0.00  0.00     0.000 O
ATOM     73  HD  NAG B   5      -6.199   9.554  21.1510  0.00  0.00     0.000 HD
ATOM     73   C  NAG B   5      -7.765  11.118  19.3670  0.00  0.00     0.000 C
ATOM     74   O  NAG B   5      -6.979  12.278  19.7140  0.00  0.00     0.000 O
ATOM     76  HD  NAG B   5      -6.815  13.023  20.1230  0.00  0.00     0.000 HD
BRANCH 66 78
ATOM     76   N  NAG B   5      -3.599   8.227  16.7860  0.00  0.00     0.000 N
ATOM     78  HD  NAG B   5      -3.451   9.004  17.1380  0.00  0.00     0.000 HD
ATOM     78   C  NAG B   5      -2.289   8.266  16.4940  0.00  0.00     0.000 C
ATOM     79   C  NAG B   5      -1.832   7.125  15.6280  0.00  0.00     0.000 C
ATOM     80   O  NAG B   5      -1.504   9.193  16.9080  0.00  0.00     0.000 OA
ENDBRANCH 66 78
BRANCH 65 81
ATOM     81  O4  BDP B   6      -4.999  10.376  15.6210  0.00  0.00     0.000 O
BRANCH 81 85
ATOM     82  C1  BDP B   6      -6.208  10.772  11.5280  0.00  0.00     0.000 C
ATOM     83  C2  BDP B   6      -6.422  11.972  12.4460  0.00  0.00     0.000 C
ATOM     84  C3  BDP B   6      -5.606  11.886  13.7390  0.00  0.00     0.000 C
ATOM     85  C4  BDP B   6      -5.809  10.549  14.4550  0.00  0.00     0.000 C
ATOM     86  C5  BDP B   6      -5.601   9.418  13.4190  0.00  0.00     0.000 C
ATOM     87  O5  BDP B   6      -6.471   9.579  12.2530  0.00  0.00     0.000 O
ATOM     88   O  BDP B   6      -6.002  13.107  11.6930  0.00  0.00     0.000 O
ATOM     90  HD  BDP B   6      -5.557  13.844  11.7880  0.00  0.00     0.000 HD
ATOM     90   O  BDP B   6      -5.943  12.981  14.5940  0.00  0.00     0.000 O
ATOM     92  HD  BDP B   6      -5.499  13.718  14.6890  0.00  0.00     0.000 HD
BRANCH 86 92
ATOM     92   C  BDP B   6      -6.017   8.087  13.9970  0.00  0.00     0.000 C
ATOM     93   O  BDP B   6      -5.130   7.228  14.2860  0.00  0.00     0.000 OA
ATOM     94   O  BDP B   6      -7.257   7.895  14.1920  0.00  0.00     0.000 OA
ENDBRANCH 86 92
BRANCH 82 95
ATOM     95  O3  NAG B   7      -7.158  10.852  10.4480  0.00  0.00     0.000 O
BRANCH 95 98
ATOM     96  C1  NAG B   7      -6.844  10.119   6.8840  0.00  0.00     0.000 C
ATOM     97  C2  NAG B   7      -7.108  10.982   8.1100  0.00  0.00     0.000 C
ATOM     98  C3  NAG B   7      -6.973  10.030   9.2970  0.00  0.00     0.000 C
ATOM     99  C4  NAG B   7      -7.994   8.902   9.1760  0.00  0.00     0.000 C
ATOM    100  C5  NAG B   7      -7.875   8.200   7.8220  0.00  0.00     0.000 C
ATOM    101  O5  NAG B   7      -7.917   9.176   6.7930  0.00  0.00     0.000 O
BRANCH 97 104
ATOM    102   N  NAG B   7      -6.187  12.050   8.5240  0.00  0.00     0.000 N
ATOM    104  HD  NAG B   7      -5.709  12.587   9.0060  0.00  0.00     0.000 HD
ATOM    104   O  NAG B   7      -5.436  14.173   8.7610  0.00  0.00     0.000 OA
ATOM    105   C  NAG B   7      -6.270  13.374   8.2920  0.00  0.00     0.000 C
ATOM    106   C  NAG B   7      -7.395  13.896   7.4660  0.00  0.00     0.000 C
ENDBRANCH 97 104
ATOM    107   O  NAG B   7      -8.643   6.374   6.5650  0.00  0.00     0.000 O
ATOM    109  HD  NAG B   7      -7.952   6.859   6.7610  0.00  0.00     0.000 HD
ATOM    109   O  NAG B   7      -8.643   6.374   6.5650  0.00  0.00     0.000 O
ATOM    111  HD  NAG B   7      -7.952   6.859   6.7610  0.00  0.00     0.000 HD
ENDBRANCH 95 98
ENDBRANCH 82 95
ENDBRANCH 81 85
ENDBRANCH 65 81
ENDBRANCH 64 67
ENDBRANCH 51 64
ENDBRANCH 50 54
ENDBRANCH 34 50
ENDBRANCH 33 36
ENDBRANCH 20 33
ENDBRANCH 19 23
ENDBRANCH 1 19
TORSDOF 19
ENDMDL
MODEL 31
REMARK VINA RESULT:      -7.1     16.108     19.824
ROOT
ATOM      1  C1  NAG B   1      -7.223  -3.675  17.7270  0.00  0.00     0.000 C
ATOM      2  C2  NAG B   1      -7.200  -2.159  17.5580  0.00  0.00     0.000 C
ATOM      3  C3  NAG B   1      -6.235  -1.726  16.4730  0.00  0.00     0.000 C
ATOM      4  C4  NAG B   1      -4.878  -2.287  16.8870  0.00  0.00     0.000 C
ATOM      5  C5  NAG B   1      -4.950  -3.819  16.9040  0.00  0.00     0.000 C
ATOM      6  O5  NAG B   1      -5.929  -4.283  17.8580  0.00  0.00     0.000 O
ATOM      7   O  NAG B   1      -6.178  -0.288  16.3340  0.00  0.00     0.000 O
ATOM      9  HD  NAG B   1      -7.009  -0.424  16.5390  0.00  0.00     0.000 HD
ATOM      9   O  NAG B   1      -3.877  -1.863  15.9760  0.00  0.00     0.000 O
ATOM     11  HD  NAG B   1      -4.707  -1.999  16.1810  0.00  0.00     0.000 HD
ATOM     11   C  NAG B   1      -3.561  -4.405  17.1830  0.00  0.00     0.000 C
ATOM     12   O  NAG B   1      -3.655  -5.668  17.8400  0.00  0.00     0.000 O
ATOM     14  HD  NAG B   1      -4.485  -5.804  18.0450  0.00  0.00     0.000 HD
ENDROOT
BRANCH 2 16
ATOM     14   N  NAG B   1      -8.037  -1.405  18.5090  0.00  0.00     0.000 N
ATOM     16  HD  NAG B   1      -8.253  -0.602  18.7510  0.00  0.00     0.000 HD
ATOM     16   C  NAG B   1      -9.220  -0.861  18.1760  0.00  0.00     0.000 C
ATOM     17   C  NAG B   1      -9.733  -0.985  16.7660  0.00  0.00     0.000 C
ATOM     18   O  NAG B   1      -9.914  -0.282  19.0100  0.00  0.00     0.000 OA
ENDBRANCH 2 16
BRANCH 1 19
ATOM     19  O4  BDP B   2      -7.868  -3.852  18.9810  0.00  0.00     0.000 O
BRANCH 19 23
ATOM     20  C1  BDP B   2      -9.070  -7.712  18.2110  0.00  0.00     0.000 C
ATOM     21  C2  BDP B   2     -10.061  -6.619  17.8720  0.00  0.00     0.000 C
ATOM     22  C3  BDP B   2      -9.383  -5.269  17.7940  0.00  0.00     0.000 C
ATOM     23  C4  BDP B   2      -8.616  -5.039  19.0930  0.00  0.00     0.000 C
ATOM     24  C5  BDP B   2      -7.651  -6.186  19.3190  0.00  0.00     0.000 C
ATOM     25  O5  BDP B   2      -8.371  -7.401  19.4080  0.00  0.00     0.000 O
ATOM     26   O  BDP B   2     -10.701  -6.901  16.6470  0.00  0.00     0.000 O
ATOM     28  HD  BDP B   2     -10.310  -7.658  16.7980  0.00  0.00     0.000 HD
ATOM     28   O  BDP B   2     -10.373  -4.255  17.5650  0.00  0.00     0.000 O
ATOM     30  HD  BDP B   2      -9.982  -5.012  17.7160  0.00  0.00     0.000 HD
BRANCH 24 30
ATOM     30   C  BDP B   2      -6.876  -6.029  20.5780  0.00  0.00     0.000 C
ATOM     31   O  BDP B   2      -5.683  -5.663  20.4760  0.00  0.00     0.000 OA
ATOM     32   O  BDP B   2      -7.454  -6.278  21.6750  0.00  0.00     0.000 OA
ENDBRANCH 24 30
BRANCH 20 33
ATOM     33  O3  NAG B   3      -9.874  -8.846  18.4270  0.00  0.00     0.000 O
BRANCH 33 36
ATOM     34  C1  NAG B   3      -9.061 -12.289  17.1490  0.00  0.00     0.000 C
ATOM     35  C2  NAG B   3      -9.684 -10.906  17.1700  0.00  0.00     0.000 C
ATOM     36  C3  NAG B   3      -9.122 -10.057  18.3200  0.00  0.00     0.000 C
ATOM     37  C4  NAG B   3      -9.246 -10.833  19.6290  0.00  0.00     0.000 C
ATOM     38  C5  NAG B   3      -8.665 -12.236  19.4690  0.00  0.00     0.000 C
ATOM     39  O5  NAG B   3      -9.313 -12.908  18.4020  0.00  0.00     0.000 O
ATOM     40   O  NAG B   3      -8.547 -10.144  20.6770  0.00  0.00     0.000 O
ATOM     42  HD  NAG B   3      -8.160 -10.914  20.7580  0.00  0.00     0.000 HD
ATOM     42   C  NAG B   3      -8.863 -13.129  20.6910  0.00  0.00     0.000 C
ATOM     43   O  NAG B   3     -10.261 -13.383  20.8770  0.00  0.00     0.000 O
ATOM     45  HD  NAG B   3      -9.875 -14.154  20.9580  0.00  0.00     0.000 HD
BRANCH 35 47
ATOM     45   N  NAG B   3     -10.689 -10.527  16.1850  0.00  0.00     0.000 N
ATOM     47  HD  NAG B   3     -11.024 -10.645  16.9750  0.00  0.00     0.000 HD
ATOM     47   C  NAG B   3     -10.459  -9.652  15.2260  0.00  0.00     0.000 C
ATOM     48   C  NAG B   3     -11.609  -9.360  14.3090  0.00  0.00     0.000 C
ATOM     49   O  NAG B   3      -9.374  -9.087  15.1070  0.00  0.00     0.000 OA
ENDBRANCH 35 47
BRANCH 34 50
ATOM     50  O4  BDP B   4      -9.763 -12.956  16.1210  0.00  0.00     0.000 O
BRANCH 50 54
ATOM     51  C1  BDP B   4      -9.770 -16.337  13.8580  0.00  0.00     0.000 C
ATOM     52  C2  BDP B   4     -10.613 -16.424  15.1250  0.00  0.00     0.000 C
ATOM     53  C3  BDP B   4     -10.828 -15.039  15.6530  0.00  0.00     0.000 C
ATOM     54  C4  BDP B   4      -9.455 -14.336  15.8590  0.00  0.00     0.000 C
ATOM     55  C5  BDP B   4      -8.559 -14.444  14.6330  0.00  0.00     0.000 C
ATOM     56  O5  BDP B   4      -8.502 -15.792  14.1750  0.00  0.00     0.000 O
ATOM     57   O  BDP B   4     -11.863 -17.016  14.8430  0.00  0.00     0.000 O
ATOM     59  HD  BDP B   4     -11.792 -17.826  15.1410  0.00  0.00     0.000 HD
ATOM     59   O  BDP B   4     -11.456 -15.175  16.9440  0.00  0.00     0.000 O
ATOM     61  HD  BDP B   4     -11.386 -15.985  17.2430  0.00  0.00     0.000 HD
BRANCH 55 61
ATOM     61   C  BDP B   4      -7.159 -13.980  14.9930  0.00  0.00     0.000 C
ATOM     62   O  BDP B   4      -6.480 -14.700  15.7710  0.00  0.00     0.000 OA
ATOM     63   O  BDP B   4      -6.740 -12.891  14.4940  0.00  0.00     0.000 OA
ENDBRANCH 55 61
BRANCH 51 64
ATOM     64  O3  NAG B   5      -9.636 -17.675  13.3410  0.00  0.00     0.000 O
BRANCH 64 67
ATOM     65  C1  NAG B   5      -8.468 -18.234   9.8890  0.00  0.00     0.000 C
ATOM     66  C2  NAG B   5      -9.423 -17.895  11.0210  0.00  0.00     0.000 C
ATOM     67  C3  NAG B   5      -8.653 -17.772  12.3290  0.00  0.00     0.000 C
ATOM     68  C4  NAG B   5      -7.786 -19.014  12.5770  0.00  0.00     0.000 C
ATOM     69  C5  NAG B   5      -6.935 -19.328  11.3570  0.00  0.00     0.000 C
ATOM     70  O5  NAG B   5      -7.767 -19.419  10.1910  0.00  0.00     0.000 O
ATOM     71   O  NAG B   5      -6.983 -18.785  13.7150  0.00  0.00     0.000 O
ATOM     73  HD  NAG B   5      -7.206 -19.604  13.8880  0.00  0.00     0.000 HD
ATOM     73   C  NAG B   5      -6.128 -20.629  11.4660  0.00  0.00     0.000 C
ATOM     74   O  NAG B   5      -7.030 -21.752  11.5540  0.00  0.00     0.000 O
ATOM     76  HD  NAG B   5      -7.253 -22.571  11.7270  0.00  0.00     0.000 HD
BRANCH 66 78
ATOM     76   N  NAG B   5     -10.102 -16.659  10.5870  0.00  0.00     0.000 N
ATOM     78  HD  NAG B   5     -10.326 -17.468  10.7970  0.00  0.00     0.000 HD
ATOM     78   C  NAG B   5     -11.426 -16.439  10.6000  0.00  0.00     0.000 C
ATOM     79   C  NAG B   5     -11.812 -15.069  10.1130  0.00  0.00     0.000 C
ATOM     80   O  NAG B   5     -12.281 -17.317  10.9810  0.00  0.00     0.000 OA
ENDBRANCH 66 78
BRANCH 65 81
ATOM     81  O4  BDP B   6      -9.194 -18.397   8.6640  0.00  0.00     0.000 O
BRANCH 81 85
ATOM     82  C1  BDP B   6      -8.623 -18.042   4.4320  0.00  0.00     0.000 C
ATOM     83  C2  BDP B   6      -7.616 -18.884   5.2110  0.00  0.00     0.000 C
ATOM     84  C3  BDP B   6      -8.122 -19.281   6.6010  0.00  0.00     0.000 C
ATOM     85  C4  BDP B   6      -8.624 -18.072   7.3940  0.00  0.00     0.000 C
ATOM     86  C5  BDP B   6      -9.604 -17.285   6.4910  0.00  0.00     0.000 C
ATOM     87  O5  BDP B   6      -8.992 -16.916   5.2140  0.00  0.00     0.000 O
ATOM     88   O  BDP B   6      -7.411 -20.055   4.4260  0.00  0.00     0.000 O
ATOM     90  HD  BDP B   6      -7.326 -20.912   4.5160  0.00  0.00     0.000 HD
ATOM     90   O  BDP B   6      -7.087 -19.965   7.3110  0.00  0.00     0.000 O
ATOM     92  HD  BDP B   6      -7.002 -20.822   7.4010  0.00  0.00     0.000 HD
BRANCH 86 92
ATOM     92   C  BDP B   6      -9.953 -15.957   7.1200  0.00  0.00     0.000 C
ATOM     93   O  BDP B   6      -9.078 -15.338   7.7960  0.00  0.00     0.000 OA
ATOM     94   O  BDP B   6     -11.122 -15.503   6.9190  0.00  0.00     0.000 OA
ENDBRANCH 86 92
BRANCH 82 95
ATOM     95  O3  NAG B   7      -7.981 -17.560   3.2350  0.00  0.00     0.000 O
BRANCH 95 98
ATOM     96  C1  NAG B   7      -8.762 -17.255  -0.3200  0.00  0.00     0.000 C
ATOM     97  C2  NAG B   7      -7.887 -17.534   0.8960  0.00  0.00     0.000 C
ATOM     98  C3  NAG B   7      -8.780 -17.238   2.0980  0.00  0.00     0.000 C
ATOM     99  C4  NAG B   7      -9.236 -15.781   2.0600  0.00  0.00     0.000 C
ATOM    100  C5  NAG B   7      -9.898 -15.451   0.7220  0.00  0.00     0.000 C
ATOM    101  O5  NAG B   7      -9.032 -15.849  -0.3300  0.00  0.00     0.000 O
BRANCH 97 104
ATOM    102   N  NAG B   7      -7.452 -18.925   1.0820  0.00  0.00     0.000 N
ATOM    104  HD  NAG B   7      -7.334 -19.716   1.4140  0.00  0.00     0.000 HD
ATOM    104   O  NAG B   7      -5.982 -20.623   1.3750  0.00  0.00     0.000 OA
ATOM    105   C  NAG B   7      -6.200 -19.416   1.1520  0.00  0.00     0.000 C
ATOM    106   C  NAG B   7      -5.047 -18.488   0.9750  0.00  0.00     0.000 C
ENDBRANCH 97 104
ATOM    107   O  NAG B   7     -11.081 -13.795  -0.4460  0.00  0.00     0.000 O
ATOM    109  HD  NAG B   7     -11.013 -14.646  -0.2980  0.00  0.00     0.000 HD
ATOM    109   O  NAG B   7     -11.081 -13.795  -0.4460  0.00  0.00     0.000 O
ATOM    111  HD  NAG B   7     -11.013 -14.646  -0.2980  0.00  0.00     0.000 HD
ENDBRANCH 95 98
ENDBRANCH 82 95
ENDBRANCH 81 85
ENDBRANCH 65 81
ENDBRANCH 64 67
ENDBRANCH 51 64
ENDBRANCH 50 54
ENDBRANCH 34 50
ENDBRANCH 33 36
ENDBRANCH 20 33
ENDBRANCH 19 23
ENDBRANCH 1 19
TORSDOF 19
ENDMDL
MODEL 32
REMARK VINA RESULT:      -7.1      5.306     17.111
ROOT
ATOM      1  C1  NAG B   1      10.436 -17.431  -3.4050  0.00  0.00     0.000 C
ATOM      2  C2  NAG B   1      10.058 -18.412  -4.5110  0.00  0.00     0.000 C
ATOM      3  C3  NAG B   1      10.222 -19.851  -4.0690  0.00  0.00     0.000 C
ATOM      4  C4  NAG B   1      11.682 -19.985  -3.6480  0.00  0.00     0.000 C
ATOM      5  C5  NAG B   1      11.946 -19.065  -2.4490  0.00  0.00     0.000 C
ATOM      6  O5  NAG B   1      11.710 -17.682  -2.7910  0.00  0.00     0.000 O
ATOM      7   O  NAG B   1       9.903 -20.786  -5.1250  0.00  0.00     0.000 O
ATOM      9  HD  NAG B   1       9.341 -20.143  -5.2690  0.00  0.00     0.000 HD
ATOM      9   O  NAG B   1      11.968 -21.328  -3.2950  0.00  0.00     0.000 O
ATOM     11  HD  NAG B   1      11.406 -20.685  -3.4390  0.00  0.00     0.000 HD
ATOM     11   C  NAG B   1      13.370 -19.285  -1.9240  0.00  0.00     0.000 C
ATOM     12   O  NAG B   1      13.886 -18.102  -1.3160  0.00  0.00     0.000 O
ATOM     14  HD  NAG B   1      13.324 -17.459  -1.4600  0.00  0.00     0.000 HD
ENDROOT
BRANCH 2 16
ATOM     14   N  NAG B   1       9.679 -17.736  -5.7650  0.00  0.00     0.000 N
ATOM     16  HD  NAG B   1       9.493 -17.883  -6.5980  0.00  0.00     0.000 HD
ATOM     16   C  NAG B   1       8.417 -17.696  -6.2260  0.00  0.00     0.000 C
ATOM     17   C  NAG B   1       7.316 -18.386  -5.4640  0.00  0.00     0.000 C
ATOM     18   O  NAG B   1       8.131 -17.080  -7.2520  0.00  0.00     0.000 OA
ENDBRANCH 2 16
BRANCH 1 19
ATOM     19  O4  BDP B   2      10.573 -16.198  -4.0980  0.00  0.00     0.000 O
BRANCH 19 23
ATOM     20  C1  BDP B   2       9.849 -13.802  -0.8310  0.00  0.00     0.000 C
ATOM     21  C2  BDP B   2       8.634 -14.261  -1.6100  0.00  0.00     0.000 C
ATOM     22  C3  BDP B   2       8.967 -15.439  -2.4980  0.00  0.00     0.000 C
ATOM     23  C4  BDP B   2      10.165 -15.066  -3.3670  0.00  0.00     0.000 C
ATOM     24  C5  BDP B   2      11.316 -14.636  -2.4800  0.00  0.00     0.000 C
ATOM     25  O5  BDP B   2      10.928 -13.515  -1.7090  0.00  0.00     0.000 O
ATOM     26   O  BDP B   2       7.590 -14.610  -0.7280  0.00  0.00     0.000 O
ATOM     28  HD  BDP B   2       8.133 -14.217  -0.1800  0.00  0.00     0.000 HD
ATOM     28   O  BDP B   2       7.814 -15.779  -3.2850  0.00  0.00     0.000 O
ATOM     30  HD  BDP B   2       8.358 -15.386  -2.7370  0.00  0.00     0.000 HD
BRANCH 24 30
ATOM     30   C  BDP B   2      12.516 -14.247  -3.2670  0.00  0.00     0.000 C
ATOM     31   O  BDP B   2      13.585 -14.852  -3.0200  0.00  0.00     0.000 OA
ATOM     32   O  BDP B   2      12.399 -13.330  -4.1280  0.00  0.00     0.000 OA
ENDBRANCH 24 30
BRANCH 20 33
ATOM     33  O3  NAG B   3       9.426 -12.610  -0.2130  0.00  0.00     0.000 O
BRANCH 33 36
ATOM     34  C1  NAG B   3      10.771 -11.652   3.1670  0.00  0.00     0.000 C
ATOM     35  C2  NAG B   3       9.879 -12.339   2.1500  0.00  0.00     0.000 C
ATOM     36  C3  NAG B   3      10.396 -12.124   0.7180  0.00  0.00     0.000 C
ATOM     37  C4  NAG B   3      10.609 -10.632   0.4770  0.00  0.00     0.000 C
ATOM     38  C5  NAG B   3      11.446 -10.028   1.6020  0.00  0.00     0.000 C
ATOM     39  O5  NAG B   3      10.820 -10.268   2.8510  0.00  0.00     0.000 O
ATOM     40   O  NAG B   3      11.278 -10.429  -0.7780  0.00  0.00     0.000 O
ATOM     42  HD  NAG B   3      11.825  -9.986  -0.2730  0.00  0.00     0.000 HD
ATOM     42   C  NAG B   3      11.600  -8.512   1.5100  0.00  0.00     0.000 C
ATOM     43   O  NAG B   3      10.323  -7.888   1.6940  0.00  0.00     0.000 O
ATOM     45  HD  NAG B   3      10.870  -7.445   2.1980  0.00  0.00     0.000 HD
BRANCH 35 47
ATOM     45   N  NAG B   3       8.652 -13.078   2.4160  0.00  0.00     0.000 N
ATOM     47  HD  NAG B   3       8.525 -12.396   1.8970  0.00  0.00     0.000 HD
ATOM     47   C  NAG B   3       8.612 -14.392   2.5070  0.00  0.00     0.000 C
ATOM     48   C  NAG B   3       7.263 -14.996   2.7650  0.00  0.00     0.000 C
ATOM     49   O  NAG B   3       9.615 -15.086   2.3600  0.00  0.00     0.000 OA
ENDBRANCH 35 47
BRANCH 34 50
ATOM     50  O4  BDP B   4      10.097 -11.853   4.3910  0.00  0.00     0.000 O
BRANCH 50 54
ATOM     51  C1  BDP B   4      10.459 -11.723   8.4410  0.00  0.00     0.000 C
ATOM     52  C2  BDP B   4      10.546 -10.364   7.7550  0.00  0.00     0.000 C
ATOM     53  C3  BDP B   4      10.033 -10.501   6.3550  0.00  0.00     0.000 C
ATOM     54  C4  BDP B   4      10.813 -11.627   5.6170  0.00  0.00     0.000 C
ATOM     55  C5  BDP B   4      10.875 -12.915   6.4270  0.00  0.00     0.000 C
ATOM     56  O5  BDP B   4      11.293 -12.644   7.7620  0.00  0.00     0.000 O
ATOM     57   O  BDP B   4       9.765  -9.414   8.4490  0.00  0.00     0.000 O
ATOM     59  HD  BDP B   4      10.340  -8.941   8.8920  0.00  0.00     0.000 HD
ATOM     59   O  BDP B   4      10.310  -9.255   5.6830  0.00  0.00     0.000 O
ATOM     61  HD  BDP B   4      10.884  -8.782   6.1250  0.00  0.00     0.000 HD
BRANCH 55 61
ATOM     61   C  BDP B   4      11.862 -13.868   5.7780  0.00  0.00     0.000 C
ATOM     62   O  BDP B   4      11.403 -14.831   5.1100  0.00  0.00     0.000 OA
ATOM     63   O  BDP B   4      13.102 -13.648   5.9380  0.00  0.00     0.000 OA
ENDBRANCH 55 61
BRANCH 51 64
ATOM     64  O3  NAG B   5      10.898 -11.543   9.8020  0.00  0.00     0.000 O
BRANCH 64 67
ATOM     65  C1  NAG B   5       9.158 -13.068  12.6730  0.00  0.00     0.000 C
ATOM     66  C2  NAG B   5       9.465 -12.059  11.5790  0.00  0.00     0.000 C
ATOM     67  C3  NAG B   5      10.526 -12.619  10.6400  0.00  0.00     0.000 C
ATOM     68  C4  NAG B   5      11.754 -13.105  11.4230  0.00  0.00     0.000 C
ATOM     69  C5  NAG B   5      11.338 -14.035  12.5520  0.00  0.00     0.000 C
ATOM     70  O5  NAG B   5      10.340 -13.401  13.3650  0.00  0.00     0.000 O
ATOM     71   O  NAG B   5      12.634 -13.750  10.5280  0.00  0.00     0.000 O
ATOM     73  HD  NAG B   5      13.226 -13.308  10.9820  0.00  0.00     0.000 HD
ATOM     73   C  NAG B   5      12.489 -14.471  13.4690  0.00  0.00     0.000 C
ATOM     74   O  NAG B   5      13.026 -13.319  14.1520  0.00  0.00     0.000 O
ATOM     76  HD  NAG B   5      13.617 -12.877  14.6060  0.00  0.00     0.000 HD
BRANCH 66 78
ATOM     76   N  NAG B   5       8.128 -11.776  11.0230  0.00  0.00     0.000 N
ATOM     78  HD  NAG B   5       8.793 -11.324  11.3460  0.00  0.00     0.000 HD
ATOM     78   C  NAG B   5       7.655 -10.566  10.6820  0.00  0.00     0.000 C
ATOM     79   C  NAG B   5       6.259 -10.604  10.1240  0.00  0.00     0.000 C
ATOM     80   O  NAG B   5       8.326  -9.483  10.8270  0.00  0.00     0.000 OA
ENDBRANCH 66 78
BRANCH 65 81
ATOM     81  O4  BDP B   6       8.194 -12.527  13.5850  0.00  0.00     0.000 O
BRANCH 81 85
ATOM     82  C1  BDP B   6       5.485 -13.790  16.6560  0.00  0.00     0.000 C
ATOM     83  C2  BDP B   6       6.979 -13.877  16.9540  0.00  0.00     0.000 C
ATOM     84  C3  BDP B   6       7.828 -13.042  15.9910  0.00  0.00     0.000 C
ATOM     85  C4  BDP B   6       7.497 -13.345  14.5280  0.00  0.00     0.000 C
ATOM     86  C5  BDP B   6       5.961 -13.260  14.3600  0.00  0.00     0.000 C
ATOM     87  O5  BDP B   6       5.261 -14.140  15.2970  0.00  0.00     0.000 O
ATOM     88   O  BDP B   6       7.132 -13.377  18.2800  0.00  0.00     0.000 O
ATOM     90  HD  BDP B   6       7.656 -12.868  18.7450  0.00  0.00     0.000 HD
ATOM     90   O  BDP B   6       9.215 -13.263  16.2590  0.00  0.00     0.000 O
ATOM     92  HD  BDP B   6       9.738 -12.753  16.7240  0.00  0.00     0.000 HD
BRANCH 86 92
ATOM     92   C  BDP B   6       5.548 -13.778  13.0040  0.00  0.00     0.000 C
ATOM     93   O  BDP B   6       5.489 -15.029  12.8040  0.00  0.00     0.000 OA
ATOM     94   O  BDP B   6       5.250 -12.921  12.1150  0.00  0.00     0.000 OA
ENDBRANCH 86 92
BRANCH 82 95
ATOM     95  O3  NAG B   7       4.801 -14.755  17.4800  0.00  0.00     0.000 O
BRANCH 95 98
ATOM     96  C1  NAG B   7       1.663 -14.642  19.3450  0.00  0.00     0.000 C
ATOM     97  C2  NAG B   7       3.162 -14.825  19.1510  0.00  0.00     0.000 C
ATOM     98  C3  NAG B   7       3.389 -14.645  17.6510  0.00  0.00     0.000 C
ATOM     99  C4  NAG B   7       2.593 -15.693  16.8770  0.00  0.00     0.000 C
ATOM    100  C5  NAG B   7       1.116 -15.658  17.2720  0.00  0.00     0.000 C
ATOM    101  O5  NAG B   7       1.016 -15.736  18.6860  0.00  0.00     0.000 O
BRANCH 97 104
ATOM    102   N  NAG B   7       4.065 -13.832  19.7490  0.00  0.00     0.000 N
ATOM    104  HD  NAG B   7       4.683 -13.234  19.8520  0.00  0.00     0.000 HD
ATOM    104   O  NAG B   7       5.706 -13.063  21.1080  0.00  0.00     0.000 OA
ATOM    105   C  NAG B   7       4.960 -13.993  20.7420  0.00  0.00     0.000 C
ATOM    106   C  NAG B   7       5.070 -15.321  21.4100  0.00  0.00     0.000 C
ENDBRANCH 97 104
ATOM    107   O  NAG B   7      -1.002 -16.524  16.7530  0.00  0.00     0.000 O
ATOM    109  HD  NAG B   7      -0.566 -15.816  16.9940  0.00  0.00     0.000 HD
ATOM    109   O  NAG B   7      -1.002 -16.524  16.7530  0.00  0.00     0.000 O
ATOM    111  HD  NAG B   7      -0.566 -15.816  16.9940  0.00  0.00     0.000 HD
ENDBRANCH 95 98
ENDBRANCH 82 95
ENDBRANCH 81 85
ENDBRANCH 65 81
ENDBRANCH 64 67
ENDBRANCH 51 64
ENDBRANCH 50 54
ENDBRANCH 34 50
ENDBRANCH 33 36
ENDBRANCH 20 33
ENDBRANCH 19 23
ENDBRANCH 1 19
TORSDOF 19
ENDMDL
MODEL 33
REMARK VINA RESULT:      -7.1     25.498     34.813
ROOT
ATOM      1  C1  NAG B   1      -2.415  21.757  -0.9860  0.00  0.00     0.000 C
ATOM      2  C2  NAG B   1      -1.406  22.886  -0.7890  0.00  0.00     0.000 C
ATOM      3  C3  NAG B   1      -1.172  23.184   0.6780  0.00  0.00     0.000 C
ATOM      4  C4  NAG B   1      -2.545  23.525   1.2490  0.00  0.00     0.000 C
ATOM      5  C5  NAG B   1      -3.457  22.297   1.1320  0.00  0.00     0.000 C
ATOM      6  O5  NAG B   1      -3.637  21.911  -0.2470  0.00  0.00     0.000 O
ATOM      7   O  NAG B   1      -0.247  24.278   0.8710  0.00  0.00     0.000 O
ATOM      9  HD  NAG B   1       0.066  23.892   0.1620  0.00  0.00     0.000 HD
ATOM      9   O  NAG B   1      -2.426  23.907   2.6090  0.00  0.00     0.000 O
ATOM     11  HD  NAG B   1      -2.113  23.521   1.9000  0.00  0.00     0.000 HD
ATOM     11   C  NAG B   1      -4.798  22.573   1.8240  0.00  0.00     0.000 C
ATOM     12   O  NAG B   1      -5.854  21.824   1.2240  0.00  0.00     0.000 O
ATOM     14  HD  NAG B   1      -5.540  21.438   0.5150  0.00  0.00     0.000 HD
ENDROOT
BRANCH 2 16
ATOM     14   N  NAG B   1      -0.942  23.458  -2.0650  0.00  0.00     0.000 N
ATOM     16  HD  NAG B   1      -0.482  24.111  -2.4010  0.00  0.00     0.000 HD
ATOM     16   C  NAG B   1       0.301  23.275  -2.5440  0.00  0.00     0.000 C
ATOM     17   C  NAG B   1       1.301  22.475  -1.7520  0.00  0.00     0.000 C
ATOM     18   O  NAG B   1       0.637  23.728  -3.6380  0.00  0.00     0.000 OA
ENDBRANCH 2 16
BRANCH 1 19
ATOM     19  O4  BDP B   2      -2.769  21.875  -2.3570  0.00  0.00     0.000 O
BRANCH 19 23
ATOM     20  C1  BDP B   2      -3.917  17.952  -2.8410  0.00  0.00     0.000 C
ATOM     21  C2  BDP B   2      -2.444  18.250  -3.0300  0.00  0.00     0.000 C
ATOM     22  C3  BDP B   2      -2.075  19.588  -2.4310  0.00  0.00     0.000 C
ATOM     23  C4  BDP B   2      -3.008  20.650  -3.0080  0.00  0.00     0.000 C
ATOM     24  C5  BDP B   2      -4.447  20.250  -2.7490  0.00  0.00     0.000 C
ATOM     25  O5  BDP B   2      -4.712  19.005  -3.3670  0.00  0.00     0.000 O
ATOM     26   O  BDP B   2      -1.660  17.234  -2.4440  0.00  0.00     0.000 O
ATOM     28  HD  BDP B   2      -2.442  16.864  -2.4180  0.00  0.00     0.000 HD
ATOM     28   O  BDP B   2      -0.696  19.870  -2.7160  0.00  0.00     0.000 O
ATOM     30  HD  BDP B   2      -1.478  19.500  -2.6900  0.00  0.00     0.000 HD
BRANCH 24 30
ATOM     30   C  BDP B   2      -5.412  21.239  -3.2970  0.00  0.00     0.000 C
ATOM     31   O  BDP B   2      -5.301  21.540  -4.5080  0.00  0.00     0.000 OA
ATOM     32   O  BDP B   2      -6.281  21.726  -2.5180  0.00  0.00     0.000 OA
ENDBRANCH 24 30
BRANCH 20 33
ATOM     33  O3  NAG B   3      -4.129  16.788  -3.6030  0.00  0.00     0.000 O
BRANCH 33 36
ATOM     34  C1  NAG B   3      -6.909  14.591  -2.3380  0.00  0.00     0.000 C
ATOM     35  C2  NAG B   3      -5.554  15.274  -2.3620  0.00  0.00     0.000 C
ATOM     36  C3  NAG B   3      -5.474  16.318  -3.4870  0.00  0.00     0.000 C
ATOM     37  C4  NAG B   3      -5.888  15.672  -4.8070  0.00  0.00     0.000 C
ATOM     38  C5  NAG B   3      -7.219  14.943  -4.6450  0.00  0.00     0.000 C
ATOM     39  O5  NAG B   3      -7.123  13.985  -3.6050  0.00  0.00     0.000 O
ATOM     40   O  NAG B   3      -6.013  16.675  -5.8260  0.00  0.00     0.000 O
ATOM     42  HD  NAG B   3      -6.799  16.322  -5.9040  0.00  0.00     0.000 HD
ATOM     42   C  NAG B   3      -7.646  14.157  -5.8820  0.00  0.00     0.000 C
ATOM     43   O  NAG B   3      -6.724  13.085  -6.1110  0.00  0.00     0.000 O
ATOM     45  HD  NAG B   3      -7.510  12.732  -6.1890  0.00  0.00     0.000 HD
BRANCH 35 47
ATOM     45   N  NAG B   3      -4.369  15.050  -1.5450  0.00  0.00     0.000 N
ATOM     47  HD  NAG B   3      -4.202  15.005  -2.3940  0.00  0.00     0.000 HD
ATOM     47   C  NAG B   3      -4.132  15.709  -0.4290  0.00  0.00     0.000 C
ATOM     48   C  NAG B   3      -2.854  15.370   0.2810  0.00  0.00     0.000 C
ATOM     49   O  NAG B   3      -4.899  16.571  -0.0060  0.00  0.00     0.000 OA
ENDBRANCH 35 47
BRANCH 34 50
ATOM     50  O4  BDP B   4      -6.767  13.604  -1.3380  0.00  0.00     0.000 O
BRANCH 50 54
ATOM     51  C1  BDP B   4      -8.765  10.707   0.7040  0.00  0.00     0.000 C
ATOM     52  C2  BDP B   4      -8.128  10.237  -0.5990  0.00  0.00     0.000 C
ATOM     53  C3  BDP B   4      -7.135  11.266  -1.0460  0.00  0.00     0.000 C
ATOM     54  C4  BDP B   4      -7.830  12.654  -1.1530  0.00  0.00     0.000 C
ATOM     55  C5  BDP B   4      -8.625  13.002   0.0980  0.00  0.00     0.000 C
ATOM     56  O5  BDP B   4      -9.467  11.915   0.4710  0.00  0.00     0.000 O
ATOM     57   O  BDP B   4      -7.468   9.004  -0.4040  0.00  0.00     0.000 O
ATOM     59  HD  BDP B   4      -8.000   8.415  -0.7500  0.00  0.00     0.000 HD
ATOM     59   O  BDP B   4      -6.700  10.883  -2.3670  0.00  0.00     0.000 O
ATOM     61  HD  BDP B   4      -7.232  10.294  -2.7130  0.00  0.00     0.000 HD
BRANCH 55 61
ATOM     61   C  BDP B   4      -9.481  14.225  -0.1770  0.00  0.00     0.000 C
ATOM     62   O  BDP B   4     -10.270  14.186  -1.1570  0.00  0.00     0.000 OA
ATOM     63   O  BDP B   4      -9.364  15.226   0.5940  0.00  0.00     0.000 OA
ENDBRANCH 55 61
BRANCH 51 64
ATOM     64  O3  NAG B   5      -9.664   9.669   1.1390  0.00  0.00     0.000 O
BRANCH 64 67
ATOM     65  C1  NAG B   5     -10.275   9.115   4.7320  0.00  0.00     0.000 C
ATOM     66  C2  NAG B   5      -9.557   9.056   3.3950  0.00  0.00     0.000 C
ATOM     67  C3  NAG B   5     -10.262   9.955   2.3880  0.00  0.00     0.000 C
ATOM     68  C4  NAG B   5     -11.762   9.637   2.3210  0.00  0.00     0.000 C
ATOM     69  C5  NAG B   5     -12.372   9.628   3.7140  0.00  0.00     0.000 C
ATOM     70  O5  NAG B   5     -11.626   8.750   4.5690  0.00  0.00     0.000 O
ATOM     71   O  NAG B   5     -12.390  10.593   1.4940  0.00  0.00     0.000 O
ATOM     73  HD  NAG B   5     -12.806   9.891   1.2040  0.00  0.00     0.000 HD
ATOM     73   C  NAG B   5     -13.844   9.194   3.7560  0.00  0.00     0.000 C
ATOM     74   O  NAG B   5     -13.957   7.823   3.3230  0.00  0.00     0.000 O
ATOM     76  HD  NAG B   5     -14.373   7.121   3.0330  0.00  0.00     0.000 HD
BRANCH 66 78
ATOM     76   N  NAG B   5      -8.305   8.276   3.3310  0.00  0.00     0.000 N
ATOM     78  HD  NAG B   5      -8.545   9.104   3.2470  0.00  0.00     0.000 HD
ATOM     78   C  NAG B   5      -7.062   8.781   3.3030  0.00  0.00     0.000 C
ATOM     79   C  NAG B   5      -5.988   7.728   3.2570  0.00  0.00     0.000 C
ATOM     80   O  NAG B   5      -6.813  10.039   3.3060  0.00  0.00     0.000 OA
ENDBRANCH 66 78
BRANCH 65 81
ATOM     81  O4  BDP B   6      -9.642   8.234   5.6700  0.00  0.00     0.000 O
BRANCH 81 85
ATOM     82  C1  BDP B   6      -8.690   8.091   9.8460  0.00  0.00     0.000 C
ATOM     83  C2  BDP B   6     -10.050   7.551   9.4140  0.00  0.00     0.000 C
ATOM     84  C3  BDP B   6     -10.129   7.270   7.9110  0.00  0.00     0.000 C
ATOM     85  C4  BDP B   6      -9.678   8.472   7.0790  0.00  0.00     0.000 C
ATOM     86  C5  BDP B   6      -8.312   8.947   7.6320  0.00  0.00     0.000 C
ATOM     87  O5  BDP B   6      -8.374   9.235   9.0660  0.00  0.00     0.000 O
ATOM     88   O  BDP B   6     -10.223   6.335  10.1370  0.00  0.00     0.000 O
ATOM     90  HD  BDP B   6     -10.511   5.526  10.0220  0.00  0.00     0.000 HD
ATOM     90   O  BDP B   6     -11.460   6.878   7.5650  0.00  0.00     0.000 O
ATOM     92  HD  BDP B   6     -11.747   6.069   7.4510  0.00  0.00     0.000 HD
BRANCH 86 92
ATOM     92   C  BDP B   6      -7.923  10.269   7.0160  0.00  0.00     0.000 C
ATOM     93   O  BDP B   6      -6.788  10.390   6.4630  0.00  0.00     0.000 OA
ATOM     94   O  BDP B   6      -8.775  11.211   7.0610  0.00  0.00     0.000 OA
ENDBRANCH 86 92
BRANCH 82 95
ATOM     95  O3  NAG B   7      -8.783   8.507  11.2230  0.00  0.00     0.000 O
BRANCH 95 98
ATOM     96  C1  NAG B   7      -6.422   8.352  14.0050  0.00  0.00     0.000 C
ATOM     97  C2  NAG B   7      -7.726   8.078  13.2680  0.00  0.00     0.000 C
ATOM     98  C3  NAG B   7      -7.587   8.816  11.9380  0.00  0.00     0.000 C
ATOM     99  C4  NAG B   7      -7.391  10.309  12.1900  0.00  0.00     0.000 C
ATOM    100  C5  NAG B   7      -6.217  10.552  13.1400  0.00  0.00     0.000 C
ATOM    101  O5  NAG B   7      -6.390   9.753  14.3000  0.00  0.00     0.000 O
BRANCH 97 104
ATOM    102   N  NAG B   7      -7.989   6.681  12.8960  0.00  0.00     0.000 N
ATOM    104  HD  NAG B   7      -8.140   5.964  12.4350  0.00  0.00     0.000 HD
ATOM    104   O  NAG B   7      -9.144   4.736  12.8010  0.00  0.00     0.000 OA
ATOM    105   C  NAG B   7      -9.023   5.894  13.2460  0.00  0.00     0.000 C
ATOM    106   C  NAG B   7     -10.056   6.427  14.1800  0.00  0.00     0.000 C
ENDBRANCH 97 104
ATOM    107   O  NAG B   7      -4.873  12.220  14.0980  0.00  0.00     0.000 O
ATOM    109  HD  NAG B   7      -4.879  11.424  13.7570  0.00  0.00     0.000 HD
ATOM    109   O  NAG B   7      -4.873  12.220  14.0980  0.00  0.00     0.000 O
ATOM    111  HD  NAG B   7      -4.879  11.424  13.7570  0.00  0.00     0.000 HD
ENDBRANCH 95 98
ENDBRANCH 82 95
ENDBRANCH 81 85
ENDBRANCH 65 81
ENDBRANCH 64 67
ENDBRANCH 51 64
ENDBRANCH 50 54
ENDBRANCH 34 50
ENDBRANCH 33 36
ENDBRANCH 20 33
ENDBRANCH 19 23
ENDBRANCH 1 19
TORSDOF 19
ENDMDL
MODEL 34
REMARK VINA RESULT:      -7.1     16.102     22.122
ROOT
ATOM      1  C1  NAG B   1      -0.748   3.963  19.5080  0.00  0.00     0.000 C
ATOM      2  C2  NAG B   1       0.351   4.111  20.5570  0.00  0.00     0.000 C
ATOM      3  C3  NAG B   1       0.766   5.556  20.7400  0.00  0.00     0.000 C
ATOM      4  C4  NAG B   1       1.212   6.030  19.3600  0.00  0.00     0.000 C
ATOM      5  C5  NAG B   1       0.017   5.975  18.3990  0.00  0.00     0.000 C
ATOM      6  O5  NAG B   1      -0.480   4.626  18.2630  0.00  0.00     0.000 O
ATOM      7   O  NAG B   1       1.834   5.700  21.7040  0.00  0.00     0.000 O
ATOM      9  HD  NAG B   1       1.375   5.042  22.0300  0.00  0.00     0.000 HD
ATOM      9   O  NAG B   1       1.706   7.356  19.4360  0.00  0.00     0.000 O
ATOM     11  HD  NAG B   1       1.247   6.698  19.7620  0.00  0.00     0.000 HD
ATOM     11   C  NAG B   1       0.408   6.575  17.0430  0.00  0.00     0.000 C
ATOM     12   O  NAG B   1      -0.347   5.992  15.9820  0.00  0.00     0.000 O
ATOM     14  HD  NAG B   1      -0.806   5.335  16.3080  0.00  0.00     0.000 HD
ENDROOT
BRANCH 2 16
ATOM     14   N  NAG B   1      -0.207   3.309  21.6610  0.00  0.00     0.000 N
ATOM     16  HD  NAG B   1      -0.519   2.524  21.8540  0.00  0.00     0.000 HD
ATOM     16   C  NAG B   1       0.515   2.413  22.3560  0.00  0.00     0.000 C
ATOM     17   C  NAG B   1       1.958   2.172  22.0010  0.00  0.00     0.000 C
ATOM     18   O  NAG B   1       0.027   1.798  23.3040  0.00  0.00     0.000 OA
ENDBRANCH 2 16
BRANCH 1 19
ATOM     19  O4  BDP B   2      -0.736   2.571  19.2210  0.00  0.00     0.000 O
BRANCH 19 23
ATOM     20  C1  BDP B   2      -3.426  -0.033  17.5090  0.00  0.00     0.000 C
ATOM     21  C2  BDP B   2      -2.432   0.621  16.5720  0.00  0.00     0.000 C
ATOM     22  C3  BDP B   2      -1.262   1.203  17.3320  0.00  0.00     0.000 C
ATOM     23  C4  BDP B   2      -1.804   2.130  18.4160  0.00  0.00     0.000 C
ATOM     24  C5  BDP B   2      -2.774   1.366  19.2950  0.00  0.00     0.000 C
ATOM     25  O5  BDP B   2      -3.847   0.884  18.5090  0.00  0.00     0.000 O
ATOM     26   O  BDP B   2      -1.965  -0.314  15.6230  0.00  0.00     0.000 O
ATOM     28  HD  BDP B   2      -2.626  -0.755  15.9670  0.00  0.00     0.000 HD
ATOM     28   O  BDP B   2      -0.397   1.892  16.4150  0.00  0.00     0.000 O
ATOM     30  HD  BDP B   2      -1.058   1.451  16.7590  0.00  0.00     0.000 HD
BRANCH 24 30
ATOM     30   C  BDP B   2      -3.349   2.217  20.3700  0.00  0.00     0.000 C
ATOM     31   O  BDP B   2      -4.158   3.109  20.0240  0.00  0.00     0.000 OA
ATOM     32   O  BDP B   2      -2.991   2.003  21.5630  0.00  0.00     0.000 OA
ENDBRANCH 24 30
BRANCH 20 33
ATOM     33  O3  NAG B   3      -4.518  -0.348  16.6810  0.00  0.00     0.000 O
BRANCH 33 36
ATOM     34  C1  NAG B   3      -7.155  -2.761  17.8560  0.00  0.00     0.000 C
ATOM     35  C2  NAG B   3      -5.848  -2.291  17.2440  0.00  0.00     0.000 C
ATOM     36  C3  NAG B   3      -5.650  -0.780  17.4400  0.00  0.00     0.000 C
ATOM     37  C4  NAG B   3      -6.890  -0.040  16.9450  0.00  0.00     0.000 C
ATOM     38  C5  NAG B   3      -8.149  -0.648  17.5570  0.00  0.00     0.000 C
ATOM     39  O5  NAG B   3      -8.214  -2.031  17.2540  0.00  0.00     0.000 O
ATOM     40   O  NAG B   3      -6.808   1.349  17.3030  0.00  0.00     0.000 O
ATOM     42  HD  NAG B   3      -7.580   1.176  17.6540  0.00  0.00     0.000 HD
ATOM     42   C  NAG B   3      -9.447  -0.053  17.0160  0.00  0.00     0.000 C
ATOM     43   O  NAG B   3      -9.580  -0.377  15.6270  0.00  0.00     0.000 O
ATOM     45  HD  NAG B   3     -10.353  -0.549  15.9780  0.00  0.00     0.000 HD
BRANCH 35 47
ATOM     45   N  NAG B   3      -4.935  -3.185  16.5430  0.00  0.00     0.000 N
ATOM     47  HD  NAG B   3      -5.308  -2.608  16.0160  0.00  0.00     0.000 HD
ATOM     47   C  NAG B   3      -3.797  -3.600  17.0620  0.00  0.00     0.000 C
ATOM     48   C  NAG B   3      -2.966  -4.501  16.1980  0.00  0.00     0.000 C
ATOM     49   O  NAG B   3      -3.424  -3.247  18.1790  0.00  0.00     0.000 OA
ENDBRANCH 35 47
BRANCH 34 50
ATOM     50  O4  BDP B   4      -7.224  -4.123  17.4890  0.00  0.00     0.000 O
BRANCH 50 54
ATOM     51  C1  BDP B   4      -8.756  -7.753  18.5030  0.00  0.00     0.000 C
ATOM     52  C2  BDP B   4      -9.770  -6.784  17.9060  0.00  0.00     0.000 C
ATOM     53  C3  BDP B   4      -9.030  -5.662  17.2450  0.00  0.00     0.000 C
ATOM     54  C4  BDP B   4      -8.056  -5.003  18.2640  0.00  0.00     0.000 C
ATOM     55  C5  BDP B   4      -7.194  -6.028  18.9880  0.00  0.00     0.000 C
ATOM     56  O5  BDP B   4      -8.001  -7.086  19.4980  0.00  0.00     0.000 O
ATOM     57   O  BDP B   4     -10.573  -7.442  16.9500  0.00  0.00     0.000 O
ATOM     59  HD  BDP B   4     -11.326  -7.580  17.3550  0.00  0.00     0.000 HD
ATOM     59   O  BDP B   4     -10.012  -4.676  16.8670  0.00  0.00     0.000 O
ATOM     61  HD  BDP B   4     -10.765  -4.814  17.2720  0.00  0.00     0.000 HD
BRANCH 55 61
ATOM     61   C  BDP B   4      -6.472  -5.351  20.1400  0.00  0.00     0.000 C
ATOM     62   O  BDP B   4      -5.272  -5.013  19.9680  0.00  0.00     0.000 OA
ATOM     63   O  BDP B   4      -7.112  -5.157  21.2190  0.00  0.00     0.000 OA
ENDBRANCH 55 61
BRANCH 51 64
ATOM     64  O3  NAG B   5      -9.497  -8.850  19.0730  0.00  0.00     0.000 O
BRANCH 64 67
ATOM     65  C1  NAG B   5      -8.625 -12.383  18.4830  0.00  0.00     0.000 C
ATOM     66  C2  NAG B   5      -9.250 -11.021  18.2350  0.00  0.00     0.000 C
ATOM     67  C3  NAG B   5      -8.708 -10.011  19.2390  0.00  0.00     0.000 C
ATOM     68  C4  NAG B   5      -8.857 -10.529  20.6760  0.00  0.00     0.000 C
ATOM     69  C5  NAG B   5      -8.286 -11.933  20.8030  0.00  0.00     0.000 C
ATOM     70  O5  NAG B   5      -8.869 -12.789  19.8100  0.00  0.00     0.000 O
ATOM     71   O  NAG B   5      -8.206  -9.632  21.5490  0.00  0.00     0.000 O
ATOM     73  HD  NAG B   5      -8.913  -9.773  22.0280  0.00  0.00     0.000 HD
ATOM     73   C  NAG B   5      -8.506 -12.582  22.1770  0.00  0.00     0.000 C
ATOM     74   O  NAG B   5      -9.919 -12.763  22.4070  0.00  0.00     0.000 O
ATOM     76  HD  NAG B   5     -10.626 -12.904  22.8850  0.00  0.00     0.000 HD
BRANCH 66 78
ATOM     76   N  NAG B   5     -10.126 -10.904  17.0530  0.00  0.00     0.000 N
ATOM     78  HD  NAG B   5      -9.379 -10.564  17.3280  0.00  0.00     0.000 HD
ATOM     78   C  NAG B   5      -9.819 -10.290  15.9000  0.00  0.00     0.000 C
ATOM     79   C  NAG B   5     -10.917 -10.356  14.8740  0.00  0.00     0.000 C
ATOM     80   O  NAG B   5      -8.700  -9.696  15.6960  0.00  0.00     0.000 OA
ENDBRANCH 66 78
BRANCH 65 81
ATOM     81  O4  BDP B   6      -9.166 -13.347  17.5700  0.00  0.00     0.000 O
BRANCH 81 85
ATOM     82  C1  BDP B   6      -7.993 -16.847  15.3940  0.00  0.00     0.000 C
ATOM     83  C2  BDP B   6      -7.783 -16.853  16.9050  0.00  0.00     0.000 C
ATOM     84  C3  BDP B   6      -8.588 -15.766  17.6220  0.00  0.00     0.000 C
ATOM     85  C4  BDP B   6      -8.367 -14.386  16.9990  0.00  0.00     0.000 C
ATOM     86  C5  BDP B   6      -8.573 -14.516  15.4710  0.00  0.00     0.000 C
ATOM     87  O5  BDP B   6      -7.714 -15.548  14.8910  0.00  0.00     0.000 O
ATOM     88   O  BDP B   6      -8.218 -18.137  17.3450  0.00  0.00     0.000 O
ATOM     90  HD  BDP B   6      -8.668 -18.505  17.9860  0.00  0.00     0.000 HD
ATOM     90   O  BDP B   6      -8.253 -15.759  19.0130  0.00  0.00     0.000 O
ATOM     92  HD  BDP B   6      -8.704 -16.128  19.6540  0.00  0.00     0.000 HD
BRANCH 86 92
ATOM     92   C  BDP B   6      -8.141 -13.251  14.7690  0.00  0.00     0.000 C
ATOM     93   O  BDP B   6      -8.792 -12.843  13.7600  0.00  0.00     0.000 OA
ATOM     94   O  BDP B   6      -7.139 -12.631  15.2430  0.00  0.00     0.000 OA
ENDBRANCH 86 92
BRANCH 82 95
ATOM     95  O3  NAG B   7      -7.051 -17.763  14.8010  0.00  0.00     0.000 O
BRANCH 95 98
ATOM     96  C1  NAG B   7      -7.189 -20.612  12.5200  0.00  0.00     0.000 C
ATOM     97  C2  NAG B   7      -6.742 -19.832  13.7490  0.00  0.00     0.000 C
ATOM     98  C3  NAG B   7      -7.420 -18.470  13.6180  0.00  0.00     0.000 C
ATOM     99  C4  NAG B   7      -6.968 -17.788  12.3290  0.00  0.00     0.000 C
ATOM    100  C5  NAG B   7      -7.200 -18.696  11.1200  0.00  0.00     0.000 C
ATOM    101  O5  NAG B   7      -6.617 -19.963  11.3790  0.00  0.00     0.000 O
BRANCH 97 104
ATOM    102   N  NAG B   7      -7.188 -20.302  15.0680  0.00  0.00     0.000 N
ATOM    104  HD  NAG B   7      -7.534 -20.329  15.8620  0.00  0.00     0.000 HD
ATOM    104   O  NAG B   7      -6.967 -21.112  17.1720  0.00  0.00     0.000 OA
ATOM    105   C  NAG B   7      -6.454 -20.808  16.0770  0.00  0.00     0.000 C
ATOM    106   C  NAG B   7      -4.988 -20.996  15.8830  0.00  0.00     0.000 C
ENDBRANCH 97 104
ATOM    107   O  NAG B   7      -7.127 -18.781   8.7770  0.00  0.00     0.000 O
ATOM    109  HD  NAG B   7      -7.565 -19.030   9.4810  0.00  0.00     0.000 HD
ATOM    109   O  NAG B   7      -7.127 -18.781   8.7770  0.00  0.00     0.000 O
ATOM    111  HD  NAG B   7      -7.565 -19.030   9.4810  0.00  0.00     0.000 HD
ENDBRANCH 95 98
ENDBRANCH 82 95
ENDBRANCH 81 85
ENDBRANCH 65 81
ENDBRANCH 64 67
ENDBRANCH 51 64
ENDBRANCH 50 54
ENDBRANCH 34 50
ENDBRANCH 33 36
ENDBRANCH 20 33
ENDBRANCH 19 23
ENDBRANCH 1 19
TORSDOF 19
ENDMDL
MODEL 35
REMARK VINA RESULT:      -7.0     18.126     24.141
ROOT
ATOM      1  C1  NAG B   1      20.259  -3.611  -3.4530  0.00  0.00     0.000 C
ATOM      2  C2  NAG B   1      19.878  -5.032  -3.0450  0.00  0.00     0.000 C
ATOM      3  C3  NAG B   1      19.257  -5.801  -4.1940  0.00  0.00     0.000 C
ATOM      4  C4  NAG B   1      18.050  -4.977  -4.6310  0.00  0.00     0.000 C
ATOM      5  C5  NAG B   1      18.531  -3.616  -5.1490  0.00  0.00     0.000 C
ATOM      6  O5  NAG B   1      19.217  -2.878  -4.1150  0.00  0.00     0.000 O
ATOM      7   O  NAG B   1      18.858  -7.135  -3.8040  0.00  0.00     0.000 O
ATOM      9  HD  NAG B   1      19.573  -7.009  -3.3330  0.00  0.00     0.000 HD
ATOM      9   O  NAG B   1      17.341  -5.657  -5.6530  0.00  0.00     0.000 O
ATOM     11  HD  NAG B   1      18.056  -5.531  -5.1820  0.00  0.00     0.000 HD
ATOM     11   C  NAG B   1      17.348  -2.825  -5.7210  0.00  0.00     0.000 C
ATOM     12   O  NAG B   1      17.557  -1.420  -5.6010  0.00  0.00     0.000 O
ATOM     14  HD  NAG B   1      18.273  -1.294  -5.1300  0.00  0.00     0.000 HD
ENDROOT
BRANCH 2 16
ATOM     14   N  NAG B   1      19.997  -5.576  -1.6810  0.00  0.00     0.000 N
ATOM     16  HD  NAG B   1      19.994  -6.316  -1.2310  0.00  0.00     0.000 HD
ATOM     16   C  NAG B   1      21.131  -6.118  -1.2030  0.00  0.00     0.000 C
ATOM     17   C  NAG B   1      22.348  -6.215  -2.0840  0.00  0.00     0.000 C
ATOM     18   O  NAG B   1      21.207  -6.517  -0.0410  0.00  0.00     0.000 OA
ENDBRANCH 2 16
BRANCH 1 19
ATOM     19  O4  BDP B   2      20.464  -2.961  -2.2060  0.00  0.00     0.000 O
BRANCH 19 23
ATOM     20  C1  BDP B   2      19.137   0.510  -0.4360  0.00  0.00     0.000 C
ATOM     21  C2  BDP B   2      18.128  -0.613  -0.5550  0.00  0.00     0.000 C
ATOM     22  C3  BDP B   2      18.809  -1.936  -0.8180  0.00  0.00     0.000 C
ATOM     23  C4  BDP B   2      19.719  -1.779  -2.0330  0.00  0.00     0.000 C
ATOM     24  C5  BDP B   2      20.689  -0.639  -1.7930  0.00  0.00     0.000 C
ATOM     25  O5  BDP B   2      19.968   0.561  -1.5870  0.00  0.00     0.000 O
ATOM     26   O  BDP B   2      17.353  -0.701   0.6200  0.00  0.00     0.000 O
ATOM     28  HD  BDP B   2      17.749   0.058   0.7500  0.00  0.00     0.000 HD
ATOM     28   O  BDP B   2      17.812  -2.951  -1.0170  0.00  0.00     0.000 O
ATOM     30  HD  BDP B   2      18.209  -2.192  -0.8870  0.00  0.00     0.000 HD
BRANCH 24 30
ATOM     30   C  BDP B   2      21.600  -0.424  -2.9480  0.00  0.00     0.000 C
ATOM     31   O  BDP B   2      21.123   0.143  -3.9580  0.00  0.00     0.000 OA
ATOM     32   O  BDP B   2      22.794  -0.827  -2.8550  0.00  0.00     0.000 OA
ENDBRANCH 24 30
BRANCH 20 33
ATOM     33  O3  NAG B   3      18.348   1.673  -0.3840  0.00  0.00     0.000 O
BRANCH 33 36
ATOM     34  C1  NAG B   3      19.056   4.519   1.9730  0.00  0.00     0.000 C
ATOM     35  C2  NAG B   3      18.455   3.217   1.4790  0.00  0.00     0.000 C
ATOM     36  C3  NAG B   3      19.078   2.785   0.1430  0.00  0.00     0.000 C
ATOM     37  C4  NAG B   3      18.998   3.943  -0.8490  0.00  0.00     0.000 C
ATOM     38  C5  NAG B   3      19.551   5.218  -0.2190  0.00  0.00     0.000 C
ATOM     39  O5  NAG B   3      18.849   5.510   0.9770  0.00  0.00     0.000 O
ATOM     40   O  NAG B   3      19.750   3.629  -2.0320  0.00  0.00     0.000 O
ATOM     42  HD  NAG B   3      20.129   4.384  -1.8420  0.00  0.00     0.000 HD
ATOM     42   C  NAG B   3      19.391   6.458  -1.0950  0.00  0.00     0.000 C
ATOM     43   O  NAG B   3      17.999   6.759  -1.2510  0.00  0.00     0.000 O
ATOM     45  HD  NAG B   3      18.377   7.515  -1.0610  0.00  0.00     0.000 HD
BRANCH 35 47
ATOM     45   N  NAG B   3      17.407   2.522   2.2160  0.00  0.00     0.000 N
ATOM     47  HD  NAG B   3      17.121   2.869   1.4760  0.00  0.00     0.000 HD
ATOM     47   C  NAG B   3      17.617   1.401   2.8770  0.00  0.00     0.000 C
ATOM     48   C  NAG B   3      16.424   0.806   3.5650  0.00  0.00     0.000 C
ATOM     49   O  NAG B   3      18.719   0.859   2.9060  0.00  0.00     0.000 OA
ENDBRANCH 35 47
BRANCH 34 50
ATOM     50  O4  BDP B   4      18.302   4.817   3.1290  0.00  0.00     0.000 O
BRANCH 50 54
ATOM     51  C1  BDP B   4      18.442   6.495   6.8330  0.00  0.00     0.000 C
ATOM     52  C2  BDP B   4      18.837   7.434   5.6990  0.00  0.00     0.000 C
ATOM     53  C3  BDP B   4      18.391   6.833   4.4010  0.00  0.00     0.000 C
ATOM     54  C4  BDP B   4      18.974   5.398   4.2600  0.00  0.00     0.000 C
ATOM     55  C5  BDP B   4      18.732   4.549   5.5000  0.00  0.00     0.000 C
ATOM     56  O5  BDP B   4      19.115   5.260   6.6740  0.00  0.00     0.000 O
ATOM     57   O  BDP B   4      18.220   8.693   5.8670  0.00  0.00     0.000 O
ATOM     59  HD  BDP B   4      18.849   9.206   6.1680  0.00  0.00     0.000 HD
ATOM     59   O  BDP B   4      18.948   7.646   3.3480  0.00  0.00     0.000 O
ATOM     61  HD  BDP B   4      19.578   8.159   3.6490  0.00  0.00     0.000 HD
BRANCH 55 61
ATOM     61   C  BDP B   4      19.548   3.273   5.4010  0.00  0.00     0.000 C
ATOM     62   O  BDP B   4      20.640   3.316   4.7760  0.00  0.00     0.000 OA
ATOM     63   O  BDP B   4      19.094   2.224   5.9540  0.00  0.00     0.000 OA
ENDBRANCH 55 61
BRANCH 51 64
ATOM     64  O3  NAG B   5      18.826   7.132   8.0670  0.00  0.00     0.000 O
BRANCH 64 67
ATOM     65  C1  NAG B   5      16.655   7.191  11.0470  0.00  0.00     0.000 C
ATOM     66  C2  NAG B   5      17.223   7.614   9.7030  0.00  0.00     0.000 C
ATOM     67  C3  NAG B   5      18.194   6.557   9.1950  0.00  0.00     0.000 C
ATOM     68  C4  NAG B   5      19.251   6.223  10.2570  0.00  0.00     0.000 C
ATOM     69  C5  NAG B   5      18.592   5.904  11.5890  0.00  0.00     0.000 C
ATOM     70  O5  NAG B   5      17.703   6.967  11.9620  0.00  0.00     0.000 O
ATOM     71   O  NAG B   5      20.027   5.138   9.7970  0.00  0.00     0.000 O
ATOM     73  HD  NAG B   5      20.671   5.617  10.1230  0.00  0.00     0.000 HD
ATOM     73   C  NAG B   5      19.577   5.682  12.7450  0.00  0.00     0.000 C
ATOM     74   O  NAG B   5      20.302   6.902  13.0040  0.00  0.00     0.000 O
ATOM     76  HD  NAG B   5      20.946   7.381  13.3300  0.00  0.00     0.000 HD
BRANCH 66 78
ATOM     76   N  NAG B   5      16.636   8.843   9.1350  0.00  0.00     0.000 N
ATOM     78  HD  NAG B   5      16.709   8.010   8.9110  0.00  0.00     0.000 HD
ATOM     78   C  NAG B   5      15.811   8.909   8.0780  0.00  0.00     0.000 C
ATOM     79   C  NAG B   5      15.366  10.308   7.7510  0.00  0.00     0.000 C
ATOM     80   O  NAG B   5      15.445   7.879   7.4070  0.00  0.00     0.000 OA
ENDBRANCH 66 78
BRANCH 65 81
ATOM     81  O4  BDP B   6      15.775   8.204  11.5520  0.00  0.00     0.000 O
BRANCH 81 85
ATOM     82  C1  BDP B   6      12.141   8.609  13.7850  0.00  0.00     0.000 C
ATOM     83  C2  BDP B   6      13.351   8.024  14.5080  0.00  0.00     0.000 C
ATOM     84  C3  BDP B   6      14.669   8.297  13.7770  0.00  0.00     0.000 C
ATOM     85  C4  BDP B   6      14.603   7.887  12.3050  0.00  0.00     0.000 C
ATOM     86  C5  BDP B   6      13.324   8.508  11.6950  0.00  0.00     0.000 C
ATOM     87  O5  BDP B   6      12.124   8.135  12.4470  0.00  0.00     0.000 O
ATOM     88   O  BDP B   6      13.374   8.656  15.7850  0.00  0.00     0.000 O
ATOM     90  HD  BDP B   6      13.933   9.006  16.3460  0.00  0.00     0.000 HD
ATOM     90   O  BDP B   6      15.737   7.625  14.4490  0.00  0.00     0.000 O
ATOM     92  HD  BDP B   6      16.296   7.975  15.0100  0.00  0.00     0.000 HD
BRANCH 86 92
ATOM     92   C  BDP B   6      13.071   7.952  10.3150  0.00  0.00     0.000 C
ATOM     93   O  BDP B   6      13.300   6.727  10.0840  0.00  0.00     0.000 OA
ATOM     94   O  BDP B   6      12.610   8.748   9.4380  0.00  0.00     0.000 OA
ENDBRANCH 86 92
BRANCH 82 95
ATOM     95  O3  NAG B   7      10.948   8.133  14.4390  0.00  0.00     0.000 O
BRANCH 95 98
ATOM     96  C1  NAG B   7       7.745   9.805  14.9730  0.00  0.00     0.000 C
ATOM     97  C2  NAG B   7       9.064   9.159  15.3770  0.00  0.00     0.000 C
ATOM     98  C3  NAG B   7       9.685   8.681  14.0660  0.00  0.00     0.000 C
ATOM     99  C4  NAG B   7       8.756   7.677  13.3870  0.00  0.00     0.000 C
ATOM    100  C5  NAG B   7       7.354   8.263  13.2120  0.00  0.00     0.000 C
ATOM    101  O5  NAG B   7       6.905   8.764  14.4620  0.00  0.00     0.000 O
BRANCH 97 104
ATOM    102   N  NAG B   7      10.124  10.004  15.9430  0.00  0.00     0.000 N
ATOM    104  HD  NAG B   7      10.890  10.381  16.0890  0.00  0.00     0.000 HD
ATOM    104   O  NAG B   7      11.553  10.769  17.5250  0.00  0.00     0.000 OA
ATOM    105   C  NAG B   7      10.600  10.033  17.2020  0.00  0.00     0.000 C
ATOM    106   C  NAG B   7       9.980   9.151  18.2310  0.00  0.00     0.000 C
ENDBRANCH 97 104
ATOM    107   O  NAG B   7       5.250   7.878  12.2480  0.00  0.00     0.000 O
ATOM    109  HD  NAG B   7       5.853   8.476  12.4170  0.00  0.00     0.000 HD
ATOM    109   O  NAG B   7       5.250   7.878  12.2480  0.00  0.00     0.000 O
ATOM    111  HD  NAG B   7       5.853   8.476  12.4170  0.00  0.00     0.000 HD
ENDBRANCH 95 98
ENDBRANCH 82 95
ENDBRANCH 81 85
ENDBRANCH 65 81
ENDBRANCH 64 67
ENDBRANCH 51 64
ENDBRANCH 50 54
ENDBRANCH 34 50
ENDBRANCH 33 36
ENDBRANCH 20 33
ENDBRANCH 19 23
ENDBRANCH 1 19
TORSDOF 19
ENDMDL
MODEL 36
REMARK VINA RESULT:      -7.0     10.497     17.289
ROOT
ATOM      1  C1  NAG B   1      -1.924 -17.152  -7.7430  0.00  0.00     0.000 C
ATOM      2  C2  NAG B   1      -3.322 -17.469  -7.2200  0.00  0.00     0.000 C
ATOM      3  C3  NAG B   1      -4.257 -17.898  -8.3320  0.00  0.00     0.000 C
ATOM      4  C4  NAG B   1      -4.258 -16.745  -9.3310  0.00  0.00     0.000 C
ATOM      5  C5  NAG B   1      -2.847 -16.577  -9.9070  0.00  0.00     0.000 C
ATOM      6  O5  NAG B   1      -1.895 -16.261  -8.8690  0.00  0.00     0.000 O
ATOM      7   O  NAG B   1      -5.594 -18.163  -7.8490  0.00  0.00     0.000 O
ATOM      9  HD  NAG B   1      -5.101 -18.429  -7.1890  0.00  0.00     0.000 HD
ATOM      9   O  NAG B   1      -5.177 -17.008 -10.3790  0.00  0.00     0.000 O
ATOM     11  HD  NAG B   1      -4.684 -17.273  -9.7180  0.00  0.00     0.000 HD
ATOM     11   C  NAG B   1      -2.855 -15.515 -11.0130  0.00  0.00     0.000 C
ATOM     12   O  NAG B   1      -1.591 -14.862 -11.1140  0.00  0.00     0.000 O
ATOM     14  HD  NAG B   1      -1.098 -15.128 -10.4540  0.00  0.00     0.000 HD
ENDROOT
BRANCH 2 16
ATOM     14   N  NAG B   1      -3.194 -18.463  -6.1390  0.00  0.00     0.000 N
ATOM     16  HD  NAG B   1      -2.699 -18.689  -5.4650  0.00  0.00     0.000 HD
ATOM     16   C  NAG B   1      -3.571 -18.222  -4.8710  0.00  0.00     0.000 C
ATOM     17   C  NAG B   1      -4.130 -16.875  -4.4960  0.00  0.00     0.000 C
ATOM     18   O  NAG B   1      -3.495 -19.094  -4.0060  0.00  0.00     0.000 OA
ENDBRANCH 2 16
BRANCH 1 19
ATOM     19  O4  BDP B   2      -1.329 -16.441  -6.6660  0.00  0.00     0.000 O
BRANCH 19 23
ATOM     20  C1  BDP B   2       2.520 -15.482  -5.5670  0.00  0.00     0.000 C
ATOM     21  C2  BDP B   2       1.875 -14.589  -6.6070  0.00  0.00     0.000 C
ATOM     22  C3  BDP B   2       0.373 -14.763  -6.6220  0.00  0.00     0.000 C
ATOM     23  C4  BDP B   2       0.060 -16.247  -6.7890  0.00  0.00     0.000 C
ATOM     24  C5  BDP B   2       0.746 -17.034  -5.6900  0.00  0.00     0.000 C
ATOM     25  O5  BDP B   2       2.145 -16.837  -5.7690  0.00  0.00     0.000 O
ATOM     26   O  BDP B   2       2.195 -13.237  -6.3580  0.00  0.00     0.000 O
ATOM     28  HD  BDP B   2       2.747 -13.631  -5.8200  0.00  0.00     0.000 HD
ATOM     28   O  BDP B   2      -0.184 -13.971  -7.6830  0.00  0.00     0.000 O
ATOM     30  HD  BDP B   2       0.367 -14.365  -7.1440  0.00  0.00     0.000 HD
BRANCH 24 30
ATOM     30   C  BDP B   2       0.490 -18.494  -5.8010  0.00  0.00     0.000 C
ATOM     31   O  BDP B   2       1.110 -19.119  -6.6920  0.00  0.00     0.000 OA
ATOM     32   O  BDP B   2      -0.336 -19.022  -5.0030  0.00  0.00     0.000 OA
ENDBRANCH 24 30
BRANCH 20 33
ATOM     33  O3  NAG B   3       3.899 -15.342  -5.8070  0.00  0.00     0.000 O
BRANCH 33 36
ATOM     34  C1  NAG B   3       6.549 -15.396  -3.1380  0.00  0.00     0.000 C
ATOM     35  C2  NAG B   3       5.550 -14.811  -4.1180  0.00  0.00     0.000 C
ATOM     36  C3  NAG B   3       4.680 -15.907  -4.7510  0.00  0.00     0.000 C
ATOM     37  C4  NAG B   3       5.580 -16.996  -5.3300  0.00  0.00     0.000 C
ATOM     38  C5  NAG B   3       6.598 -17.450  -4.2870  0.00  0.00     0.000 C
ATOM     39  O5  NAG B   3       7.352 -16.339  -3.8320  0.00  0.00     0.000 O
ATOM     40   O  NAG B   3       4.787 -18.120  -5.7440  0.00  0.00     0.000 O
ATOM     42  HD  NAG B   3       5.339 -18.542  -5.2270  0.00  0.00     0.000 HD
ATOM     42   C  NAG B   3       7.625 -18.446  -4.8210  0.00  0.00     0.000 C
ATOM     43   O  NAG B   3       8.444 -17.807  -5.8080  0.00  0.00     0.000 O
ATOM     45  HD  NAG B   3       8.995 -18.229  -5.2900  0.00  0.00     0.000 HD
BRANCH 35 47
ATOM     45   N  NAG B   3       5.420 -13.407  -4.4870  0.00  0.00     0.000 N
ATOM     47  HD  NAG B   3       5.620 -13.912  -5.1610  0.00  0.00     0.000 HD
ATOM     47   C  NAG B   3       4.510 -12.609  -3.9640  0.00  0.00     0.000 C
ATOM     48   C  NAG B   3       4.500 -11.197  -4.4700  0.00  0.00     0.000 C
ATOM     49   O  NAG B   3       3.699 -13.005  -3.1300  0.00  0.00     0.000 OA
ENDBRANCH 35 47
BRANCH 34 50
ATOM     50  O4  BDP B   4       7.324 -14.283  -2.7460  0.00  0.00     0.000 O
BRANCH 50 54
ATOM     51  C1  BDP B   4       9.943 -12.873   0.0300  0.00  0.00     0.000 C
ATOM     52  C2  BDP B   4      10.461 -14.052  -0.7860  0.00  0.00     0.000 C
ATOM     53  C3  BDP B   4       9.585 -14.225  -1.9890  0.00  0.00     0.000 C
ATOM     54  C4  BDP B   4       8.103 -14.375  -1.5410  0.00  0.00     0.000 C
ATOM     55  C5  BDP B   4       7.679 -13.286  -0.5650  0.00  0.00     0.000 C
ATOM     56  O5  BDP B   4       8.633 -13.160   0.4860  0.00  0.00     0.000 O
ATOM     57   O  BDP B   4      11.788 -13.812  -1.2050  0.00  0.00     0.000 O
ATOM     59  HD  BDP B   4      12.275 -14.295  -0.6760  0.00  0.00     0.000 HD
ATOM     59   O  BDP B   4       9.984 -15.455  -2.6260  0.00  0.00     0.000 O
ATOM     61  HD  BDP B   4      10.471 -15.938  -2.0960  0.00  0.00     0.000 HD
BRANCH 55 61
ATOM     61   C  BDP B   4       6.328 -13.643   0.0290  0.00  0.00     0.000 C
ATOM     62   O  BDP B   4       6.172 -14.807   0.4840  0.00  0.00     0.000 OA
ATOM     63   O  BDP B   4       5.423 -12.754   0.0400  0.00  0.00     0.000 OA
ENDBRANCH 55 61
BRANCH 51 64
ATOM     64  O3  NAG B   5      10.843 -12.695   1.1410  0.00  0.00     0.000 O
BRANCH 64 67
ATOM     65  C1  NAG B   5      12.039  -9.375   2.2120  0.00  0.00     0.000 C
ATOM     66  C2  NAG B   5      11.979 -10.666   1.4140  0.00  0.00     0.000 C
ATOM     67  C3  NAG B   5      10.705 -11.428   1.7550  0.00  0.00     0.000 C
ATOM     68  C4  NAG B   5      10.561 -11.609   3.2720  0.00  0.00     0.000 C
ATOM     69  C5  NAG B   5      10.727 -10.279   3.9900  0.00  0.00     0.000 C
ATOM     70  O5  NAG B   5      11.957  -9.658   3.5900  0.00  0.00     0.000 O
ATOM     71   O  NAG B   5       9.299 -12.181   3.5410  0.00  0.00     0.000 O
ATOM     73  HD  NAG B   5       9.765 -12.650   4.1010  0.00  0.00     0.000 HD
ATOM     73   C  NAG B   5      10.725 -10.383   5.5220  0.00  0.00     0.000 C
ATOM     74   O  NAG B   5      11.865 -11.154   5.9560  0.00  0.00     0.000 O
ATOM     76  HD  NAG B   5      12.331 -11.622   6.5160  0.00  0.00     0.000 HD
BRANCH 66 78
ATOM     76   N  NAG B   5      12.127 -10.210   0.0180  0.00  0.00     0.000 N
ATOM     78  HD  NAG B   5      12.526 -10.762   0.5540  0.00  0.00     0.000 HD
ATOM     78   C  NAG B   5      12.917 -10.766  -0.9140  0.00  0.00     0.000 C
ATOM     79   C  NAG B   5      12.837 -10.084  -2.2530  0.00  0.00     0.000 C
ATOM     80   O  NAG B   5      13.675 -11.775  -0.6830  0.00  0.00     0.000 OA
ENDBRANCH 66 78
BRANCH 65 81
ATOM     81  O4  BDP B   6      13.258  -8.677   1.9290  0.00  0.00     0.000 O
BRANCH 81 85
ATOM     82  C1  BDP B   6      15.116  -4.888   2.6750  0.00  0.00     0.000 C
ATOM     83  C2  BDP B   6      15.148  -5.923   3.7970  0.00  0.00     0.000 C
ATOM     84  C3  BDP B   6      14.839  -7.340   3.3080  0.00  0.00     0.000 C
ATOM     85  C4  BDP B   6      13.548  -7.394   2.4890  0.00  0.00     0.000 C
ATOM     86  C5  BDP B   6      13.619  -6.284   1.4140  0.00  0.00     0.000 C
ATOM     87  O5  BDP B   6      13.867  -4.967   2.0050  0.00  0.00     0.000 O
ATOM     88   O  BDP B   6      16.473  -5.877   4.3190  0.00  0.00     0.000 O
ATOM     90  HD  BDP B   6      17.101  -6.407   4.5950  0.00  0.00     0.000 HD
ATOM     90   O  BDP B   6      14.774  -8.230   4.4260  0.00  0.00     0.000 O
ATOM     92  HD  BDP B   6      15.402  -8.759   4.7010  0.00  0.00     0.000 HD
BRANCH 86 92
ATOM     92   C  BDP B   6      12.285  -6.124   0.7270  0.00  0.00     0.000 C
ATOM     93   O  BDP B   6      12.188  -6.373  -0.5130  0.00  0.00     0.000 OA
ATOM     94   O  BDP B   6      11.298  -5.764   1.4400  0.00  0.00     0.000 OA
ENDBRANCH 86 92
BRANCH 82 95
ATOM     95  O3  NAG B   7      15.221  -3.577   3.2640  0.00  0.00     0.000 O
BRANCH 95 98
ATOM     96  C1  NAG B   7      17.245  -0.598   2.6570  0.00  0.00     0.000 C
ATOM     97  C2  NAG B   7      16.599  -1.697   3.4900  0.00  0.00     0.000 C
ATOM     98  C3  NAG B   7      15.775  -2.512   2.4940  0.00  0.00     0.000 C
ATOM     99  C4  NAG B   7      14.726  -1.619   1.8360  0.00  0.00     0.000 C
ATOM    100  C5  NAG B   7      15.375  -0.382   1.2130  0.00  0.00     0.000 C
ATOM    101  O5  NAG B   7      16.191   0.249   2.1870  0.00  0.00     0.000 O
BRANCH 97 104
ATOM    102   N  NAG B   7      17.444  -2.730   4.1060  0.00  0.00     0.000 N
ATOM    104  HD  NAG B   7      17.760  -3.495   4.3590  0.00  0.00     0.000 HD
ATOM    104   O  NAG B   7      18.442  -3.868   5.7900  0.00  0.00     0.000 OA
ATOM    105   C  NAG B   7      17.755  -2.902   5.4050  0.00  0.00     0.000 C
ATOM    106   C  NAG B   7      17.252  -1.921   6.4070  0.00  0.00     0.000 C
ENDBRANCH 97 104
ATOM    107   O  NAG B   7      14.961   1.499  -0.1260  0.00  0.00     0.000 O
ATOM    109  HD  NAG B   7      15.527   0.870   0.0550  0.00  0.00     0.000 HD
ATOM    109   O  NAG B   7      14.961   1.499  -0.1260  0.00  0.00     0.000 O
ATOM    111  HD  NAG B   7      15.527   0.870   0.0550  0.00  0.00     0.000 HD
ENDBRANCH 95 98
ENDBRANCH 82 95
ENDBRANCH 81 85
ENDBRANCH 65 81
ENDBRANCH 64 67
ENDBRANCH 51 64
ENDBRANCH 50 54
ENDBRANCH 34 50
ENDBRANCH 33 36
ENDBRANCH 20 33
ENDBRANCH 19 23
ENDBRANCH 1 19
TORSDOF 19
ENDMDL
MODEL 37
REMARK VINA RESULT:      -6.9     25.044     31.199
ROOT
ATOM      1  C1  NAG B   1     -10.878   9.464   5.8470  0.00  0.00     0.000 C
ATOM      2  C2  NAG B   1     -10.293   8.101   6.2090  0.00  0.00     0.000 C
ATOM      3  C3  NAG B   1      -9.742   8.080   7.6190  0.00  0.00     0.000 C
ATOM      4  C4  NAG B   1      -8.698   9.191   7.6670  0.00  0.00     0.000 C
ATOM      5  C5  NAG B   1      -9.387  10.540   7.4250  0.00  0.00     0.000 C
ATOM      6  O5  NAG B   1     -10.014  10.578   6.1250  0.00  0.00     0.000 O
ATOM      7   O  NAG B   1      -9.151   6.803   7.9550  0.00  0.00     0.000 O
ATOM      9  HD  NAG B   1      -9.811   6.575   7.4420  0.00  0.00     0.000 HD
ATOM      9   O  NAG B   1      -8.052   9.201   8.9290  0.00  0.00     0.000 O
ATOM     11  HD  NAG B   1      -8.712   8.973   8.4160  0.00  0.00     0.000 HD
ATOM     11   C  NAG B   1      -8.380  11.682   7.6040  0.00  0.00     0.000 C
ATOM     12   O  NAG B   1      -8.727  12.809   6.8000  0.00  0.00     0.000 O
ATOM     14  HD  NAG B   1      -9.387  12.580   6.2870  0.00  0.00     0.000 HD
ENDROOT
BRANCH 2 16
ATOM     14   N  NAG B   1     -11.379   7.190   5.8040  0.00  0.00     0.000 N
ATOM     16  HD  NAG B   1     -11.896   6.986   5.1400  0.00  0.00     0.000 HD
ATOM     16   C  NAG B   1     -11.175   6.087   5.0640  0.00  0.00     0.000 C
ATOM     17   C  NAG B   1      -9.789   5.749   4.5850  0.00  0.00     0.000 C
ATOM     18   O  NAG B   1     -12.100   5.324   4.7880  0.00  0.00     0.000 OA
ENDBRANCH 2 16
BRANCH 1 19
ATOM     19  O4  BDP B   2     -10.994   9.402   4.4320  0.00  0.00     0.000 O
BRANCH 19 23
ATOM     20  C1  BDP B   2      -9.416  11.472   1.2430  0.00  0.00     0.000 C
ATOM     21  C2  BDP B   2      -8.428  10.729   2.1190  0.00  0.00     0.000 C
ATOM     22  C3  BDP B   2      -9.123   9.693   2.9720  0.00  0.00     0.000 C
ATOM     23  C4  BDP B   2     -10.250  10.377   3.7410  0.00  0.00     0.000 C
ATOM     24  C5  BDP B   2     -11.177  11.073   2.7630  0.00  0.00     0.000 C
ATOM     25  O5  BDP B   2     -10.452  12.042   2.0310  0.00  0.00     0.000 O
ATOM     26   O  BDP B   2      -7.441  10.107   1.3250  0.00  0.00     0.000 O
ATOM     28  HD  BDP B   2      -7.819  10.617   0.7350  0.00  0.00     0.000 HD
ATOM     28   O  BDP B   2      -8.164   9.082   3.8500  0.00  0.00     0.000 O
ATOM     30  HD  BDP B   2      -8.542   9.592   3.2610  0.00  0.00     0.000 HD
BRANCH 24 30
ATOM     30   C  BDP B   2     -12.295  11.771   3.4500  0.00  0.00     0.000 C
ATOM     31   O  BDP B   2     -13.460  11.410   3.1640  0.00  0.00     0.000 OA
ATOM     32   O  BDP B   2     -12.016  12.690   4.2710  0.00  0.00     0.000 OA
ENDBRANCH 24 30
BRANCH 20 33
ATOM     33  O3  NAG B   3      -8.652  12.503   0.6670  0.00  0.00     0.000 O
BRANCH 33 36
ATOM     34  C1  NAG B   3      -9.035  13.408  -2.9640  0.00  0.00     0.000 C
ATOM     35  C2  NAG B   3      -8.516  12.670  -1.7450  0.00  0.00     0.000 C
ATOM     36  C3  NAG B   3      -9.297  13.061  -0.4810  0.00  0.00     0.000 C
ATOM     37  C4  NAG B   3      -9.315  14.582  -0.3470  0.00  0.00     0.000 C
ATOM     38  C5  NAG B   3      -9.769  15.222  -1.6560  0.00  0.00     0.000 C
ATOM     39  O5  NAG B   3      -8.928  14.803  -2.7170  0.00  0.00     0.000 O
ATOM     40   O  NAG B   3     -10.205  14.972   0.7100  0.00  0.00     0.000 O
ATOM     42  HD  NAG B   3     -10.546  15.455   0.0770  0.00  0.00     0.000 HD
ATOM     42   C  NAG B   3      -9.693  16.747  -1.6560  0.00  0.00     0.000 C
ATOM     43   O  NAG B   3      -8.323  17.158  -1.5600  0.00  0.00     0.000 O
ATOM     45  HD  NAG B   3      -8.664  17.641  -2.1930  0.00  0.00     0.000 HD
BRANCH 35 47
ATOM     45   N  NAG B   3      -8.583  11.225  -1.9240  0.00  0.00     0.000 N
ATOM     47  HD  NAG B   3      -9.046  11.656  -2.5160  0.00  0.00     0.000 HD
ATOM     47   C  NAG B   3      -7.551  10.429  -1.7260  0.00  0.00     0.000 C
ATOM     48   C  NAG B   3      -7.785   8.969  -1.9750  0.00  0.00     0.000 C
ATOM     49   O  NAG B   3      -6.452  10.861  -1.3830  0.00  0.00     0.000 OA
ENDBRANCH 35 47
BRANCH 34 50
ATOM     50  O4  BDP B   4      -8.146  13.022  -3.9910  0.00  0.00     0.000 O
BRANCH 50 54
ATOM     51  C1  BDP B   4      -7.946  12.027  -7.9320  0.00  0.00     0.000 C
ATOM     52  C2  BDP B   4      -7.776  13.515  -7.6460  0.00  0.00     0.000 C
ATOM     53  C3  BDP B   4      -7.496  13.694  -6.1860  0.00  0.00     0.000 C
ATOM     54  C4  BDP B   4      -8.621  13.019  -5.3480  0.00  0.00     0.000 C
ATOM     55  C5  BDP B   4      -8.900  11.592  -5.7980  0.00  0.00     0.000 C
ATOM     56  O5  BDP B   4      -9.064  11.538  -7.2130  0.00  0.00     0.000 O
ATOM     57   O  BDP B   4      -6.701  14.038  -8.3960  0.00  0.00     0.000 O
ATOM     59  HD  BDP B   4      -7.077  14.468  -9.0470  0.00  0.00     0.000 HD
ATOM     59   O  BDP B   4      -7.534  15.111  -5.9210  0.00  0.00     0.000 O
ATOM     61  HD  BDP B   4      -7.911  15.541  -6.5720  0.00  0.00     0.000 HD
BRANCH 55 61
ATOM     61   C  BDP B   4     -10.170  11.095  -5.1300  0.00  0.00     0.000 C
ATOM     62   O  BDP B   4     -10.078  10.121  -4.3380  0.00  0.00     0.000 OA
ATOM     63   O  BDP B   4     -11.260  11.686  -5.3980  0.00  0.00     0.000 OA
ENDBRANCH 55 61
BRANCH 51 64
ATOM     64  O3  NAG B   5      -8.150  11.886  -9.3510  0.00  0.00     0.000 O
BRANCH 64 67
ATOM     65  C1  NAG B   5      -6.356   9.323 -11.3030  0.00  0.00     0.000 C
ATOM     66  C2  NAG B   5      -6.596  10.635 -10.5760  0.00  0.00     0.000 C
ATOM     67  C3  NAG B   5      -7.909  10.569  -9.8060  0.00  0.00     0.000 C
ATOM     68  C4  NAG B   5      -9.061  10.124 -10.7170  0.00  0.00     0.000 C
ATOM     69  C5  NAG B   5      -8.692   8.856 -11.4710  0.00  0.00     0.000 C
ATOM     70  O5  NAG B   5      -7.443   9.039 -12.1540  0.00  0.00     0.000 O
ATOM     71   O  NAG B   5     -10.214   9.932  -9.9270  0.00  0.00     0.000 O
ATOM     73  HD  NAG B   5     -10.592  10.333 -10.5950  0.00  0.00     0.000 HD
ATOM     73   C  NAG B   5      -9.736   8.407 -12.5030  0.00  0.00     0.000 C
ATOM     74   O  NAG B   5      -9.849   9.403 -13.5400  0.00  0.00     0.000 O
ATOM     76  HD  NAG B   5     -10.227   9.804 -14.2090  0.00  0.00     0.000 HD
BRANCH 66 78
ATOM     76   N  NAG B   5      -5.458  11.569 -10.6700  0.00  0.00     0.000 N
ATOM     78  HD  NAG B   5      -5.922  11.191 -10.0440  0.00  0.00     0.000 HD
ATOM     78   C  NAG B   5      -4.664  11.950  -9.6560  0.00  0.00     0.000 C
ATOM     79   C  NAG B   5      -3.575  12.901 -10.0720  0.00  0.00     0.000 C
ATOM     80   O  NAG B   5      -4.825  11.550  -8.4490  0.00  0.00     0.000 OA
ENDBRANCH 66 78
BRANCH 65 81
ATOM     81  O4  BDP B   6      -5.146   9.397 -12.0670  0.00  0.00     0.000 O
BRANCH 81 85
ATOM     82  C1  BDP B   6      -1.600   7.009 -12.3630  0.00  0.00     0.000 C
ATOM     83  C2  BDP B   6      -2.494   7.100 -13.5960  0.00  0.00     0.000 C
ATOM     84  C3  BDP B   6      -3.481   8.268 -13.5310  0.00  0.00     0.000 C
ATOM     85  C4  BDP B   6      -4.275   8.275 -12.2220  0.00  0.00     0.000 C
ATOM     86  C5  BDP B   6      -3.268   8.143 -11.0550  0.00  0.00     0.000 C
ATOM     87  O5  BDP B   6      -2.415   6.963 -11.2000  0.00  0.00     0.000 O
ATOM     88   O  BDP B   6      -1.608   7.285 -14.6960  0.00  0.00     0.000 O
ATOM     90  HD  BDP B   6      -1.536   7.748 -15.4250  0.00  0.00     0.000 HD
ATOM     90   O  BDP B   6      -4.357   8.220 -14.6600  0.00  0.00     0.000 O
ATOM     92  HD  BDP B   6      -4.285   8.683 -15.3890  0.00  0.00     0.000 HD
BRANCH 86 92
ATOM     92   C  BDP B   6      -3.994   7.905  -9.7530  0.00  0.00     0.000 C
ATOM     93   O  BDP B   6      -3.819   8.705  -8.7850  0.00  0.00     0.000 OA
ATOM     94   O  BDP B   6      -4.778   6.908  -9.6940  0.00  0.00     0.000 OA
ENDBRANCH 86 92
BRANCH 82 95
ATOM     95  O3  NAG B   7      -0.856   5.776 -12.4310  0.00  0.00     0.000 O
BRANCH 95 98
ATOM     96  C1  NAG B   7       1.832   4.161 -10.5590  0.00  0.00     0.000 C
ATOM     97  C2  NAG B   7       1.068   4.600 -11.8020  0.00  0.00     0.000 C
ATOM     98  C3  NAG B   7      -0.174   5.311 -11.2680  0.00  0.00     0.000 C
ATOM     99  C4  NAG B   7      -0.998   4.347 -10.4170  0.00  0.00     0.000 C
ATOM    100  C5  NAG B   7      -0.141   3.722  -9.3150  0.00  0.00     0.000 C
ATOM    101  O5  NAG B   7       1.031   3.174  -9.8990  0.00  0.00     0.000 O
BRANCH 97 104
ATOM    102   N  NAG B   7       1.691   5.608 -12.6700  0.00  0.00     0.000 N
ATOM    104  HD  NAG B   7       1.830   6.325 -13.1360  0.00  0.00     0.000 HD
ATOM    104   O  NAG B   7       2.576   6.449 -14.5780  0.00  0.00     0.000 OA
ATOM    105   C  NAG B   7       2.117   5.481 -13.9420  0.00  0.00     0.000 C
ATOM    106   C  NAG B   7       2.023   4.150 -14.6070  0.00  0.00     0.000 C
ENDBRANCH 97 104
ATOM    107   O  NAG B   7      -0.213   2.362  -7.4050  0.00  0.00     0.000 O
ATOM    109  HD  NAG B   7       0.146   3.066  -7.7600  0.00  0.00     0.000 HD
ATOM    109   O  NAG B   7      -0.213   2.362  -7.4050  0.00  0.00     0.000 O
ATOM    111  HD  NAG B   7       0.146   3.066  -7.7600  0.00  0.00     0.000 HD
ENDBRANCH 95 98
ENDBRANCH 82 95
ENDBRANCH 81 85
ENDBRANCH 65 81
ENDBRANCH 64 67
ENDBRANCH 51 64
ENDBRANCH 50 54
ENDBRANCH 34 50
ENDBRANCH 33 36
ENDBRANCH 20 33
ENDBRANCH 19 23
ENDBRANCH 1 19
TORSDOF 19
ENDMDL
MODEL 38
REMARK VINA RESULT:      -6.9      9.176     16.190
ROOT
ATOM      1  C1  NAG B   1       7.921   3.354  21.2430  0.00  0.00     0.000 C
ATOM      2  C2  NAG B   1       8.001   3.407  22.7660  0.00  0.00     0.000 C
ATOM      3  C3  NAG B   1       8.520   4.743  23.2570  0.00  0.00     0.000 C
ATOM      4  C4  NAG B   1       9.884   4.919  22.5970  0.00  0.00     0.000 C
ATOM      5  C5  NAG B   1       9.701   4.988  21.0760  0.00  0.00     0.000 C
ATOM      6  O5  NAG B   1       9.118   3.769  20.5660  0.00  0.00     0.000 O
ATOM      7   O  NAG B   1       8.635   4.787  24.6980  0.00  0.00     0.000 O
ATOM      9  HD  NAG B   1       7.934   4.292  24.5820  0.00  0.00     0.000 HD
ATOM      9   O  NAG B   1      10.501   6.108  23.0610  0.00  0.00     0.000 O
ATOM     11  HD  NAG B   1       9.800   5.613  22.9450  0.00  0.00     0.000 HD
ATOM     11   C  NAG B   1      11.042   5.301  20.4010  0.00  0.00     0.000 C
ATOM     12   O  NAG B   1      11.101   4.752  19.0850  0.00  0.00     0.000 O
ATOM     14  HD  NAG B   1      10.399   4.257  18.9690  0.00  0.00     0.000 HD
ENDROOT
BRANCH 2 16
ATOM     14   N  NAG B   1       6.670   3.017  23.2630  0.00  0.00     0.000 N
ATOM     16  HD  NAG B   1       6.025   2.453  23.1370  0.00  0.00     0.000 HD
ATOM     16   C  NAG B   1       6.470   1.975  24.0890  0.00  0.00     0.000 C
ATOM     17   C  NAG B   1       7.636   1.127  24.5250  0.00  0.00     0.000 C
ATOM     18   O  NAG B   1       5.350   1.710  24.5230  0.00  0.00     0.000 OA
ENDBRANCH 2 16
BRANCH 1 19
ATOM     19  O4  BDP B   2       7.782   1.965  20.9740  0.00  0.00     0.000 O
BRANCH 19 23
ATOM     20  C1  BDP B   2       9.780  -0.816  18.6900  0.00  0.00     0.000 C
ATOM     21  C2  BDP B   2      10.494  -0.328  19.9340  0.00  0.00     0.000 C
ATOM     22  C3  BDP B   2       9.533   0.340  20.8910  0.00  0.00     0.000 C
ATOM     23  C4  BDP B   2       8.777   1.428  20.1360  0.00  0.00     0.000 C
ATOM     24  C5  BDP B   2       8.097   0.822  18.9240  0.00  0.00     0.000 C
ATOM     25  O5  BDP B   2       9.070   0.248  18.0720  0.00  0.00     0.000 O
ATOM     26   O  BDP B   2      11.140  -1.403  20.5810  0.00  0.00     0.000 O
ATOM     28  HD  BDP B   2      10.931  -1.776  19.8280  0.00  0.00     0.000 HD
ATOM     28   O  BDP B   2      10.267   0.867  22.0070  0.00  0.00     0.000 O
ATOM     30  HD  BDP B   2      10.057   0.495  21.2540  0.00  0.00     0.000 HD
BRANCH 24 30
ATOM     30   C  BDP B   2       7.349   1.835  18.1340  0.00  0.00     0.000 C
ATOM     31   O  BDP B   2       8.013   2.753  17.6010  0.00  0.00     0.000 OA
ATOM     32   O  BDP B   2       6.093   1.722  18.0480  0.00  0.00     0.000 OA
ENDBRANCH 24 30
BRANCH 20 33
ATOM     33  O3  NAG B   3      10.822  -1.232  17.8410  0.00  0.00     0.000 O
BRANCH 33 36
ATOM     34  C1  NAG B   3       9.912  -3.975  15.4330  0.00  0.00     0.000 C
ATOM     35  C2  NAG B   3      10.235  -3.318  16.7620  0.00  0.00     0.000 C
ATOM     36  C3  NAG B   3      10.321  -1.790  16.6240  0.00  0.00     0.000 C
ATOM     37  C4  NAG B   3      11.278  -1.438  15.4880  0.00  0.00     0.000 C
ATOM     38  C5  NAG B   3      10.912  -2.218  14.2270  0.00  0.00     0.000 C
ATOM     39  O5  NAG B   3      10.919  -3.609  14.5010  0.00  0.00     0.000 O
ATOM     40   O  NAG B   3      11.217  -0.030  15.2130  0.00  0.00     0.000 O
ATOM     42  HD  NAG B   3      11.058  -0.319  14.4120  0.00  0.00     0.000 HD
ATOM     42   C  NAG B   3      11.896  -2.026  13.0760  0.00  0.00     0.000 C
ATOM     43   O  NAG B   3      13.168  -2.581  13.4350  0.00  0.00     0.000 O
ATOM     45  HD  NAG B   3      13.009  -2.870  12.6340  0.00  0.00     0.000 HD
BRANCH 35 47
ATOM     45   N  NAG B   3      10.510  -3.920  18.0600  0.00  0.00     0.000 N
ATOM     47  HD  NAG B   3      11.139  -3.385  17.8010  0.00  0.00     0.000 HD
ATOM     47   C  NAG B   3       9.574  -4.134  18.9640  0.00  0.00     0.000 C
ATOM     48   C  NAG B   3      10.031  -4.743  20.2560  0.00  0.00     0.000 C
ATOM     49   O  NAG B   3       8.400  -3.826  18.7720  0.00  0.00     0.000 OA
ENDBRANCH 35 47
BRANCH 34 50
ATOM     50  O4  BDP B   4       9.984  -5.356  15.7170  0.00  0.00     0.000 O
BRANCH 50 54
ATOM     51  C1  BDP B   4       8.322  -8.975  14.8830  0.00  0.00     0.000 C
ATOM     52  C2  BDP B   4       9.384  -8.523  13.8870  0.00  0.00     0.000 C
ATOM     53  C3  BDP B   4      10.162  -7.396  14.4940  0.00  0.00     0.000 C
ATOM     54  C4  BDP B   4       9.190  -6.263  14.9340  0.00  0.00     0.000 C
ATOM     55  C5  BDP B   4       8.027  -6.788  15.7650  0.00  0.00     0.000 C
ATOM     56  O5  BDP B   4       7.423  -7.908  15.1250  0.00  0.00     0.000 O
ATOM     57   O  BDP B   4      10.260  -9.588  13.5870  0.00  0.00     0.000 O
ATOM     59  HD  BDP B   4      10.009  -9.863  12.8040  0.00  0.00     0.000 HD
ATOM     59   O  BDP B   4      11.018  -6.871  13.4590  0.00  0.00     0.000 O
ATOM     61  HD  BDP B   4      10.767  -7.146  12.6770  0.00  0.00     0.000 HD
BRANCH 55 61
ATOM     61   C  BDP B   4       6.993  -5.689  15.9280  0.00  0.00     0.000 C
ATOM     62   O  BDP B   4       6.715  -4.984  14.9230  0.00  0.00     0.000 OA
ATOM     63   O  BDP B   4       6.456  -5.533  17.0680  0.00  0.00     0.000 OA
ENDBRANCH 55 61
BRANCH 51 64
ATOM     64  O3  NAG B   5       7.636 -10.098  14.2960  0.00  0.00     0.000 O
BRANCH 64 67
ATOM     65  C1  NAG B   5       7.434 -13.672  15.1790  0.00  0.00     0.000 C
ATOM     66  C2  NAG B   5       7.776 -12.433  14.3690  0.00  0.00     0.000 C
ATOM     67  C3  NAG B   5       7.500 -11.182  15.1930  0.00  0.00     0.000 C
ATOM     68  C4  NAG B   5       6.075 -11.199  15.7610  0.00  0.00     0.000 C
ATOM     69  C5  NAG B   5       5.796 -12.514  16.4730  0.00  0.00     0.000 C
ATOM     70  O5  NAG B   5       6.090 -13.614  15.6010  0.00  0.00     0.000 O
ATOM     71   O  NAG B   5       5.924 -10.102  16.6360  0.00  0.00     0.000 O
ATOM     73  HD  NAG B   5       5.157 -10.045  16.2380  0.00  0.00     0.000 HD
ATOM     73   C  NAG B   5       4.350 -12.672  16.9650  0.00  0.00     0.000 C
ATOM     74   O  NAG B   5       3.455 -12.696  15.8330  0.00  0.00     0.000 O
ATOM     76  HD  NAG B   5       2.688 -12.640  15.4350  0.00  0.00     0.000 HD
BRANCH 66 78
ATOM     76   N  NAG B   5       8.375 -12.516  13.0230  0.00  0.00     0.000 N
ATOM     78  HD  NAG B   5       8.635 -12.317  13.8240  0.00  0.00     0.000 HD
ATOM     78   C  NAG B   5       9.686 -12.469  12.7380  0.00  0.00     0.000 C
ATOM     79   C  NAG B   5       9.986 -12.599  11.2690  0.00  0.00     0.000 C
ATOM     80   O  NAG B   5      10.594 -12.318  13.6310  0.00  0.00     0.000 OA
ENDBRANCH 66 78
BRANCH 65 81
ATOM     81  O4  BDP B   6       7.647 -14.850  14.3910  0.00  0.00     0.000 O
BRANCH 81 85
ATOM     82  C1  BDP B   6       8.727 -18.973  14.8400  0.00  0.00     0.000 C
ATOM     83  C2  BDP B   6       7.402 -18.521  15.4470  0.00  0.00     0.000 C
ATOM     84  C3  BDP B   6       6.922 -17.176  14.8940  0.00  0.00     0.000 C
ATOM     85  C4  BDP B   6       8.009 -16.102  14.9780  0.00  0.00     0.000 C
ATOM     86  C5  BDP B   6       9.304 -16.688  14.3670  0.00  0.00     0.000 C
ATOM     87  O5  BDP B   6       9.691 -17.945  15.0110  0.00  0.00     0.000 O
ATOM     88   O  BDP B   6       6.462 -19.538  15.1090  0.00  0.00     0.000 O
ATOM     90  HD  BDP B   6       5.645 -19.627  14.8370  0.00  0.00     0.000 HD
ATOM     90   O  BDP B   6       5.741 -16.765  15.5880  0.00  0.00     0.000 O
ATOM     92  HD  BDP B   6       4.924 -16.855  15.3160  0.00  0.00     0.000 HD
BRANCH 86 92
ATOM     92   C  BDP B   6      10.475 -15.773  14.6310  0.00  0.00     0.000 C
ATOM     93   O  BDP B   6      11.277 -15.497  13.6880  0.00  0.00     0.000 OA
ATOM     94   O  BDP B   6      10.593 -15.295  15.8020  0.00  0.00     0.000 OA
ENDBRANCH 86 92
BRANCH 82 95
ATOM     95  O3  NAG B   7       9.184 -20.133  15.5630  0.00  0.00     0.000 O
BRANCH 95 98
ATOM     96  C1  NAG B   7      10.841 -23.182  14.4240  0.00  0.00     0.000 C
ATOM     97  C2  NAG B   7       9.735 -22.354  15.0650  0.00  0.00     0.000 C
ATOM     98  C3  NAG B   7      10.247 -20.916  15.0200  0.00  0.00     0.000 C
ATOM     99  C4  NAG B   7      11.553 -20.804  15.8020  0.00  0.00     0.000 C
ATOM    100  C5  NAG B   7      12.577 -21.824  15.3020  0.00  0.00     0.000 C
ATOM    101  O5  NAG B   7      11.978 -23.111  15.2920  0.00  0.00     0.000 O
BRANCH 97 104
ATOM    102   N  NAG B   7       8.443 -22.281  14.3690  0.00  0.00     0.000 N
ATOM    104  HD  NAG B   7       7.732 -21.980  13.9770  0.00  0.00     0.000 HD
ATOM    104   O  NAG B   7       6.212 -22.550  14.0920  0.00  0.00     0.000 OA
ATOM    105   C  NAG B   7       7.242 -22.739  14.7680  0.00  0.00     0.000 C
ATOM    106   C  NAG B   7       7.141 -23.479  16.0580  0.00  0.00     0.000 C
ENDBRANCH 97 104
ATOM    107   O  NAG B   7      14.811 -22.513  15.4990  0.00  0.00     0.000 O
ATOM    109  HD  NAG B   7      14.154 -22.390  14.9490  0.00  0.00     0.000 HD
ATOM    109   O  NAG B   7      14.811 -22.513  15.4990  0.00  0.00     0.000 O
ATOM    111  HD  NAG B   7      14.154 -22.390  14.9490  0.00  0.00     0.000 HD
ENDBRANCH 95 98
ENDBRANCH 82 95
ENDBRANCH 81 85
ENDBRANCH 65 81
ENDBRANCH 64 67
ENDBRANCH 51 64
ENDBRANCH 50 54
ENDBRANCH 34 50
ENDBRANCH 33 36
ENDBRANCH 20 33
ENDBRANCH 19 23
ENDBRANCH 1 19
TORSDOF 19
ENDMDL
MODEL 39
REMARK VINA RESULT:      -6.9      5.286     16.102
ROOT
ATOM      1  C1  NAG B   1       8.080 -18.430  -1.3620  0.00  0.00     0.000 C
ATOM      2  C2  NAG B   1       7.400 -19.508  -2.2020  0.00  0.00     0.000 C
ATOM      3  C3  NAG B   1       6.643 -20.500  -1.3440  0.00  0.00     0.000 C
ATOM      4  C4  NAG B   1       7.676 -21.078  -0.3820  0.00  0.00     0.000 C
ATOM      5  C5  NAG B   1       8.213 -19.955   0.5150  0.00  0.00     0.000 C
ATOM      6  O5  NAG B   1       8.863 -18.930  -0.2670  0.00  0.00     0.000 O
ATOM      7   O  NAG B   1       6.030 -21.546  -2.1310  0.00  0.00     0.000 O
ATOM      9  HD  NAG B   1       5.965 -20.857  -2.6520  0.00  0.00     0.000 HD
ATOM      9   O  NAG B   1       7.086 -22.090   0.4170  0.00  0.00     0.000 O
ATOM     11  HD  NAG B   1       7.022 -21.401  -0.1040  0.00  0.00     0.000 HD
ATOM     11   C  NAG B   1       9.150 -20.538   1.5800  0.00  0.00     0.000 C
ATOM     12   O  NAG B   1      10.137 -19.587   1.9770  0.00  0.00     0.000 O
ATOM     14  HD  NAG B   1      10.073 -18.899   1.4550  0.00  0.00     0.000 HD
ENDROOT
BRANCH 2 16
ATOM     14   N  NAG B   1       7.683 -19.376  -3.6430  0.00  0.00     0.000 N
ATOM     16  HD  NAG B   1       7.581 -19.775  -4.4050  0.00  0.00     0.000 HD
ATOM     16   C  NAG B   1       6.765 -18.970  -4.5380  0.00  0.00     0.000 C
ATOM     17   C  NAG B   1       5.364 -18.652  -4.0860  0.00  0.00     0.000 C
ATOM     18   O  NAG B   1       7.053 -18.825  -5.7250  0.00  0.00     0.000 OA
ENDBRANCH 2 16
BRANCH 1 19
ATOM     19  O4  BDP B   2       9.004 -17.845  -2.2700  0.00  0.00     0.000 O
BRANCH 19 23
ATOM     20  C1  BDP B   2       9.252 -14.231  -0.3160  0.00  0.00     0.000 C
ATOM     21  C2  BDP B   2       8.154 -14.362  -1.3520  0.00  0.00     0.000 C
ATOM     22  C3  BDP B   2       7.889 -15.812  -1.6880  0.00  0.00     0.000 C
ATOM     23  C4  BDP B   2       9.209 -16.465  -2.0880  0.00  0.00     0.000 C
ATOM     24  C5  BDP B   2      10.221 -16.280  -0.9740  0.00  0.00     0.000 C
ATOM     25  O5  BDP B   2      10.429 -14.899  -0.7480  0.00  0.00     0.000 O
ATOM     26   O  BDP B   2       6.967 -13.757  -0.8870  0.00  0.00     0.000 O
ATOM     28  HD  BDP B   2       7.533 -13.467  -0.2990  0.00  0.00     0.000 HD
ATOM     28   O  BDP B   2       6.911 -15.884  -2.7380  0.00  0.00     0.000 O
ATOM     30  HD  BDP B   2       7.477 -15.593  -2.1500  0.00  0.00     0.000 HD
BRANCH 24 30
ATOM     30   C  BDP B   2      11.538 -16.885  -1.3060  0.00  0.00     0.000 C
ATOM     31   O  BDP B   2      12.027 -16.616  -2.4270  0.00  0.00     0.000 OA
ATOM     32   O  BDP B   2      12.086 -17.637  -0.4500  0.00  0.00     0.000 OA
ENDBRANCH 24 30
BRANCH 20 33
ATOM     33  O3  NAG B   3       9.500 -12.847  -0.2580  0.00  0.00     0.000 O
BRANCH 33 36
ATOM     34  C1  NAG B   3      10.929 -11.984   3.1140  0.00  0.00     0.000 C
ATOM     35  C2  NAG B   3       9.932 -12.517   2.1020  0.00  0.00     0.000 C
ATOM     36  C3  NAG B   3      10.528 -12.534   0.6860  0.00  0.00     0.000 C
ATOM     37  C4  NAG B   3      11.095 -11.155   0.3590  0.00  0.00     0.000 C
ATOM     38  C5  NAG B   3      12.015 -10.682   1.4810  0.00  0.00     0.000 C
ATOM     39  O5  NAG B   3      11.313 -10.677   2.7130  0.00  0.00     0.000 O
ATOM     40   O  NAG B   3      11.830 -11.206  -0.8730  0.00  0.00     0.000 O
ATOM     42  HD  NAG B   3      12.451 -10.866  -0.3730  0.00  0.00     0.000 HD
ATOM     42   C  NAG B   3      12.526  -9.254   1.3000  0.00  0.00     0.000 C
ATOM     43   O  NAG B   3      11.427  -8.339   1.3830  0.00  0.00     0.000 O
ATOM     45  HD  NAG B   3      12.047  -7.999   1.8830  0.00  0.00     0.000 HD
BRANCH 35 47
ATOM     45   N  NAG B   3       8.546 -12.958   2.1960  0.00  0.00     0.000 N
ATOM     47  HD  NAG B   3       8.678 -12.410   1.5390  0.00  0.00     0.000 HD
ATOM     47   C  NAG B   3       8.205 -14.187   2.5300  0.00  0.00     0.000 C
ATOM     48   C  NAG B   3       6.735 -14.480   2.5600  0.00  0.00     0.000 C
ATOM     49   O  NAG B   3       9.044 -15.051   2.7760  0.00  0.00     0.000 OA
ENDBRANCH 35 47
BRANCH 34 50
ATOM     50  O4  BDP B   4      10.189 -11.933   4.3160  0.00  0.00     0.000 O
BRANCH 50 54
ATOM     51  C1  BDP B   4      10.498 -11.745   8.3680  0.00  0.00     0.000 C
ATOM     52  C2  BDP B   4      10.622 -10.400   7.6620  0.00  0.00     0.000 C
ATOM     53  C3  BDP B   4      10.126 -10.548   6.2570  0.00  0.00     0.000 C
ATOM     54  C4  BDP B   4      10.893 -11.702   5.5480  0.00  0.00     0.000 C
ATOM     55  C5  BDP B   4      10.917 -12.978   6.3790  0.00  0.00     0.000 C
ATOM     56  O5  BDP B   4      11.322 -12.694   7.7150  0.00  0.00     0.000 O
ATOM     57   O  BDP B   4       9.852  -9.423   8.3290  0.00  0.00     0.000 O
ATOM     59  HD  BDP B   4      10.430  -8.955   8.7730  0.00  0.00     0.000 HD
ATOM     59   O  BDP B   4      10.438  -9.319   5.5690  0.00  0.00     0.000 O
ATOM     61  HD  BDP B   4      11.016  -8.851   6.0130  0.00  0.00     0.000 HD
BRANCH 55 61
ATOM     61   C  BDP B   4      11.894 -13.960   5.7590  0.00  0.00     0.000 C
ATOM     62   O  BDP B   4      13.124 -13.714   5.8610  0.00  0.00     0.000 OA
ATOM     63   O  BDP B   4      11.426 -14.983   5.1710  0.00  0.00     0.000 OA
ENDBRANCH 55 61
BRANCH 51 64
ATOM     64  O3  NAG B   5      10.922 -11.553   9.7320  0.00  0.00     0.000 O
BRANCH 64 67
ATOM     65  C1  NAG B   5       9.151 -13.026  12.6100  0.00  0.00     0.000 C
ATOM     66  C2  NAG B   5       9.476 -12.032  11.5090  0.00  0.00     0.000 C
ATOM     67  C3  NAG B   5      10.531 -12.616  10.5780  0.00  0.00     0.000 C
ATOM     68  C4  NAG B   5      11.749 -13.114  11.3680  0.00  0.00     0.000 C
ATOM     69  C5  NAG B   5      11.315 -14.028  12.5040  0.00  0.00     0.000 C
ATOM     70  O5  NAG B   5      10.325 -13.372  13.3090  0.00  0.00     0.000 O
ATOM     71   O  NAG B   5      12.621 -13.780  10.4810  0.00  0.00     0.000 O
ATOM     73  HD  NAG B   5      13.218 -13.344  10.9320  0.00  0.00     0.000 HD
ATOM     73   C  NAG B   5      12.458 -14.474  13.4270  0.00  0.00     0.000 C
ATOM     74   O  NAG B   5      13.011 -13.325  14.1020  0.00  0.00     0.000 O
ATOM     76  HD  NAG B   5      13.607 -12.889  14.5540  0.00  0.00     0.000 HD
BRANCH 66 78
ATOM     76   N  NAG B   5       8.140 -11.730  10.9620  0.00  0.00     0.000 N
ATOM     78  HD  NAG B   5       8.819 -11.286  11.2650  0.00  0.00     0.000 HD
ATOM     78   C  NAG B   5       7.692 -10.518  10.5950  0.00  0.00     0.000 C
ATOM     79   C  NAG B   5       6.288 -10.536  10.0550  0.00  0.00     0.000 C
ATOM     80   O  NAG B   5       8.391  -9.448  10.7040  0.00  0.00     0.000 OA
ENDBRANCH 66 78
BRANCH 65 81
ATOM     81  O4  BDP B   6       8.193 -12.463  13.5160  0.00  0.00     0.000 O
BRANCH 81 85
ATOM     82  C1  BDP B   6       5.448 -13.658  16.5810  0.00  0.00     0.000 C
ATOM     83  C2  BDP B   6       6.938 -13.793  16.8780  0.00  0.00     0.000 C
ATOM     84  C3  BDP B   6       7.812 -12.979  15.9190  0.00  0.00     0.000 C
ATOM     85  C4  BDP B   6       7.471 -13.263  14.4550  0.00  0.00     0.000 C
ATOM     86  C5  BDP B   6       5.939 -13.130  14.2880  0.00  0.00     0.000 C
ATOM     87  O5  BDP B   6       5.212 -13.992  15.2210  0.00  0.00     0.000 O
ATOM     88   O  BDP B   6       7.108 -13.305  18.2060  0.00  0.00     0.000 O
ATOM     90  HD  BDP B   6       7.647 -12.815  18.6740  0.00  0.00     0.000 HD
ATOM     90   O  BDP B   6       9.192 -13.245  16.1850  0.00  0.00     0.000 O
ATOM     92  HD  BDP B   6       9.731 -12.755  16.6520  0.00  0.00     0.000 HD
BRANCH 86 92
ATOM     92   C  BDP B   6       5.508 -13.627  12.9290  0.00  0.00     0.000 C
ATOM     93   O  BDP B   6       5.242 -12.790  12.0150  0.00  0.00     0.000 OA
ATOM     94   O  BDP B   6       5.453 -14.884  12.7560  0.00  0.00     0.000 OA
ENDBRANCH 86 92
BRANCH 82 95
ATOM     95  O3  NAG B   7       4.734 -14.605  17.4010  0.00  0.00     0.000 O
BRANCH 95 98
ATOM     96  C1  NAG B   7       1.547 -14.282  19.1540  0.00  0.00     0.000 C
ATOM     97  C2  NAG B   7       3.053 -14.471  19.0250  0.00  0.00     0.000 C
ATOM     98  C3  NAG B   7       3.317 -14.492  17.5210  0.00  0.00     0.000 C
ATOM     99  C4  NAG B   7       2.552 -15.644  16.8750  0.00  0.00     0.000 C
ATOM    100  C5  NAG B   7       1.064 -15.576  17.2250  0.00  0.00     0.000 C
ATOM    101  O5  NAG B   7       0.928 -15.463  18.6330  0.00  0.00     0.000 O
BRANCH 97 104
ATOM    102   N  NAG B   7       3.915 -13.389  19.5180  0.00  0.00     0.000 N
ATOM    104  HD  NAG B   7       4.509 -12.760  19.5600  0.00  0.00     0.000 HD
ATOM    104   O  NAG B   7       5.526 -12.427  20.7880  0.00  0.00     0.000 OA
ATOM    105   C  NAG B   7       4.817 -13.417  20.5180  0.00  0.00     0.000 C
ATOM    106   C  NAG B   7       4.981 -14.668  21.3110  0.00  0.00     0.000 C
ENDBRANCH 97 104
ATOM    107   O  NAG B   7      -1.030 -16.532  16.7750  0.00  0.00     0.000 O
ATOM    109  HD  NAG B   7      -0.608 -15.791  16.9290  0.00  0.00     0.000 HD
ATOM    109   O  NAG B   7      -1.030 -16.532  16.7750  0.00  0.00     0.000 O
ATOM    111  HD  NAG B   7      -0.608 -15.791  16.9290  0.00  0.00     0.000 HD
ENDBRANCH 95 98
ENDBRANCH 82 95
ENDBRANCH 81 85
ENDBRANCH 65 81
ENDBRANCH 64 67
ENDBRANCH 51 64
ENDBRANCH 50 54
ENDBRANCH 34 50
ENDBRANCH 33 36
ENDBRANCH 20 33
ENDBRANCH 19 23
ENDBRANCH 1 19
TORSDOF 19
ENDMDL
MODEL 40
REMARK VINA RESULT:      -6.8     25.754     31.360
ROOT
ATOM      1  C1  NAG B   1     -10.355   9.147   5.6510  0.00  0.00     0.000 C
ATOM      2  C2  NAG B   1      -9.838   7.751   5.9870  0.00  0.00     0.000 C
ATOM      3  C3  NAG B   1      -9.261   7.685   7.3860  0.00  0.00     0.000 C
ATOM      4  C4  NAG B   1      -8.158   8.738   7.4230  0.00  0.00     0.000 C
ATOM      5  C5  NAG B   1      -8.780  10.124   7.2090  0.00  0.00     0.000 C
ATOM      6  O5  NAG B   1      -9.429  10.210   5.9220  0.00  0.00     0.000 O
ATOM      7   O  NAG B   1      -8.733   6.375   7.6970  0.00  0.00     0.000 O
ATOM      9  HD  NAG B   1      -9.414   6.188   7.1950  0.00  0.00     0.000 HD
ATOM      9   O  NAG B   1      -7.489   8.700   8.6720  0.00  0.00     0.000 O
ATOM     11  HD  NAG B   1      -8.170   8.513   8.1710  0.00  0.00     0.000 HD
ATOM     11   C  NAG B   1      -7.709  11.210   7.3790  0.00  0.00     0.000 C
ATOM     12   O  NAG B   1      -8.011  12.362   6.5930  0.00  0.00     0.000 O
ATOM     14  HD  NAG B   1      -8.692  12.175   6.0920  0.00  0.00     0.000 HD
ENDROOT
BRANCH 2 16
ATOM     14   N  NAG B   1      -9.885   6.734   4.9220  0.00  0.00     0.000 N
ATOM     16  HD  NAG B   1      -9.702   5.904   4.7520  0.00  0.00     0.000 HD
ATOM     16   C  NAG B   1     -10.848   5.799   4.8400  0.00  0.00     0.000 C
ATOM     17   C  NAG B   1     -11.931   5.744   5.8850  0.00  0.00     0.000 C
ATOM     18   O  NAG B   1     -10.882   4.997   3.9070  0.00  0.00     0.000 OA
ENDBRANCH 2 16
BRANCH 1 19
ATOM     19  O4  BDP B   2     -10.502   9.107   4.2380  0.00  0.00     0.000 O
BRANCH 19 23
ATOM     20  C1  BDP B   2      -9.074  11.288   1.0530  0.00  0.00     0.000 C
ATOM     21  C2  BDP B   2      -8.051  10.490   1.8350  0.00  0.00     0.000 C
ATOM     22  C3  BDP B   2      -8.715   9.429   2.6830  0.00  0.00     0.000 C
ATOM     23  C4  BDP B   2      -9.781  10.098   3.5460  0.00  0.00     0.000 C
ATOM     24  C5  BDP B   2     -10.750  10.853   2.6570  0.00  0.00     0.000 C
ATOM     25  O5  BDP B   2     -10.049  11.841   1.9250  0.00  0.00     0.000 O
ATOM     26   O  BDP B   2      -7.125   9.887   0.9570  0.00  0.00     0.000 O
ATOM     28  HD  BDP B   2      -7.527  10.429   0.4140  0.00  0.00     0.000 HD
ATOM     28   O  BDP B   2      -7.719   8.763   3.4740  0.00  0.00     0.000 O
ATOM     30  HD  BDP B   2      -8.121   9.305   2.9310  0.00  0.00     0.000 HD
BRANCH 24 30
ATOM     30   C  BDP B   2     -11.811  11.540   3.4380  0.00  0.00     0.000 C
ATOM     31   O  BDP B   2     -11.446  12.411   4.2610  0.00  0.00     0.000 OA
ATOM     32   O  BDP B   2     -13.014  11.207   3.2410  0.00  0.00     0.000 OA
ENDBRANCH 24 30
BRANCH 20 33
ATOM     33  O3  NAG B   3      -8.324  12.330   0.4770  0.00  0.00     0.000 O
BRANCH 33 36
ATOM     34  C1  NAG B   3      -8.877  13.205  -3.1390  0.00  0.00     0.000 C
ATOM     35  C2  NAG B   3      -8.334  12.450  -1.9410  0.00  0.00     0.000 C
ATOM     36  C3  NAG B   3      -9.002  12.915  -0.6370  0.00  0.00     0.000 C
ATOM     37  C4  NAG B   3      -8.903  14.435  -0.5340  0.00  0.00     0.000 C
ATOM     38  C5  NAG B   3      -9.395  15.087  -1.8230  0.00  0.00     0.000 C
ATOM     39  O5  NAG B   3      -8.657  14.592  -2.9270  0.00  0.00     0.000 O
ATOM     40   O  NAG B   3      -9.692  14.905   0.5700  0.00  0.00     0.000 O
ATOM     42  HD  NAG B   3     -10.038  15.401  -0.0490  0.00  0.00     0.000 HD
ATOM     42   C  NAG B   3      -9.211  16.602  -1.8580  0.00  0.00     0.000 C
ATOM     43   O  NAG B   3      -7.812  16.914  -1.8590  0.00  0.00     0.000 O
ATOM     45  HD  NAG B   3      -8.159  17.411  -2.4780  0.00  0.00     0.000 HD
BRANCH 35 47
ATOM     45   N  NAG B   3      -8.508  11.013  -2.1140  0.00  0.00     0.000 N
ATOM     47  HD  NAG B   3      -8.954  11.476  -2.6950  0.00  0.00     0.000 HD
ATOM     47   C  NAG B   3      -7.531  10.146  -1.9390  0.00  0.00     0.000 C
ATOM     48   C  NAG B   3      -7.875   8.706  -2.1780  0.00  0.00     0.000 C
ATOM     49   O  NAG B   3      -6.396  10.499  -1.6250  0.00  0.00     0.000 OA
ENDBRANCH 35 47
BRANCH 34 50
ATOM     50  O4  BDP B   4      -8.087  12.739  -4.2130  0.00  0.00     0.000 O
BRANCH 50 54
ATOM     51  C1  BDP B   4      -8.207  11.627  -8.1250  0.00  0.00     0.000 C
ATOM     52  C2  BDP B   4      -7.991  13.119  -7.8990  0.00  0.00     0.000 C
ATOM     53  C3  BDP B   4      -7.597  13.335  -6.4700  0.00  0.00     0.000 C
ATOM     54  C4  BDP B   4      -8.665  12.706  -5.5290  0.00  0.00     0.000 C
ATOM     55  C5  BDP B   4      -9.001  11.271  -5.9130  0.00  0.00     0.000 C
ATOM     56  O5  BDP B   4      -9.273  11.179  -7.3080  0.00  0.00     0.000 O
ATOM     57   O  BDP B   4      -6.968  13.600  -8.7440  0.00  0.00     0.000 O
ATOM     59  HD  BDP B   4      -7.387  14.017  -9.3770  0.00  0.00     0.000 HD
ATOM     59   O  BDP B   4      -7.593  14.760  -6.2470  0.00  0.00     0.000 O
ATOM     61  HD  BDP B   4      -8.011  15.178  -6.8800  0.00  0.00     0.000 HD
BRANCH 55 61
ATOM     61   C  BDP B   4     -10.223  10.818  -5.1340  0.00  0.00     0.000 C
ATOM     62   O  BDP B   4     -11.263  11.523  -5.2050  0.00  0.00     0.000 OA
ATOM     63   O  BDP B   4     -10.139   9.751  -4.4530  0.00  0.00     0.000 OA
ENDBRANCH 55 61
BRANCH 51 64
ATOM     64  O3  NAG B   5      -8.520  11.447  -9.5190  0.00  0.00     0.000 O
BRANCH 64 67
ATOM     65  C1  NAG B   5      -7.545   8.407 -11.3640  0.00  0.00     0.000 C
ATOM     66  C2  NAG B   5      -7.409   9.782 -10.7330  0.00  0.00     0.000 C
ATOM     67  C3  NAG B   5      -8.635  10.085  -9.8800  0.00  0.00     0.000 C
ATOM     68  C4  NAG B   5      -9.928   9.875 -10.6800  0.00  0.00     0.000 C
ATOM     69  C5  NAG B   5      -9.931   8.510 -11.3490  0.00  0.00     0.000 C
ATOM     70  O5  NAG B   5      -8.733   8.341 -12.1210  0.00  0.00     0.000 O
ATOM     71   O  NAG B   5     -11.028  10.019  -9.8070  0.00  0.00     0.000 O
ATOM     73  HD  NAG B   5     -11.352  10.456 -10.4810  0.00  0.00     0.000 HD
ATOM     73   C  NAG B   5     -11.130   8.262 -12.2750  0.00  0.00     0.000 C
ATOM     74   O  NAG B   5     -11.086   9.187 -13.3810  0.00  0.00     0.000 O
ATOM     76  HD  NAG B   5     -11.410   9.624 -14.0560  0.00  0.00     0.000 HD
BRANCH 66 78
ATOM     76   N  NAG B   5      -6.051   9.656 -10.1700  0.00  0.00     0.000 N
ATOM     78  HD  NAG B   5      -6.506  10.247 -10.6100  0.00  0.00     0.000 HD
ATOM     78   C  NAG B   5      -5.154  10.646 -10.0430  0.00  0.00     0.000 C
ATOM     79   C  NAG B   5      -3.861  10.207  -9.4120  0.00  0.00     0.000 C
ATOM     80   O  NAG B   5      -5.375  11.849 -10.4310  0.00  0.00     0.000 OA
ENDBRANCH 66 78
BRANCH 65 81
ATOM     81  O4  BDP B   6      -6.416   8.137 -12.2040  0.00  0.00     0.000 O
BRANCH 81 85
ATOM     82  C1  BDP B   6      -4.200   4.832 -13.7940  0.00  0.00     0.000 C
ATOM     83  C2  BDP B   6      -5.684   4.918 -14.1400  0.00  0.00     0.000 C
ATOM     84  C3  BDP B   6      -6.275   6.306 -13.8820  0.00  0.00     0.000 C
ATOM     85  C4  BDP B   6      -5.967   6.806 -12.4700  0.00  0.00     0.000 C
ATOM     86  C5  BDP B   6      -4.448   6.637 -12.2260  0.00  0.00     0.000 C
ATOM     87  O5  BDP B   6      -4.010   5.259 -12.4530  0.00  0.00     0.000 O
ATOM     88   O  BDP B   6      -5.768   4.614 -15.5300  0.00  0.00     0.000 O
ATOM     90  HD  BDP B   6      -6.176   4.877 -16.2470  0.00  0.00     0.000 HD
ATOM     90   O  BDP B   6      -7.685   6.278 -14.1190  0.00  0.00     0.000 O
ATOM     92  HD  BDP B   6      -8.093   6.541 -14.8360  0.00  0.00     0.000 HD
BRANCH 86 92
ATOM     92   C  BDP B   6      -4.113   6.887 -10.7760  0.00  0.00     0.000 C
ATOM     93   O  BDP B   6      -5.010   6.735  -9.8920  0.00  0.00     0.000 OA
ATOM     94   O  BDP B   6      -2.920   7.223 -10.4990  0.00  0.00     0.000 OA
ENDBRANCH 86 92
BRANCH 82 95
ATOM     95  O3  NAG B   7      -3.793   3.452 -13.8810  0.00  0.00     0.000 O
BRANCH 95 98
ATOM     96  C1  NAG B   7      -1.041   1.657 -15.4770  0.00  0.00     0.000 C
ATOM     97  C2  NAG B   7      -2.492   1.943 -15.1110  0.00  0.00     0.000 C
ATOM     98  C3  NAG B   7      -2.430   3.146 -14.1730  0.00  0.00     0.000 C
ATOM     99  C4  NAG B   7      -1.600   2.801 -12.9390  0.00  0.00     0.000 C
ATOM    100  C5  NAG B   7      -0.220   2.276 -13.3390  0.00  0.00     0.000 C
ATOM    101  O5  NAG B   7      -0.381   1.227 -14.2810  0.00  0.00     0.000 O
BRANCH 97 104
ATOM    102   N  NAG B   7      -3.403   2.397 -16.1700  0.00  0.00     0.000 N
ATOM    104  HD  NAG B   7      -3.984   2.858 -16.6190  0.00  0.00     0.000 HD
ATOM    104   O  NAG B   7      -5.185   2.299 -17.5650  0.00  0.00     0.000 OA
ATOM    105   C  NAG B   7      -4.460   1.758 -16.7060  0.00  0.00     0.000 C
ATOM    106   C  NAG B   7      -4.779   0.376 -16.2500  0.00  0.00     0.000 C
ENDBRANCH 97 104
ATOM    107   O  NAG B   7       1.875   1.634 -12.5000  0.00  0.00     0.000 O
ATOM    109  HD  NAG B   7       1.465   2.045 -13.1430  0.00  0.00     0.000 HD
ATOM    109   O  NAG B   7       1.875   1.634 -12.5000  0.00  0.00     0.000 O
ATOM    111  HD  NAG B   7       1.465   2.045 -13.1430  0.00  0.00     0.000 HD
ENDBRANCH 95 98
ENDBRANCH 82 95
ENDBRANCH 81 85
ENDBRANCH 65 81
ENDBRANCH 64 67
ENDBRANCH 51 64
ENDBRANCH 50 54
ENDBRANCH 34 50
ENDBRANCH 33 36
ENDBRANCH 20 33
ENDBRANCH 19 23
ENDBRANCH 1 19
TORSDOF 19
ENDMDL
MODEL 41
REMARK VINA RESULT:      -6.7      8.317     16.565
ROOT
ATOM      1  C1  NAG B   1       9.956   3.967  18.0680  0.00  0.00     0.000 C
ATOM      2  C2  NAG B   1       9.229   4.364  19.3500  0.00  0.00     0.000 C
ATOM      3  C3  NAG B   1      10.069   5.283  20.2140  0.00  0.00     0.000 C
ATOM      4  C4  NAG B   1      11.358   4.516  20.4900  0.00  0.00     0.000 C
ATOM      5  C5  NAG B   1      12.093   4.273  19.1660  0.00  0.00     0.000 C
ATOM      6  O5  NAG B   1      11.292   3.478  18.2650  0.00  0.00     0.000 O
ATOM      7   O  NAG B   1       9.402   5.632  21.4480  0.00  0.00     0.000 O
ATOM      9  HD  NAG B   1       8.744   5.583  20.8880  0.00  0.00     0.000 HD
ATOM      9   O  NAG B   1      12.187   5.258  21.3700  0.00  0.00     0.000 O
ATOM     11  HD  NAG B   1      11.529   5.209  20.8090  0.00  0.00     0.000 HD
ATOM     11   C  NAG B   1      13.457   3.626  19.4350  0.00  0.00     0.000 C
ATOM     12   O  NAG B   1      13.869   2.811  18.3390  0.00  0.00     0.000 O
ATOM     14  HD  NAG B   1      13.210   2.762  17.7780  0.00  0.00     0.000 HD
ENDROOT
BRANCH 2 16
ATOM     14   N  NAG B   1       7.920   4.878  18.9090  0.00  0.00     0.000 N
ATOM     16  HD  NAG B   1       7.261   4.714  18.3720  0.00  0.00     0.000 HD
ATOM     16   C  NAG B   1       6.750   4.387  19.3540  0.00  0.00     0.000 C
ATOM     17   C  NAG B   1       6.739   3.241  20.3300  0.00  0.00     0.000 C
ATOM     18   O  NAG B   1       5.677   4.875  19.0000  0.00  0.00     0.000 OA
ENDBRANCH 2 16
BRANCH 1 19
ATOM     19  O4  BDP B   2       9.200   2.860  17.5970  0.00  0.00     0.000 O
BRANCH 19 23
ATOM     20  C1  BDP B   2       9.977  -1.086  16.7220  0.00  0.00     0.000 C
ATOM     21  C2  BDP B   2       9.955  -0.714  18.1900  0.00  0.00     0.000 C
ATOM     22  C3  BDP B   2       9.264   0.612  18.4090  0.00  0.00     0.000 C
ATOM     23  C4  BDP B   2       9.921   1.654  17.5080  0.00  0.00     0.000 C
ATOM     24  C5  BDP B   2       9.872   1.179  16.0690  0.00  0.00     0.000 C
ATOM     25  O5  BDP B   2      10.566  -0.048  15.9520  0.00  0.00     0.000 O
ATOM     26   O  BDP B   2       9.307  -1.719  18.9400  0.00  0.00     0.000 O
ATOM     28  HD  BDP B   2       9.399  -2.125  18.1800  0.00  0.00     0.000 HD
ATOM     28   O  BDP B   2       9.350   0.967  19.7980  0.00  0.00     0.000 O
ATOM     30  HD  BDP B   2       9.443   0.562  19.0380  0.00  0.00     0.000 HD
BRANCH 24 30
ATOM     30   C  BDP B   2      10.508   2.147  15.1370  0.00  0.00     0.000 C
ATOM     31   O  BDP B   2       9.750   2.911  14.4970  0.00  0.00     0.000 OA
ATOM     32   O  BDP B   2      11.768   2.142  15.0330  0.00  0.00     0.000 OA
ENDBRANCH 24 30
BRANCH 20 33
ATOM     33  O3  NAG B   3      10.802  -2.225  16.6710  0.00  0.00     0.000 O
BRANCH 33 36
ATOM     34  C1  NAG B   3      10.109  -5.326  14.6590  0.00  0.00     0.000 C
ATOM     35  C2  NAG B   3      10.156  -4.417  15.8720  0.00  0.00     0.000 C
ATOM     36  C3  NAG B   3      10.576  -2.990  15.4850  0.00  0.00     0.000 C
ATOM     37  C4  NAG B   3      11.870  -3.045  14.6770  0.00  0.00     0.000 C
ATOM     38  C5  NAG B   3      11.739  -4.051  13.5370  0.00  0.00     0.000 C
ATOM     39  O5  NAG B   3      11.394  -5.325  14.0530  0.00  0.00     0.000 O
ATOM     40   O  NAG B   3      12.168  -1.748  14.1390  0.00  0.00     0.000 O
ATOM     42  HD  NAG B   3      12.194  -2.197  13.3990  0.00  0.00     0.000 HD
ATOM     42   C  NAG B   3      13.032  -4.267  12.7540  0.00  0.00     0.000 C
ATOM     43   O  NAG B   3      14.011  -4.877  13.6040  0.00  0.00     0.000 O
ATOM     45  HD  NAG B   3      14.037  -5.326  12.8640  0.00  0.00     0.000 HD
BRANCH 35 47
ATOM     45   N  NAG B   3       9.858  -4.889  17.2180  0.00  0.00     0.000 N
ATOM     47  HD  NAG B   3      10.693  -4.684  17.1140  0.00  0.00     0.000 HD
ATOM     47   C  NAG B   3       8.741  -4.590  17.8510  0.00  0.00     0.000 C
ATOM     48   C  NAG B   3       8.601  -5.141  19.2390  0.00  0.00     0.000 C
ATOM     49   O  NAG B   3       7.875  -3.880  17.3450  0.00  0.00     0.000 OA
ENDBRANCH 35 47
BRANCH 34 50
ATOM     50  O4  BDP B   4       9.824  -6.597  15.2050  0.00  0.00     0.000 O
BRANCH 50 54
ATOM     51  C1  BDP B   4       8.151 -10.205  14.3460  0.00  0.00     0.000 C
ATOM     52  C2  BDP B   4       9.013  -9.626  13.2290  0.00  0.00     0.000 C
ATOM     53  C3  BDP B   4       9.850  -8.520  13.7940  0.00  0.00     0.000 C
ATOM     54  C4  BDP B   4       8.935  -7.471  14.4890  0.00  0.00     0.000 C
ATOM     55  C5  BDP B   4       7.948  -8.112  15.4540  0.00  0.00     0.000 C
ATOM     56  O5  BDP B   4       7.276  -9.202  14.8290  0.00  0.00     0.000 O
ATOM     57   O  BDP B   4       9.856 -10.624  12.6930  0.00  0.00     0.000 O
ATOM     59  HD  BDP B   4       9.483 -10.844  11.9430  0.00  0.00     0.000 HD
ATOM     59   O  BDP B   4      10.500  -7.875  12.6800  0.00  0.00     0.000 O
ATOM     61  HD  BDP B   4      10.128  -8.095  11.9300  0.00  0.00     0.000 HD
BRANCH 55 61
ATOM     61   C  BDP B   4       6.925  -7.077  15.8850  0.00  0.00     0.000 C
ATOM     62   O  BDP B   4       6.587  -6.196  15.0510  0.00  0.00     0.000 OA
ATOM     63   O  BDP B   4       6.457  -7.148  17.0630  0.00  0.00     0.000 OA
ENDBRANCH 55 61
BRANCH 51 64
ATOM     64  O3  NAG B   5       7.409 -11.305  13.7860  0.00  0.00     0.000 O
BRANCH 64 67
ATOM     65  C1  NAG B   5       7.307 -14.793  14.9760  0.00  0.00     0.000 C
ATOM     66  C2  NAG B   5       7.735 -13.595  14.1470  0.00  0.00     0.000 C
ATOM     67  C3  NAG B   5       7.142 -12.320  14.7340  0.00  0.00     0.000 C
ATOM     68  C4  NAG B   5       5.625 -12.455  14.9240  0.00  0.00     0.000 C
ATOM     69  C5  NAG B   5       5.290 -13.730  15.6830  0.00  0.00     0.000 C
ATOM     70  O5  NAG B   5       5.901 -14.857  15.0390  0.00  0.00     0.000 O
ATOM     71   O  NAG B   5       5.152 -11.314  15.6070  0.00  0.00     0.000 O
ATOM     73  HD  NAG B   5       4.514 -11.380  15.0260  0.00  0.00     0.000 HD
ATOM     73   C  NAG B   5       3.787 -14.013  15.8100  0.00  0.00     0.000 C
ATOM     74   O  NAG B   5       3.224 -14.235  14.5000  0.00  0.00     0.000 O
ATOM     76  HD  NAG B   5       2.586 -14.300  13.9190  0.00  0.00     0.000 HD
BRANCH 66 78
ATOM     76   N  NAG B   5       8.682 -13.799  13.0340  0.00  0.00     0.000 N
ATOM     78  HD  NAG B   5       8.683 -13.410  13.8080  0.00  0.00     0.000 HD
ATOM     78   C  NAG B   5      10.000 -13.543  13.0620  0.00  0.00     0.000 C
ATOM     79   C  NAG B   5      10.703 -13.875  11.7740  0.00  0.00     0.000 C
ATOM     80   O  NAG B   5      10.600 -13.054  14.0850  0.00  0.00     0.000 OA
ENDBRANCH 66 78
BRANCH 65 81
ATOM     81  O4  BDP B   6       7.825 -16.000  14.4010  0.00  0.00     0.000 O
BRANCH 81 85
ATOM     82  C1  BDP B   6       9.257 -19.864  15.5760  0.00  0.00     0.000 C
ATOM     83  C2  BDP B   6       7.843 -19.477  16.0010  0.00  0.00     0.000 C
ATOM     84  C3  BDP B   6       7.288 -18.291  15.2080  0.00  0.00     0.000 C
ATOM     85  C4  BDP B   6       8.252 -17.103  15.2050  0.00  0.00     0.000 C
ATOM     86  C5  BDP B   6       9.649 -17.626  14.7940  0.00  0.00     0.000 C
ATOM     87  O5  BDP B   6      10.096 -18.721  15.6550  0.00  0.00     0.000 O
ATOM     88   O  BDP B   6       7.043 -20.630  15.7580  0.00  0.00     0.000 O
ATOM     90  HD  BDP B   6       6.267 -20.850  15.4420  0.00  0.00     0.000 HD
ATOM     90   O  BDP B   6       6.014 -17.915  15.7380  0.00  0.00     0.000 O
ATOM     92  HD  BDP B   6       5.238 -18.134  15.4210  0.00  0.00     0.000 HD
BRANCH 86 92
ATOM     92   C  BDP B   6      10.696 -16.557  14.9990  0.00  0.00     0.000 C
ATOM     93   O  BDP B   6      10.637 -15.815  16.0250  0.00  0.00     0.000 OA
ATOM     94   O  BDP B   6      11.616 -16.465  14.1280  0.00  0.00     0.000 OA
ENDBRANCH 86 92
BRANCH 82 95
ATOM     95  O3  NAG B   7       9.757 -20.846  16.5050  0.00  0.00     0.000 O
BRANCH 95 98
ATOM     96  C1  NAG B   7      11.820 -23.811  15.9640  0.00  0.00     0.000 C
ATOM     97  C2  NAG B   7      10.574 -23.037  16.3740  0.00  0.00     0.000 C
ATOM     98  C3  NAG B   7      10.945 -21.568  16.1820  0.00  0.00     0.000 C
ATOM     99  C4  NAG B   7      12.139 -21.214  17.0650  0.00  0.00     0.000 C
ATOM    100  C5  NAG B   7      13.307 -22.168  16.8120  0.00  0.00     0.000 C
ATOM    101  O5  NAG B   7      12.840 -23.505  16.9200  0.00  0.00     0.000 O
BRANCH 97 104
ATOM    102   N  NAG B   7       9.384 -23.261  15.5410  0.00  0.00     0.000 N
ATOM    104  HD  NAG B   7       8.724 -23.139  14.9940  0.00  0.00     0.000 HD
ATOM    104   O  NAG B   7       7.217 -23.746  15.0970  0.00  0.00     0.000 OA
ATOM    105   C  NAG B   7       8.152 -23.654  15.9160  0.00  0.00     0.000 C
ATOM    106   C  NAG B   7       7.899 -23.974  17.3500  0.00  0.00     0.000 C
ENDBRANCH 97 104
ATOM    107   O  NAG B   7      15.561 -22.574  17.3190  0.00  0.00     0.000 O
ATOM    109  HD  NAG B   7      14.960 -22.595  16.6950  0.00  0.00     0.000 HD
ATOM    109   O  NAG B   7      15.561 -22.574  17.3190  0.00  0.00     0.000 O
ATOM    111  HD  NAG B   7      14.960 -22.595  16.6950  0.00  0.00     0.000 HD
ENDBRANCH 95 98
ENDBRANCH 82 95
ENDBRANCH 81 85
ENDBRANCH 65 81
ENDBRANCH 64 67
ENDBRANCH 51 64
ENDBRANCH 50 54
ENDBRANCH 34 50
ENDBRANCH 33 36
ENDBRANCH 20 33
ENDBRANCH 19 23
ENDBRANCH 1 19
TORSDOF 19
ENDMDL
MODEL 42
REMARK VINA RESULT:      -6.7     12.174     26.780
ROOT
ATOM      1  C1  NAG B   1      10.194  -2.586 -15.9710  0.00  0.00     0.000 C
ATOM      2  C2  NAG B   1      10.823  -1.197 -16.0350  0.00  0.00     0.000 C
ATOM      3  C3  NAG B   1      10.047  -0.188 -15.2130  0.00  0.00     0.000 C
ATOM      4  C4  NAG B   1       8.628  -0.210 -15.7730  0.00  0.00     0.000 C
ATOM      5  C5  NAG B   1       8.022  -1.601 -15.5500  0.00  0.00     0.000 C
ATOM      6  O5  NAG B   1       8.783  -2.617 -16.2380  0.00  0.00     0.000 O
ATOM      7   O  NAG B   1      10.615   1.139 -15.3010  0.00  0.00     0.000 O
ATOM      9  HD  NAG B   1      11.317   0.633 -15.3340  0.00  0.00     0.000 HD
ATOM      9   O  NAG B   1       7.834   0.770 -15.1260  0.00  0.00     0.000 O
ATOM     11  HD  NAG B   1       8.535   0.263 -15.1580  0.00  0.00     0.000 HD
ATOM     11   C  NAG B   1       6.550  -1.606 -15.9800  0.00  0.00     0.000 C
ATOM     12   O  NAG B   1       6.141  -2.901 -16.4170  0.00  0.00     0.000 O
ATOM     14  HD  NAG B   1       6.843  -3.407 -16.4500  0.00  0.00     0.000 HD
ENDROOT
BRANCH 2 16
ATOM     14   N  NAG B   1      12.238  -1.265 -15.6310  0.00  0.00     0.000 N
ATOM     16  HD  NAG B   1      12.940  -1.771 -15.6620  0.00  0.00     0.000 HD
ATOM     16   C  NAG B   1      13.256  -1.012 -16.4720  0.00  0.00     0.000 C
ATOM     17   C  NAG B   1      12.974  -0.664 -17.9090  0.00  0.00     0.000 C
ATOM     18   O  NAG B   1      14.424  -1.030 -16.0840  0.00  0.00     0.000 OA
ENDBRANCH 2 16
BRANCH 1 19
ATOM     19  O4  BDP B   2      10.811  -3.272 -17.0520  0.00  0.00     0.000 O
BRANCH 19 23
ATOM     20  C1  BDP B   2      10.102  -7.084 -15.6710  0.00  0.00     0.000 C
ATOM     21  C2  BDP B   2      11.311  -6.374 -15.0980  0.00  0.00     0.000 C
ATOM     22  C3  BDP B   2      11.237  -4.884 -15.3390  0.00  0.00     0.000 C
ATOM     23  C4  BDP B   2      11.021  -4.646 -16.8310  0.00  0.00     0.000 C
ATOM     24  C5  BDP B   2       9.782  -5.392 -17.2860  0.00  0.00     0.000 C
ATOM     25  O5  BDP B   2       9.950  -6.777 -17.0500  0.00  0.00     0.000 O
ATOM     26   O  BDP B   2      11.416  -6.628 -13.7130  0.00  0.00     0.000 O
ATOM     28  HD  BDP B   2      10.813  -7.209 -13.9340  0.00  0.00     0.000 HD
ATOM     28   O  BDP B   2      12.444  -4.267 -14.8640  0.00  0.00     0.000 O
ATOM     30  HD  BDP B   2      11.841  -4.848 -15.0840  0.00  0.00     0.000 HD
BRANCH 24 30
ATOM     30   C  BDP B   2       9.519  -5.211 -18.7380  0.00  0.00     0.000 C
ATOM     31   O  BDP B   2      10.508  -5.224 -19.5060  0.00  0.00     0.000 OA
ATOM     32   O  BDP B   2       8.324  -5.048 -19.1160  0.00  0.00     0.000 OA
ENDBRANCH 24 30
BRANCH 20 33
ATOM     33  O3  NAG B   3      10.411  -8.449 -15.5330  0.00  0.00     0.000 O
BRANCH 33 36
ATOM     34  C1  NAG B   3       7.839 -11.003 -14.5290  0.00  0.00     0.000 C
ATOM     35  C2  NAG B   3       8.926  -9.959 -14.3600  0.00  0.00     0.000 C
ATOM     36  C3  NAG B   3       9.254  -9.273 -15.6950  0.00  0.00     0.000 C
ATOM     37  C4  NAG B   3       9.547 -10.335 -16.7510  0.00  0.00     0.000 C
ATOM     38  C5  NAG B   3       8.433 -11.379 -16.7750  0.00  0.00     0.000 C
ATOM     39  O5  NAG B   3       8.280 -11.953 -15.4880  0.00  0.00     0.000 O
ATOM     40   O  NAG B   3       9.657  -9.724 -18.0450  0.00  0.00     0.000 O
ATOM     42  HD  NAG B   3       9.055 -10.315 -18.2390  0.00  0.00     0.000 HD
ATOM     42   C  NAG B   3       8.707 -12.552 -17.7130  0.00  0.00     0.000 C
ATOM     43   O  NAG B   3       9.830 -13.299 -17.2300  0.00  0.00     0.000 O
ATOM     45  HD  NAG B   3       9.228 -13.890 -17.4240  0.00  0.00     0.000 HD
BRANCH 35 47
ATOM     45   N  NAG B   3       9.568  -9.692 -13.0790  0.00  0.00     0.000 N
ATOM     47  HD  NAG B   3      10.104 -10.061 -13.6510  0.00  0.00     0.000 HD
ATOM     47   C  NAG B   3       9.324  -8.611 -12.3660  0.00  0.00     0.000 C
ATOM     48   C  NAG B   3      10.087  -8.481 -11.0810  0.00  0.00     0.000 C
ATOM     49   O  NAG B   3       8.537  -7.746 -12.7430  0.00  0.00     0.000 OA
ENDBRANCH 35 47
BRANCH 34 50
ATOM     50  O4  BDP B   4       7.748 -11.600 -13.2520  0.00  0.00     0.000 O
BRANCH 50 54
ATOM     51  C1  BDP B   4       5.351 -13.756 -10.7700  0.00  0.00     0.000 C
ATOM     52  C2  BDP B   4       6.019 -14.573 -11.8700  0.00  0.00     0.000 C
ATOM     53  C3  BDP B   4       7.134 -13.764 -12.4580  0.00  0.00     0.000 C
ATOM     54  C4  BDP B   4       6.587 -12.390 -12.9410  0.00  0.00     0.000 C
ATOM     55  C5  BDP B   4       5.754 -11.691 -11.8760  0.00  0.00     0.000 C
ATOM     56  O5  BDP B   4       4.787 -12.586 -11.3330  0.00  0.00     0.000 O
ATOM     57   O  BDP B   4       6.541 -15.773 -11.3400  0.00  0.00     0.000 O
ATOM     59  HD  BDP B   4       5.976 -16.383 -11.5840  0.00  0.00     0.000 HD
ATOM     59   O  BDP B   4       7.611 -14.484 -13.6130  0.00  0.00     0.000 O
ATOM     61  HD  BDP B   4       7.046 -15.094 -13.8570  0.00  0.00     0.000 HD
BRANCH 55 61
ATOM     61   C  BDP B   4       5.041 -10.503 -12.4970  0.00  0.00     0.000 C
ATOM     62   O  BDP B   4       5.627  -9.389 -12.4830  0.00  0.00     0.000 OA
ATOM     63   O  BDP B   4       3.892 -10.689 -13.0020  0.00  0.00     0.000 OA
ENDBRANCH 55 61
BRANCH 51 64
ATOM     64  O3  NAG B   5       4.329 -14.585 -10.1830  0.00  0.00     0.000 O
BRANCH 64 67
ATOM     65  C1  NAG B   5       3.979 -14.138  -6.5400  0.00  0.00     0.000 C
ATOM     66  C2  NAG B   5       4.628 -14.507  -7.8630  0.00  0.00     0.000 C
ATOM     67  C3  NAG B   5       3.767 -14.013  -9.0180  0.00  0.00     0.000 C
ATOM     68  C4  NAG B   5       2.315 -14.486  -8.8660  0.00  0.00     0.000 C
ATOM     69  C5  NAG B   5       1.784 -14.155  -7.4800  0.00  0.00     0.000 C
ATOM     70  O5  NAG B   5       2.675 -14.670  -6.4790  0.00  0.00     0.000 O
ATOM     71   O  NAG B   5       1.533 -13.878  -9.8720  0.00  0.00     0.000 O
ATOM     73  HD  NAG B   5       1.191 -14.673  -9.9170  0.00  0.00     0.000 HD
ATOM     73   C  NAG B   5       0.380 -14.705  -7.1930  0.00  0.00     0.000 C
ATOM     74   O  NAG B   5       0.412 -16.147  -7.2130  0.00  0.00     0.000 O
ATOM     76  HD  NAG B   5       0.070 -16.942  -7.2580  0.00  0.00     0.000 HD
BRANCH 66 78
ATOM     76   N  NAG B   5       5.982 -13.933  -7.7460  0.00  0.00     0.000 N
ATOM     78  HD  NAG B   5       5.630 -14.709  -7.9020  0.00  0.00     0.000 HD
ATOM     78   C  NAG B   5       7.129 -14.543  -8.0850  0.00  0.00     0.000 C
ATOM     79   C  NAG B   5       8.349 -13.689  -7.8670  0.00  0.00     0.000 C
ATOM     80   O  NAG B   5       7.181 -15.740  -8.5410  0.00  0.00     0.000 OA
ENDBRANCH 66 78
BRANCH 65 81
ATOM     81  O4  BDP B   6       4.761 -14.642  -5.4490  0.00  0.00     0.000 O
BRANCH 81 85
ATOM     82  C1  BDP B   6       5.966 -12.905  -1.7220  0.00  0.00     0.000 C
ATOM     83  C2  BDP B   6       5.253 -14.253  -1.6740  0.00  0.00     0.000 C
ATOM     84  C3  BDP B   6       5.236 -14.966  -3.0290  0.00  0.00     0.000 C
ATOM     85  C4  BDP B   6       4.713 -14.059  -4.1450  0.00  0.00     0.000 C
ATOM     86  C5  BDP B   6       5.483 -12.719  -4.0690  0.00  0.00     0.000 C
ATOM     87  O5  BDP B   6       5.384 -12.107  -2.7430  0.00  0.00     0.000 O
ATOM     88   O  BDP B   6       5.984 -15.036  -0.7340  0.00  0.00     0.000 O
ATOM     90  HD  BDP B   6       6.284 -15.841  -0.6260  0.00  0.00     0.000 HD
ATOM     90   O  BDP B   6       4.456 -16.161  -2.9330  0.00  0.00     0.000 O
ATOM     92  HD  BDP B   6       4.756 -16.966  -2.8250  0.00  0.00     0.000 HD
BRANCH 86 92
ATOM     92   C  BDP B   6       4.857 -11.695  -4.9850  0.00  0.00     0.000 C
ATOM     93   O  BDP B   6       3.775 -11.130  -4.6420  0.00  0.00     0.000 OA
ATOM     94   O  BDP B   6       5.466 -11.426  -6.0670  0.00  0.00     0.000 OA
ENDBRANCH 86 92
BRANCH 82 95
ATOM     95  O3  NAG B   7       5.756 -12.235  -0.4630  0.00  0.00     0.000 O
BRANCH 95 98
ATOM     96  C1  NAG B   7       7.937 -10.310   1.7450  0.00  0.00     0.000 C
ATOM     97  C2  NAG B   7       6.963 -11.419   1.3700  0.00  0.00     0.000 C
ATOM     98  C3  NAG B   7       6.618 -11.160  -0.0950  0.00  0.00     0.000 C
ATOM     99  C4  NAG B   7       5.978  -9.781  -0.2420  0.00  0.00     0.000 C
ATOM    100  C5  NAG B   7       6.869  -8.698   0.3690  0.00  0.00     0.000 C
ATOM    101  O5  NAG B   7       7.210  -9.077   1.6930  0.00  0.00     0.000 O
BRANCH 97 104
ATOM    102   N  NAG B   7       6.855 -12.851   1.6830  0.00  0.00     0.000 N
ATOM    104  HD  NAG B   7       6.721 -13.597   2.1020  0.00  0.00     0.000 HD
ATOM    104   O  NAG B   7       7.581 -14.974   1.9880  0.00  0.00     0.000 OA
ATOM    105   C  NAG B   7       7.807 -13.801   1.6320  0.00  0.00     0.000 C
ATOM    106   C  NAG B   7       9.171 -13.435   1.1530  0.00  0.00     0.000 C
ENDBRANCH 97 104
ATOM    107   O  NAG B   7       7.124  -6.380   0.6220  0.00  0.00     0.000 O
ATOM    109  HD  NAG B   7       7.539  -7.127   0.4840  0.00  0.00     0.000 HD
ATOM    109   O  NAG B   7       7.124  -6.380   0.6220  0.00  0.00     0.000 O
ATOM    111  HD  NAG B   7       7.539  -7.127   0.4840  0.00  0.00     0.000 HD
ENDBRANCH 95 98
ENDBRANCH 82 95
ENDBRANCH 81 85
ENDBRANCH 65 81
ENDBRANCH 64 67
ENDBRANCH 51 64
ENDBRANCH 50 54
ENDBRANCH 34 50
ENDBRANCH 33 36
ENDBRANCH 20 33
ENDBRANCH 19 23
ENDBRANCH 1 19
TORSDOF 19
ENDMDL
MODEL 43
REMARK VINA RESULT:      -6.7      8.605     12.922
ROOT
ATOM      1  C1  NAG B   1       8.648   4.392  18.8180  0.00  0.00     0.000 C
ATOM      2  C2  NAG B   1       8.799   5.043  20.1900  0.00  0.00     0.000 C
ATOM      3  C3  NAG B   1       8.286   6.468  20.1980  0.00  0.00     0.000 C
ATOM      4  C4  NAG B   1       9.083   7.195  19.1200  0.00  0.00     0.000 C
ATOM      5  C5  NAG B   1       8.774   6.565  17.7560  0.00  0.00     0.000 C
ATOM      6  O5  NAG B   1       9.158   5.173  17.7260  0.00  0.00     0.000 O
ATOM      7   O  NAG B   1       8.461   7.104  21.4850  0.00  0.00     0.000 O
ATOM      9  HD  NAG B   1       8.292   6.283  21.7040  0.00  0.00     0.000 HD
ATOM      9   O  NAG B   1       8.739   8.570  19.1020  0.00  0.00     0.000 O
ATOM     11  HD  NAG B   1       8.571   7.749  19.3210  0.00  0.00     0.000 HD
ATOM     11   C  NAG B   1       9.458   7.367  16.6410  0.00  0.00     0.000 C
ATOM     12   O  NAG B   1       9.768   6.538  15.5230  0.00  0.00     0.000 O
ATOM     14  HD  NAG B   1       9.600   5.717  15.7410  0.00  0.00     0.000 HD
ENDROOT
BRANCH 2 16
ATOM     14   N  NAG B   1       8.168   4.107  21.1380  0.00  0.00     0.000 N
ATOM     16  HD  NAG B   1       8.110   3.267  21.3420  0.00  0.00     0.000 HD
ATOM     16   C  NAG B   1       8.810   3.592  22.2000  0.00  0.00     0.000 C
ATOM     17   C  NAG B   1      10.252   3.946  22.4500  0.00  0.00     0.000 C
ATOM     18   O  NAG B   1       8.235   2.852  22.9980  0.00  0.00     0.000 OA
ENDBRANCH 2 16
BRANCH 1 19
ATOM     19  O4  BDP B   2       9.488   3.250  18.9080  0.00  0.00     0.000 O
BRANCH 19 23
ATOM     20  C1  BDP B   2       9.930  -0.207  16.7160  0.00  0.00     0.000 C
ATOM     21  C2  BDP B   2      10.721   0.996  16.2440  0.00  0.00     0.000 C
ATOM     22  C3  BDP B   2      10.818   2.048  17.3250  0.00  0.00     0.000 C
ATOM     23  C4  BDP B   2       9.407   2.376  17.8070  0.00  0.00     0.000 C
ATOM     24  C5  BDP B   2       8.722   1.103  18.2640  0.00  0.00     0.000 C
ATOM     25  O5  BDP B   2       8.649   0.190  17.1850  0.00  0.00     0.000 O
ATOM     26   O  BDP B   2      12.017   0.603  15.8450  0.00  0.00     0.000 O
ATOM     28  HD  BDP B   2      11.635  -0.170  15.9210  0.00  0.00     0.000 HD
ATOM     28   O  BDP B   2      11.492   3.203  16.8030  0.00  0.00     0.000 O
ATOM     30  HD  BDP B   2      11.110   2.430  16.8790  0.00  0.00     0.000 HD
BRANCH 24 30
ATOM     30   C  BDP B   2       7.334   1.351  18.7370  0.00  0.00     0.000 C
ATOM     31   O  BDP B   2       7.152   1.413  19.9750  0.00  0.00     0.000 OA
ATOM     32   O  BDP B   2       6.418   1.476  17.8750  0.00  0.00     0.000 OA
ENDBRANCH 24 30
BRANCH 20 33
ATOM     33  O3  NAG B   3       9.777  -0.990  15.5580  0.00  0.00     0.000 O
BRANCH 33 36
ATOM     34  C1  NAG B   3      10.470  -4.617  14.8400  0.00  0.00     0.000 C
ATOM     35  C2  NAG B   3      10.544  -3.110  14.6770  0.00  0.00     0.000 C
ATOM     36  C3  NAG B   3       9.863  -2.387  15.8490  0.00  0.00     0.000 C
ATOM     37  C4  NAG B   3       8.452  -2.941  16.0330  0.00  0.00     0.000 C
ATOM     38  C5  NAG B   3       8.487  -4.466  16.0990  0.00  0.00     0.000 C
ATOM     39  O5  NAG B   3       9.102  -4.987  14.9340  0.00  0.00     0.000 O
ATOM     40   O  NAG B   3       7.875  -2.423  17.2420  0.00  0.00     0.000 O
ATOM     42  HD  NAG B   3       7.762  -3.267  17.4030  0.00  0.00     0.000 HD
ATOM     42   C  NAG B   3       7.105  -5.113  16.1530  0.00  0.00     0.000 C
ATOM     43   O  NAG B   3       6.412  -4.865  14.9230  0.00  0.00     0.000 O
ATOM     45  HD  NAG B   3       6.299  -5.708  15.0840  0.00  0.00     0.000 HD
BRANCH 35 47
ATOM     45   N  NAG B   3      11.904  -2.591  14.6010  0.00  0.00     0.000 N
ATOM     47  HD  NAG B   3      11.869  -3.383  14.9480  0.00  0.00     0.000 HD
ATOM     47   C  NAG B   3      12.341  -1.872  13.5870  0.00  0.00     0.000 C
ATOM     48   C  NAG B   3      13.773  -1.432  13.6560  0.00  0.00     0.000 C
ATOM     49   O  NAG B   3      11.625  -1.599  12.6250  0.00  0.00     0.000 OA
ENDBRANCH 35 47
BRANCH 34 50
ATOM     50  O4  BDP B   4      11.033  -5.110  13.6430  0.00  0.00     0.000 O
BRANCH 50 54
ATOM     51  C1  BDP B   4      12.122  -8.679  12.0200  0.00  0.00     0.000 C
ATOM     52  C2  BDP B   4      11.140  -8.786  13.1810  0.00  0.00     0.000 C
ATOM     53  C3  BDP B   4      10.544  -7.435  13.4310  0.00  0.00     0.000 C
ATOM     54  C4  BDP B   4      11.678  -6.395  13.6630  0.00  0.00     0.000 C
ATOM     55  C5  BDP B   4      12.748  -6.456  12.5820  0.00  0.00     0.000 C
ATOM     56  O5  BDP B   4      13.174  -7.800  12.3770  0.00  0.00     0.000 O
ATOM     57   O  BDP B   4      10.112  -9.701  12.8700  0.00  0.00     0.000 O
ATOM     59  HD  BDP B   4      10.316 -10.418  13.3120  0.00  0.00     0.000 HD
ATOM     59   O  BDP B   4       9.776  -7.534  14.6490  0.00  0.00     0.000 O
ATOM     61  HD  BDP B   4       9.980  -8.250  15.0900  0.00  0.00     0.000 HD
BRANCH 55 61
ATOM     61   C  BDP B   4      13.938  -5.615  13.0080  0.00  0.00     0.000 C
ATOM     62   O  BDP B   4      13.889  -5.047  14.1310  0.00  0.00     0.000 OA
ATOM     63   O  BDP B   4      14.926  -5.526  12.2160  0.00  0.00     0.000 OA
ENDBRANCH 55 61
BRANCH 51 64
ATOM     64  O3  NAG B   5      12.628 -10.003  11.7640  0.00  0.00     0.000 O
BRANCH 64 67
ATOM     65  C1  NAG B   5      12.614 -11.310   8.3170  0.00  0.00     0.000 C
ATOM     66  C2  NAG B   5      12.072 -10.901   9.6760  0.00  0.00     0.000 C
ATOM     67  C3  NAG B   5      13.141 -10.146  10.4550  0.00  0.00     0.000 C
ATOM     68  C4  NAG B   5      14.452 -10.943  10.5040  0.00  0.00     0.000 C
ATOM     69  C5  NAG B   5      14.865 -11.386   9.1090  0.00  0.00     0.000 C
ATOM     70  O5  NAG B   5      13.781 -12.083   8.4770  0.00  0.00     0.000 O
ATOM     71   O  NAG B   5      15.447 -10.138  11.1000  0.00  0.00     0.000 O
ATOM     73  HD  NAG B   5      15.641 -10.883  11.4970  0.00  0.00     0.000 HD
ATOM     73   C  NAG B   5      16.099 -12.298   9.0750  0.00  0.00     0.000 C
ATOM     74   O  NAG B   5      15.806 -13.535   9.7570  0.00  0.00     0.000 O
ATOM     76  HD  NAG B   5      15.999 -14.280  10.1540  0.00  0.00     0.000 HD
BRANCH 66 78
ATOM     76   N  NAG B   5      10.638 -11.194   9.8680  0.00  0.00     0.000 N
ATOM     78  HD  NAG B   5      11.155 -10.499   9.8860  0.00  0.00     0.000 HD
ATOM     78   C  NAG B   5       9.651 -10.287   9.9460  0.00  0.00     0.000 C
ATOM     79   C  NAG B   5       8.288 -10.899  10.1260  0.00  0.00     0.000 C
ATOM     80   O  NAG B   5       9.852  -9.022   9.8830  0.00  0.00     0.000 OA
ENDBRANCH 66 78
BRANCH 65 81
ATOM     81  O4  BDP B   6      11.627 -12.061   7.5980  0.00  0.00     0.000 O
BRANCH 81 85
ATOM     82  C1  BDP B   6       9.749 -11.634   3.7700  0.00  0.00     0.000 C
ATOM     83  C2  BDP B   6      10.574 -12.894   4.0140  0.00  0.00     0.000 C
ATOM     84  C3  BDP B   6      10.851 -13.146   5.4990  0.00  0.00     0.000 C
ATOM     85  C4  BDP B   6      11.435 -11.912   6.1890  0.00  0.00     0.000 C
ATOM     86  C5  BDP B   6      10.537 -10.702   5.8400  0.00  0.00     0.000 C
ATOM     87  O5  BDP B   6      10.389 -10.531   4.3940  0.00  0.00     0.000 O
ATOM     88   O  BDP B   6       9.798 -13.966   3.4850  0.00  0.00     0.000 O
ATOM     90  HD  BDP B   6       9.564 -14.778   3.6750  0.00  0.00     0.000 HD
ATOM     90   O  BDP B   6      11.720 -14.273   5.6410  0.00  0.00     0.000 O
ATOM     92  HD  BDP B   6      11.486 -15.085   5.8310  0.00  0.00     0.000 HD
BRANCH 86 92
ATOM     92   C  BDP B   6      11.184  -9.414   6.2900  0.00  0.00     0.000 C
ATOM     93   O  BDP B   6      10.584  -8.672   7.1250  0.00  0.00     0.000 OA
ATOM     94   O  BDP B   6      12.332  -9.140   5.8200  0.00  0.00     0.000 OA
ENDBRANCH 86 92
BRANCH 82 95
ATOM     95  O3  NAG B   7       9.715 -11.382   2.3510  0.00  0.00     0.000 O
BRANCH 95 98
ATOM     96  C1  NAG B   7       6.928  -9.962   0.4660  0.00  0.00     0.000 C
ATOM     97  C2  NAG B   7       7.868 -11.058   0.9490  0.00  0.00     0.000 C
ATOM     98  C3  NAG B   7       8.874 -10.345   1.8500  0.00  0.00     0.000 C
ATOM     99  C4  NAG B   7       9.621  -9.279   1.0510  0.00  0.00     0.000 C
ATOM    100  C5  NAG B   7       8.642  -8.325   0.3650  0.00  0.00     0.000 C
ATOM    101  O5  NAG B   7       7.695  -9.086  -0.3680  0.00  0.00     0.000 O
BRANCH 97 104
ATOM    102   N  NAG B   7       7.297 -12.103   1.8100  0.00  0.00     0.000 N
ATOM    104  HD  NAG B   7       7.149 -12.631   2.4800  0.00  0.00     0.000 HD
ATOM    104   O  NAG B   7       6.739 -14.207   2.4380  0.00  0.00     0.000 OA
ATOM    105   C  NAG B   7       7.199 -13.427   1.5810  0.00  0.00     0.000 C
ATOM    106   C  NAG B   7       7.666 -13.972   0.2750  0.00  0.00     0.000 C
ENDBRANCH 97 104
ATOM    107   O  NAG B   7       8.493  -6.343  -0.8810  0.00  0.00     0.000 O
ATOM    109  HD  NAG B   7       8.129  -6.813  -0.2520  0.00  0.00     0.000 HD
ATOM    109   O  NAG B   7       8.493  -6.343  -0.8810  0.00  0.00     0.000 O
ATOM    111  HD  NAG B   7       8.129  -6.813  -0.2520  0.00  0.00     0.000 HD
ENDBRANCH 95 98
ENDBRANCH 82 95
ENDBRANCH 81 85
ENDBRANCH 65 81
ENDBRANCH 64 67
ENDBRANCH 51 64
ENDBRANCH 50 54
ENDBRANCH 34 50
ENDBRANCH 33 36
ENDBRANCH 20 33
ENDBRANCH 19 23
ENDBRANCH 1 19
TORSDOF 19
ENDMDL
MODEL 44
REMARK VINA RESULT:      -6.6      9.643     16.463
ROOT
ATOM      1  C1  NAG B   1      14.074  -0.954  24.6340  0.00  0.00     0.000 C
ATOM      2  C2  NAG B   1      15.162  -0.608  25.6460  0.00  0.00     0.000 C
ATOM      3  C3  NAG B   1      15.207  -1.603  26.7880  0.00  0.00     0.000 C
ATOM      4  C4  NAG B   1      13.812  -1.580  27.4040  0.00  0.00     0.000 C
ATOM      5  C5  NAG B   1      12.795  -2.066  26.3630  0.00  0.00     0.000 C
ATOM      6  O5  NAG B   1      12.780  -1.202  25.2070  0.00  0.00     0.000 O
ATOM      7   O  NAG B   1      16.210  -1.260  27.7710  0.00  0.00     0.000 O
ATOM      9  HD  NAG B   1      16.580  -1.005  27.0310  0.00  0.00     0.000 HD
ATOM      9   O  NAG B   1      13.769  -2.420  28.5460  0.00  0.00     0.000 O
ATOM     11  HD  NAG B   1      14.139  -2.166  27.8050  0.00  0.00     0.000 HD
ATOM     11   C  NAG B   1      11.406  -2.182  27.0030  0.00  0.00     0.000 C
ATOM     12   O  NAG B   1      10.374  -1.978  26.0400  0.00  0.00     0.000 O
ATOM     14  HD  NAG B   1      10.743  -1.723  25.2990  0.00  0.00     0.000 HD
ENDROOT
BRANCH 2 16
ATOM     14   N  NAG B   1      16.483  -0.498  25.0010  0.00  0.00     0.000 N
ATOM     16  HD  NAG B   1      16.871  -0.274  24.2600  0.00  0.00     0.000 HD
ATOM     16   C  NAG B   1      17.145   0.665  24.8740  0.00  0.00     0.000 C
ATOM     17   C  NAG B   1      16.526   1.940  25.3810  0.00  0.00     0.000 C
ATOM     18   O  NAG B   1      18.268   0.709  24.3740  0.00  0.00     0.000 OA
ENDBRANCH 2 16
BRANCH 1 19
ATOM     19  O4  BDP B   2      13.943   0.243  23.8780  0.00  0.00     0.000 O
BRANCH 19 23
ATOM     20  C1  BDP B   2      12.226  -1.540  20.5890  0.00  0.00     0.000 C
ATOM     21  C2  BDP B   2      13.740  -1.497  20.6180  0.00  0.00     0.000 C
ATOM     22  C3  BDP B   2      14.254  -1.220  22.0120  0.00  0.00     0.000 C
ATOM     23  C4  BDP B   2      13.581   0.048  22.5320  0.00  0.00     0.000 C
ATOM     24  C5  BDP B   2      12.076  -0.117  22.4660  0.00  0.00     0.000 C
ATOM     25  O5  BDP B   2      11.682  -0.343  21.1260  0.00  0.00     0.000 O
ATOM     26   O  BDP B   2      14.273  -2.717  20.1480  0.00  0.00     0.000 O
ATOM     28  HD  BDP B   2      13.442  -2.811  19.9220  0.00  0.00     0.000 HD
ATOM     28   O  BDP B   2      15.684  -1.095  21.9740  0.00  0.00     0.000 O
ATOM     30  HD  BDP B   2      14.854  -1.189  21.7470  0.00  0.00     0.000 HD
BRANCH 24 30
ATOM     30   C  BDP B   2      11.357   1.092  22.9480  0.00  0.00     0.000 C
ATOM     31   O  BDP B   2      11.546   2.161  22.3230  0.00  0.00     0.000 OA
ATOM     32   O  BDP B   2      10.606   0.981  23.9590  0.00  0.00     0.000 OA
ENDBRANCH 24 30
BRANCH 20 33
ATOM     33  O3  NAG B   3      11.914  -1.617  19.2200  0.00  0.00     0.000 O
BRANCH 33 36
ATOM     34  C1  NAG B   3       8.787  -3.388  18.1070  0.00  0.00     0.000 C
ATOM     35  C2  NAG B   3      10.228  -3.221  18.5500  0.00  0.00     0.000 C
ATOM     36  C3  NAG B   3      10.510  -1.781  19.0060  0.00  0.00     0.000 C
ATOM     37  C4  NAG B   3      10.058  -0.809  17.9180  0.00  0.00     0.000 C
ATOM     38  C5  NAG B   3       8.627  -1.122  17.4890  0.00  0.00     0.000 C
ATOM     39  O5  NAG B   3       8.536  -2.468  17.0540  0.00  0.00     0.000 O
ATOM     40   O  NAG B   3      10.127   0.540  18.4060  0.00  0.00     0.000 O
ATOM     42  HD  NAG B   3       9.300   0.543  18.1490  0.00  0.00     0.000 HD
ATOM     42   C  NAG B   3       8.138  -0.282  16.3130  0.00  0.00     0.000 C
ATOM     43   O  NAG B   3       8.898  -0.607  15.1430  0.00  0.00     0.000 O
ATOM     45  HD  NAG B   3       8.071  -0.603  14.8850  0.00  0.00     0.000 HD
BRANCH 35 47
ATOM     45   N  NAG B   3      11.301  -4.208  18.5350  0.00  0.00     0.000 N
ATOM     47  HD  NAG B   3      11.493  -3.499  18.0760  0.00  0.00     0.000 HD
ATOM     47   C  NAG B   3      11.620  -4.936  19.5860  0.00  0.00     0.000 C
ATOM     48   C  NAG B   3      12.762  -5.891  19.4060  0.00  0.00     0.000 C
ATOM     49   O  NAG B   3      11.033  -4.822  20.6600  0.00  0.00     0.000 OA
ENDBRANCH 35 47
BRANCH 34 50
ATOM     50  O4  BDP B   4       8.738  -4.714  17.6240  0.00  0.00     0.000 O
BRANCH 50 54
ATOM     51  C1  BDP B   4       6.274  -7.716  16.4110  0.00  0.00     0.000 C
ATOM     52  C2  BDP B   4       6.338  -6.528  15.4580  0.00  0.00     0.000 C
ATOM     53  C3  BDP B   4       7.528  -5.691  15.8150  0.00  0.00     0.000 C
ATOM     54  C4  BDP B   4       7.456  -5.288  17.3160  0.00  0.00     0.000 C
ATOM     55  C5  BDP B   4       7.191  -6.482  18.2240  0.00  0.00     0.000 C
ATOM     56  O5  BDP B   4       6.092  -7.245  17.7340  0.00  0.00     0.000 O
ATOM     57   O  BDP B   4       6.463  -6.974  14.1250  0.00  0.00     0.000 O
ATOM     59  HD  BDP B   4       5.672  -6.876  13.7870  0.00  0.00     0.000 HD
ATOM     59   O  BDP B   4       7.445  -4.486  15.0270  0.00  0.00     0.000 O
ATOM     61  HD  BDP B   4       6.654  -4.387  14.6890  0.00  0.00     0.000 HD
BRANCH 55 61
ATOM     61   C  BDP B   4       6.870  -5.986  19.6220  0.00  0.00     0.000 C
ATOM     62   O  BDP B   4       7.803  -5.955  20.4670  0.00  0.00     0.000 OA
ATOM     63   O  BDP B   4       5.680  -5.625  19.8730  0.00  0.00     0.000 OA
ENDBRANCH 55 61
BRANCH 51 64
ATOM     64  O3  NAG B   5       5.160  -8.532  16.0010  0.00  0.00     0.000 O
BRANCH 64 67
ATOM     65  C1  NAG B   5       5.652 -12.186  16.0210  0.00  0.00     0.000 C
ATOM     66  C2  NAG B   5       5.796 -10.743  15.5700  0.00  0.00     0.000 C
ATOM     67  C3  NAG B   5       5.173  -9.812  16.6020  0.00  0.00     0.000 C
ATOM     68  C4  NAG B   5       3.735 -10.237  16.9300  0.00  0.00     0.000 C
ATOM     69  C5  NAG B   5       3.678 -11.716  17.2800  0.00  0.00     0.000 C
ATOM     70  O5  NAG B   5       4.292 -12.488  16.2380  0.00  0.00     0.000 O
ATOM     71   O  NAG B   5       3.260  -9.441  17.9950  0.00  0.00     0.000 O
ATOM     73  HD  NAG B   5       2.544  -9.431  17.5090  0.00  0.00     0.000 HD
ATOM     73   C  NAG B   5       2.259 -12.260  17.4990  0.00  0.00     0.000 C
ATOM     74   O  NAG B   5       1.510 -12.167  16.2690  0.00  0.00     0.000 O
ATOM     76  HD  NAG B   5       0.794 -12.157  15.7830  0.00  0.00     0.000 HD
BRANCH 66 78
ATOM     76   N  NAG B   5       7.234 -10.458  15.4000  0.00  0.00     0.000 N
ATOM     78  HD  NAG B   5       6.535 -10.533  14.8940  0.00  0.00     0.000 HD
ATOM     78   C  NAG B   5       7.823 -10.011  14.2800  0.00  0.00     0.000 C
ATOM     79   C  NAG B   5       9.306  -9.798  14.4260  0.00  0.00     0.000 C
ATOM     80   O  NAG B   5       7.186  -9.797  13.1880  0.00  0.00     0.000 OA
ENDBRANCH 66 78
BRANCH 65 81
ATOM     81  O4  BDP B   6       6.195 -13.069  15.0310  0.00  0.00     0.000 O
BRANCH 81 85
ATOM     82  C1  BDP B   6       8.095 -16.897  14.7120  0.00  0.00     0.000 C
ATOM     83  C2  BDP B   6       6.730 -16.841  15.3940  0.00  0.00     0.000 C
ATOM     84  C3  BDP B   6       5.970 -15.545  15.0980  0.00  0.00     0.000 C
ATOM     85  C4  BDP B   6       6.823 -14.306  15.3770  0.00  0.00     0.000 C
ATOM     86  C5  BDP B   6       8.185 -14.495  14.6680  0.00  0.00     0.000 C
ATOM     87  O5  BDP B   6       8.840 -15.741  15.0690  0.00  0.00     0.000 O
ATOM     88   O  BDP B   6       6.001 -17.950  14.8750  0.00  0.00     0.000 O
ATOM     90  HD  BDP B   6       5.208 -18.154  14.5920  0.00  0.00     0.000 HD
ATOM     90   O  BDP B   6       4.759 -15.515  15.8580  0.00  0.00     0.000 O
ATOM     92  HD  BDP B   6       3.966 -15.719  15.5740  0.00  0.00     0.000 HD
BRANCH 86 92
ATOM     92   C  BDP B   6       9.158 -13.424  15.0950  0.00  0.00     0.000 C
ATOM     93   O  BDP B   6       9.085 -12.945  16.2660  0.00  0.00     0.000 OA
ATOM     94   O  BDP B   6      10.037 -13.061  14.2520  0.00  0.00     0.000 OA
ENDBRANCH 86 92
BRANCH 82 95
ATOM     95  O3  NAG B   7       8.802 -18.050  15.2080  0.00  0.00     0.000 O
BRANCH 95 98
ATOM     96  C1  NAG B   7      10.696 -20.747  13.6340  0.00  0.00     0.000 C
ATOM     97  C2  NAG B   7       9.633 -20.134  14.5360  0.00  0.00     0.000 C
ATOM     98  C3  NAG B   7       9.838 -18.625  14.4130  0.00  0.00     0.000 C
ATOM     99  C4  NAG B   7      11.245 -18.253  14.8750  0.00  0.00     0.000 C
ATOM    100  C5  NAG B   7      12.299 -19.068  14.1240  0.00  0.00     0.000 C
ATOM    101  O5  NAG B   7      11.969 -20.445  14.2170  0.00  0.00     0.000 O
BRANCH 97 104
ATOM    102   N  NAG B   7       8.225 -20.320  14.1600  0.00  0.00     0.000 N
ATOM    104  HD  NAG B   7       7.398 -20.167  13.9520  0.00  0.00     0.000 HD
ATOM    104   O  NAG B   7       6.083 -21.015  14.3990  0.00  0.00     0.000 OA
ATOM    105   C  NAG B   7       7.258 -20.993  14.8130  0.00  0.00     0.000 C
ATOM    106   C  NAG B   7       7.602 -21.716  16.0700  0.00  0.00     0.000 C
ENDBRANCH 97 104
ATOM    107   O  NAG B   7      14.607 -19.315  13.7790  0.00  0.00     0.000 O
ATOM    109  HD  NAG B   7      13.828 -19.329  13.3990  0.00  0.00     0.000 HD
ATOM    109   O  NAG B   7      14.607 -19.315  13.7790  0.00  0.00     0.000 O
ATOM    111  HD  NAG B   7      13.828 -19.329  13.3990  0.00  0.00     0.000 HD
ENDBRANCH 95 98
ENDBRANCH 82 95
ENDBRANCH 81 85
ENDBRANCH 65 81
ENDBRANCH 64 67
ENDBRANCH 51 64
ENDBRANCH 50 54
ENDBRANCH 34 50
ENDBRANCH 33 36
ENDBRANCH 20 33
ENDBRANCH 19 23
ENDBRANCH 1 19
TORSDOF 19
ENDMDL
MODEL 45
REMARK VINA RESULT:      -6.6      9.166     16.880
ROOT
ATOM      1  C1  NAG B   1       8.432   3.554  20.9230  0.00  0.00     0.000 C
ATOM      2  C2  NAG B   1       8.551   3.768  22.4290  0.00  0.00     0.000 C
ATOM      3  C3  NAG B   1       9.238   5.077  22.7610  0.00  0.00     0.000 C
ATOM      4  C4  NAG B   1      10.598   5.009  22.0740  0.00  0.00     0.000 C
ATOM      5  C5  NAG B   1      10.392   4.929  20.5560  0.00  0.00     0.000 C
ATOM      6  O5  NAG B   1       9.655   3.741  20.1930  0.00  0.00     0.000 O
ATOM      7   O  NAG B   1       9.388   5.269  24.1860  0.00  0.00     0.000 O
ATOM      9  HD  NAG B   1       8.630   4.853  24.1320  0.00  0.00     0.000 HD
ATOM      9   O  NAG B   1      11.364   6.159  22.3940  0.00  0.00     0.000 O
ATOM     11  HD  NAG B   1      10.606   5.743  22.3410  0.00  0.00     0.000 HD
ATOM     11   C  NAG B   1      11.746   4.998  19.8400  0.00  0.00     0.000 C
ATOM     12   O  NAG B   1      11.710   4.301  18.5950  0.00  0.00     0.000 O
ATOM     14  HD  NAG B   1      10.952   3.886  18.5420  0.00  0.00     0.000 HD
ENDROOT
BRANCH 2 16
ATOM     14   N  NAG B   1       7.216   3.659  23.0440  0.00  0.00     0.000 N
ATOM     16  HD  NAG B   1       6.465   3.231  22.9900  0.00  0.00     0.000 HD
ATOM     16   C  NAG B   1       6.887   2.692  23.9190  0.00  0.00     0.000 C
ATOM     17   C  NAG B   1       7.897   1.639  24.2900  0.00  0.00     0.000 C
ATOM     18   O  NAG B   1       5.777   2.662  24.4500  0.00  0.00     0.000 OA
ENDBRANCH 2 16
BRANCH 1 19
ATOM     19  O4  BDP B   2       8.120   2.172  20.8160  0.00  0.00     0.000 O
BRANCH 19 23
ATOM     20  C1  BDP B   2       9.749  -1.087  18.8990  0.00  0.00     0.000 C
ATOM     21  C2  BDP B   2      10.563  -0.495  20.0310  0.00  0.00     0.000 C
ATOM     22  C3  BDP B   2       9.714   0.392  20.9120  0.00  0.00     0.000 C
ATOM     23  C4  BDP B   2       9.021   1.428  20.0310  0.00  0.00     0.000 C
ATOM     24  C5  BDP B   2       8.231   0.720  18.9470  0.00  0.00     0.000 C
ATOM     25  O5  BDP B   2       9.106  -0.061  18.1560  0.00  0.00     0.000 O
ATOM     26   O  BDP B   2      11.142  -1.522  20.8070  0.00  0.00     0.000 O
ATOM     28  HD  BDP B   2      10.864  -1.978  20.1250  0.00  0.00     0.000 HD
ATOM     28   O  BDP B   2      10.545   1.003  21.9110  0.00  0.00     0.000 O
ATOM     30  HD  BDP B   2      10.267   0.547  21.2290  0.00  0.00     0.000 HD
BRANCH 24 30
ATOM     30   C  BDP B   2       7.538   1.675  18.0430  0.00  0.00     0.000 C
ATOM     31   O  BDP B   2       8.236   2.563  17.5020  0.00  0.00     0.000 OA
ATOM     32   O  BDP B   2       6.292   1.547  17.8750  0.00  0.00     0.000 OA
ENDBRANCH 24 30
BRANCH 20 33
ATOM     33  O3  NAG B   3      10.706  -1.718  18.0840  0.00  0.00     0.000 O
BRANCH 33 36
ATOM     34  C1  NAG B   3       9.499  -4.364  15.6980  0.00  0.00     0.000 C
ATOM     35  C2  NAG B   3       9.915  -3.743  17.0180  0.00  0.00     0.000 C
ATOM     36  C3  NAG B   3      10.124  -2.227  16.8820  0.00  0.00     0.000 C
ATOM     37  C4  NAG B   3      11.073  -1.950  15.7180  0.00  0.00     0.000 C
ATOM     38  C5  NAG B   3      10.607  -2.690  14.4670  0.00  0.00     0.000 C
ATOM     39  O5  NAG B   3      10.505  -4.078  14.7370  0.00  0.00     0.000 O
ATOM     40   O  NAG B   3      11.122  -0.541  15.4490  0.00  0.00     0.000 O
ATOM     42  HD  NAG B   3      10.916  -0.811  14.6520  0.00  0.00     0.000 HD
ATOM     42   C  NAG B   3      11.569  -2.576  13.2880  0.00  0.00     0.000 C
ATOM     43   O  NAG B   3      12.799  -3.237  13.6070  0.00  0.00     0.000 O
ATOM     45  HD  NAG B   3      12.593  -3.507  12.8110  0.00  0.00     0.000 HD
BRANCH 35 47
ATOM     45   N  NAG B   3      10.181  -4.359  18.3120  0.00  0.00     0.000 N
ATOM     47  HD  NAG B   3      10.837  -3.865  18.0370  0.00  0.00     0.000 HD
ATOM     47   C  NAG B   3       9.255  -4.511  19.2380  0.00  0.00     0.000 C
ATOM     48   C  NAG B   3       9.701  -5.146  20.5210  0.00  0.00     0.000 C
ATOM     49   O  NAG B   3       8.098  -4.130  19.0700  0.00  0.00     0.000 OA
ENDBRANCH 35 47
BRANCH 34 50
ATOM     50  O4  BDP B   4       9.463  -5.748  15.9770  0.00  0.00     0.000 O
BRANCH 50 54
ATOM     51  C1  BDP B   4       7.293  -9.137  15.3820  0.00  0.00     0.000 C
ATOM     52  C2  BDP B   4       8.356  -8.873  14.3220  0.00  0.00     0.000 C
ATOM     53  C3  BDP B   4       9.307  -7.840  14.8430  0.00  0.00     0.000 C
ATOM     54  C4  BDP B   4       8.518  -6.569  15.2710  0.00  0.00     0.000 C
ATOM     55  C5  BDP B   4       7.338  -6.896  16.1740  0.00  0.00     0.000 C
ATOM     56  O5  BDP B   4       6.558  -7.949  15.6140  0.00  0.00     0.000 O
ATOM     57   O  BDP B   4       9.066 -10.059  14.0340  0.00  0.00     0.000 O
ATOM     59  HD  BDP B   4       8.743 -10.328  13.2770  0.00  0.00     0.000 HD
ATOM     59   O  BDP B   4      10.174  -7.478  13.7490  0.00  0.00     0.000 O
ATOM     61  HD  BDP B   4       9.851  -7.747  12.9910  0.00  0.00     0.000 HD
BRANCH 55 61
ATOM     61   C  BDP B   4       6.469  -5.661  16.3310  0.00  0.00     0.000 C
ATOM     62   O  BDP B   4       6.400  -4.861  15.3620  0.00  0.00     0.000 OA
ATOM     63   O  BDP B   4       5.853  -5.495  17.4280  0.00  0.00     0.000 OA
ENDBRANCH 55 61
BRANCH 51 64
ATOM     64  O3  NAG B   5       6.435 -10.179  14.8780  0.00  0.00     0.000 O
BRANCH 64 67
ATOM     65  C1  NAG B   5       5.489 -13.509  16.1460  0.00  0.00     0.000 C
ATOM     66  C2  NAG B   5       6.107 -12.470  15.2270  0.00  0.00     0.000 C
ATOM     67  C3  NAG B   5       6.044 -11.096  15.8810  0.00  0.00     0.000 C
ATOM     68  C4  NAG B   5       4.617 -10.770  16.3420  0.00  0.00     0.000 C
ATOM     69  C5  NAG B   5       4.050 -11.907  17.1780  0.00  0.00     0.000 C
ATOM     70  O5  NAG B   5       4.164 -13.144  16.4610  0.00  0.00     0.000 O
ATOM     71   O  NAG B   5       4.643  -9.562  17.0730  0.00  0.00     0.000 O
ATOM     73  HD  NAG B   5       3.923  -9.411  16.6170  0.00  0.00     0.000 HD
ATOM     73   C  NAG B   5       2.579 -11.724  17.5780  0.00  0.00     0.000 C
ATOM     74   O  NAG B   5       1.753 -11.721  16.3950  0.00  0.00     0.000 O
ATOM     76  HD  NAG B   5       1.033 -11.570  15.9390  0.00  0.00     0.000 HD
BRANCH 66 78
ATOM     76   N  NAG B   5       7.514 -12.825  14.9590  0.00  0.00     0.000 N
ATOM     78  HD  NAG B   5       6.766 -12.814  14.5230  0.00  0.00     0.000 HD
ATOM     78   C  NAG B   5       8.050 -13.073  13.7530  0.00  0.00     0.000 C
ATOM     79   C  NAG B   5       9.520 -13.390  13.8040  0.00  0.00     0.000 C
ATOM     80   O  NAG B   5       7.372 -13.050  12.6640  0.00  0.00     0.000 OA
ENDBRANCH 66 78
BRANCH 65 81
ATOM     81  O4  BDP B   6       5.503 -14.796  15.5150  0.00  0.00     0.000 O
BRANCH 81 85
ATOM     82  C1  BDP B   6       5.643 -18.945  16.5770  0.00  0.00     0.000 C
ATOM     83  C2  BDP B   6       4.719 -18.041  17.3870  0.00  0.00     0.000 C
ATOM     84  C3  BDP B   6       4.431 -16.708  16.6910  0.00  0.00     0.000 C
ATOM     85  C4  BDP B   6       5.716 -16.002  16.2530  0.00  0.00     0.000 C
ATOM     86  C5  BDP B   6       6.580 -17.024  15.4770  0.00  0.00     0.000 C
ATOM     87  O5  BDP B   6       6.831 -18.233  16.2620  0.00  0.00     0.000 O
ATOM     88   O  BDP B   6       3.505 -18.773  17.5350  0.00  0.00     0.000 O
ATOM     90  HD  BDP B   6       2.647 -18.656  17.5080  0.00  0.00     0.000 HD
ATOM     90   O  BDP B   6       3.656 -15.873  17.5550  0.00  0.00     0.000 O
ATOM     92  HD  BDP B   6       2.798 -15.756  17.5280  0.00  0.00     0.000 HD
BRANCH 86 92
ATOM     92   C  BDP B   6       7.959 -16.467  15.2220  0.00  0.00     0.000 C
ATOM     93   O  BDP B   6       8.510 -15.738  16.1020  0.00  0.00     0.000 OA
ATOM     94   O  BDP B   6       8.524 -16.778  14.1280  0.00  0.00     0.000 OA
ENDBRANCH 86 92
BRANCH 82 95
ATOM     95  O3  NAG B   7       6.007 -20.073  17.3970  0.00  0.00     0.000 O
BRANCH 95 98
ATOM     96  C1  NAG B   7       6.154 -23.690  16.9150  0.00  0.00     0.000 C
ATOM     97  C2  NAG B   7       5.786 -22.393  17.6220  0.00  0.00     0.000 C
ATOM     98  C3  NAG B   7       6.406 -21.290  16.7680  0.00  0.00     0.000 C
ATOM     99  C4  NAG B   7       7.920 -21.478  16.6970  0.00  0.00     0.000 C
ATOM    100  C5  NAG B   7       8.274 -22.885  16.2150  0.00  0.00     0.000 C
ATOM    101  O5  NAG B   7       7.576 -23.833  17.0090  0.00  0.00     0.000 O
BRANCH 97 104
ATOM    102   N  NAG B   7       4.350 -22.089  17.6850  0.00  0.00     0.000 N
ATOM    104  HD  NAG B   7       3.580 -21.710  17.5690  0.00  0.00     0.000 HD
ATOM    104   O  NAG B   7       2.382 -21.527  18.6570  0.00  0.00     0.000 OA
ATOM    105   C  NAG B   7       3.587 -21.830  18.7640  0.00  0.00     0.000 C
ATOM    106   C  NAG B   7       4.204 -21.893  20.1190  0.00  0.00     0.000 C
ENDBRANCH 97 104
ATOM    107   O  NAG B   7      10.051 -24.267  15.5540  0.00  0.00     0.000 O
ATOM    109  HD  NAG B   7       9.228 -24.048  15.3970  0.00  0.00     0.000 HD
ATOM    109   O  NAG B   7      10.051 -24.267  15.5540  0.00  0.00     0.000 O
ATOM    111  HD  NAG B   7       9.228 -24.048  15.3970  0.00  0.00     0.000 HD
ENDBRANCH 95 98
ENDBRANCH 82 95
ENDBRANCH 81 85
ENDBRANCH 65 81
ENDBRANCH 64 67
ENDBRANCH 51 64
ENDBRANCH 50 54
ENDBRANCH 34 50
ENDBRANCH 33 36
ENDBRANCH 20 33
ENDBRANCH 19 23
ENDBRANCH 1 19
TORSDOF 19
ENDMDL
MODEL 46
REMARK VINA RESULT:      -6.5      8.540     17.117
ROOT
ATOM      1  C1  NAG B   1      11.135   7.098  13.7830  0.00  0.00     0.000 C
ATOM      2  C2  NAG B   1      10.801   7.968  12.5750  0.00  0.00     0.000 C
ATOM      3  C3  NAG B   1      10.377   9.363  12.9840  0.00  0.00     0.000 C
ATOM      4  C4  NAG B   1       9.180   9.171  13.9110  0.00  0.00     0.000 C
ATOM      5  C5  NAG B   1       9.630   8.403  15.1600  0.00  0.00     0.000 C
ATOM      6  O5  NAG B   1      10.135   7.095  14.8140  0.00  0.00     0.000 O
ATOM      7   O  NAG B   1      10.021  10.181  11.8470  0.00  0.00     0.000 O
ATOM      9  HD  NAG B   1      10.664   9.694  11.5320  0.00  0.00     0.000 HD
ATOM      9   O  NAG B   1       8.646  10.429  14.2870  0.00  0.00     0.000 O
ATOM     11  HD  NAG B   1       9.289   9.942  13.9720  0.00  0.00     0.000 HD
ATOM     11   C  NAG B   1       8.475   8.318  16.1660  0.00  0.00     0.000 C
ATOM     12   O  NAG B   1       8.576   7.145  16.9720  0.00  0.00     0.000 O
ATOM     14  HD  NAG B   1       9.219   6.657  16.6580  0.00  0.00     0.000 HD
ENDROOT
BRANCH 2 16
ATOM     14   N  NAG B   1      11.830   8.178  11.5410  0.00  0.00     0.000 N
ATOM     16  HD  NAG B   1      12.578   7.864  11.2390  0.00  0.00     0.000 HD
ATOM     16   C  NAG B   1      11.889   7.461  10.4060  0.00  0.00     0.000 C
ATOM     17   C  NAG B   1      10.889   6.363  10.1580  0.00  0.00     0.000 C
ATOM     18   O  NAG B   1      12.733   7.699   9.5430  0.00  0.00     0.000 OA
ENDBRANCH 2 16
BRANCH 1 19
ATOM     19  O4  BDP B   2      11.143   5.783  13.2430  0.00  0.00     0.000 O
BRANCH 19 23
ATOM     20  C1  BDP B   2      12.926   2.234  14.3230  0.00  0.00     0.000 C
ATOM     21  C2  BDP B   2      11.549   2.497  14.8970  0.00  0.00     0.000 C
ATOM     22  C3  BDP B   2      10.833   3.583  14.1260  0.00  0.00     0.000 C
ATOM     23  C4  BDP B   2      11.735   4.813  14.0730  0.00  0.00     0.000 C
ATOM     24  C5  BDP B   2      13.074   4.431  13.4730  0.00  0.00     0.000 C
ATOM     25  O5  BDP B   2      13.684   3.434  14.2720  0.00  0.00     0.000 O
ATOM     26   O  BDP B   2      10.778   1.315  14.8810  0.00  0.00     0.000 O
ATOM     28  HD  BDP B   2      11.561   0.994  14.6980  0.00  0.00     0.000 HD
ATOM     28   O  BDP B   2       9.575   3.863  14.7610  0.00  0.00     0.000 O
ATOM     30  HD  BDP B   2      10.359   3.543  14.5780  0.00  0.00     0.000 HD
BRANCH 24 30
ATOM     30   C  BDP B   2      14.009   5.585  13.4030  0.00  0.00     0.000 C
ATOM     31   O  BDP B   2      14.262   6.050  12.2680  0.00  0.00     0.000 OA
ATOM     32   O  BDP B   2      14.500   6.027  14.4810  0.00  0.00     0.000 OA
ENDBRANCH 24 30
BRANCH 20 33
ATOM     33  O3  NAG B   3      13.517   1.353  15.2480  0.00  0.00     0.000 O
BRANCH 33 36
ATOM     34  C1  NAG B   3      15.641  -1.604  14.3020  0.00  0.00     0.000 C
ATOM     35  C2  NAG B   3      14.392  -0.833  14.6860  0.00  0.00     0.000 C
ATOM     36  C3  NAG B   3      14.649   0.681  14.6890  0.00  0.00     0.000 C
ATOM     37  C4  NAG B   3      15.875   0.984  15.5460  0.00  0.00     0.000 C
ATOM     38  C5  NAG B   3      17.044   0.095  15.1300  0.00  0.00     0.000 C
ATOM     39  O5  NAG B   3      16.670  -1.269  15.2220  0.00  0.00     0.000 O
ATOM     40   O  NAG B   3      16.249   2.363  15.3990  0.00  0.00     0.000 O
ATOM     42  HD  NAG B   3      17.012   2.007  15.1990  0.00  0.00     0.000 HD
ATOM     42   C  NAG B   3      18.276   0.238  16.0210  0.00  0.00     0.000 C
ATOM     43   O  NAG B   3      17.971  -0.234  17.3390  0.00  0.00     0.000 O
ATOM     45  HD  NAG B   3      18.735  -0.590  17.1380  0.00  0.00     0.000 HD
BRANCH 35 47
ATOM     45   N  NAG B   3      13.128  -1.468  15.0370  0.00  0.00     0.000 N
ATOM     47  HD  NAG B   3      13.492  -1.057  15.7070  0.00  0.00     0.000 HD
ATOM     47   C  NAG B   3      12.092  -1.503  14.2210  0.00  0.00     0.000 C
ATOM     48   C  NAG B   3      10.860  -2.178  14.7470  0.00  0.00     0.000 C
ATOM     49   O  NAG B   3      12.125  -0.989  13.1050  0.00  0.00     0.000 OA
ENDBRANCH 35 47
BRANCH 34 50
ATOM     50  O4  BDP B   4      15.261  -2.955  14.4590  0.00  0.00     0.000 O
BRANCH 50 54
ATOM     51  C1  BDP B   4      15.827  -6.744  13.0880  0.00  0.00     0.000 C
ATOM     52  C2  BDP B   4      17.046  -6.128  13.7640  0.00  0.00     0.000 C
ATOM     53  C3  BDP B   4      16.608  -4.922  14.5360  0.00  0.00     0.000 C
ATOM     54  C4  BDP B   4      15.851  -3.941  13.5950  0.00  0.00     0.000 C
ATOM     55  C5  BDP B   4      14.766  -4.638  12.7850  0.00  0.00     0.000 C
ATOM     56  O5  BDP B   4      15.282  -5.814  12.1690  0.00  0.00     0.000 O
ATOM     57   O  BDP B   4      17.640  -7.057  14.6450  0.00  0.00     0.000 O
ATOM     59  HD  BDP B   4      18.339  -7.344  14.2210  0.00  0.00     0.000 HD
ATOM     59   O  BDP B   4      17.805  -4.261  14.9970  0.00  0.00     0.000 O
ATOM     61  HD  BDP B   4      18.503  -4.547  14.5730  0.00  0.00     0.000 HD
BRANCH 55 61
ATOM     61   C  BDP B   4      14.258  -3.693  11.7110  0.00  0.00     0.000 C
ATOM     62   O  BDP B   4      15.101  -2.991  11.0950  0.00  0.00     0.000 OA
ATOM     63   O  BDP B   4      13.010  -3.657  11.4840  0.00  0.00     0.000 OA
ENDBRANCH 55 61
BRANCH 51 64
ATOM     64  O3  NAG B   5      16.270  -7.934  12.4080  0.00  0.00     0.000 O
BRANCH 64 67
ATOM     65  C1  NAG B   5      13.919 -10.771  12.2840  0.00  0.00     0.000 C
ATOM     66  C2  NAG B   5      14.900  -9.774  12.8750  0.00  0.00     0.000 C
ATOM     67  C3  NAG B   5      15.200  -8.678  11.8600  0.00  0.00     0.000 C
ATOM     68  C4  NAG B   5      15.632  -9.277  10.5140  0.00  0.00     0.000 C
ATOM     69  C5  NAG B   5      14.637 -10.329  10.0500  0.00  0.00     0.000 C
ATOM     70  O5  NAG B   5      14.436 -11.302  11.0850  0.00  0.00     0.000 O
ATOM     71   O  NAG B   5      15.749  -8.233   9.5710  0.00  0.00     0.000 O
ATOM     73  HD  NAG B   5      16.462  -8.673   9.3520  0.00  0.00     0.000 HD
ATOM     73   C  NAG B   5      15.053 -11.074   8.7740  0.00  0.00     0.000 C
ATOM     74   O  NAG B   5      16.259 -11.827   9.0240  0.00  0.00     0.000 O
ATOM     76  HD  NAG B   5      16.971 -12.267   8.8050  0.00  0.00     0.000 HD
BRANCH 66 78
ATOM     76   N  NAG B   5      14.234  -9.427  14.1450  0.00  0.00     0.000 N
ATOM     78  HD  NAG B   5      15.020  -9.684  13.8870  0.00  0.00     0.000 HD
ATOM     78   C  NAG B   5      14.841  -9.233  15.3270  0.00  0.00     0.000 C
ATOM     79   C  NAG B   5      13.891  -8.872  16.4360  0.00  0.00     0.000 C
ATOM     80   O  NAG B   5      16.107  -9.353  15.4950  0.00  0.00     0.000 OA
ENDBRANCH 66 78
BRANCH 65 81
ATOM     81  O4  BDP B   6      13.669 -11.829  13.2180  0.00  0.00     0.000 O
BRANCH 81 85
ATOM     82  C1  BDP B   6      10.623 -14.740  14.0020  0.00  0.00     0.000 C
ATOM     83  C2  BDP B   6      11.834 -15.188  13.1870  0.00  0.00     0.000 C
ATOM     84  C3  BDP B   6      13.021 -14.229  13.3110  0.00  0.00     0.000 C
ATOM     85  C4  BDP B   6      12.619 -12.780  13.0270  0.00  0.00     0.000 C
ATOM     86  C5  BDP B   6      11.368 -12.458  13.8790  0.00  0.00     0.000 C
ATOM     87  O5  BDP B   6      10.283 -13.410  13.6370  0.00  0.00     0.000 O
ATOM     88   O  BDP B   6      12.194 -16.463  13.7110  0.00  0.00     0.000 O
ATOM     90  HD  BDP B   6      12.896 -16.921  13.9300  0.00  0.00     0.000 HD
ATOM     90   O  BDP B   6      14.071 -14.650  12.4360  0.00  0.00     0.000 O
ATOM     92  HD  BDP B   6      14.773 -15.108  12.6550  0.00  0.00     0.000 HD
BRANCH 86 92
ATOM     92   C  BDP B   6      10.778 -11.129  13.4720  0.00  0.00     0.000 C
ATOM     93   O  BDP B   6      10.023 -11.067  12.4550  0.00  0.00     0.000 OA
ATOM     94   O  BDP B   6      11.053 -10.121  14.1940  0.00  0.00     0.000 OA
ENDBRANCH 86 92
BRANCH 82 95
ATOM     95  O3  NAG B   7       9.510 -15.590  13.6630  0.00  0.00     0.000 O
BRANCH 95 98
ATOM     96  C1  NAG B   7       6.671 -16.749  15.6480  0.00  0.00     0.000 C
ATOM     97  C2  NAG B   7       7.935 -16.890  14.8100  0.00  0.00     0.000 C
ATOM     98  C3  NAG B   7       8.291 -15.464  14.3950  0.00  0.00     0.000 C
ATOM     99  C4  NAG B   7       7.148 -14.858  13.5850  0.00  0.00     0.000 C
ATOM    100  C5  NAG B   7       5.827 -14.951  14.3500  0.00  0.00     0.000 C
ATOM    101  O5  NAG B   7       5.634 -16.292  14.7730  0.00  0.00     0.000 O
BRANCH 97 104
ATOM    102   N  NAG B   7       9.121 -17.753  14.8980  0.00  0.00     0.000 N
ATOM    104  HD  NAG B   7       9.640 -18.446  14.8980  0.00  0.00     0.000 HD
ATOM    104   O  NAG B   7      10.900 -18.750  15.8830  0.00  0.00     0.000 OA
ATOM    105   C  NAG B   7       9.961 -17.931  15.9350  0.00  0.00     0.000 C
ATOM    106   C  NAG B   7       9.752 -17.140  17.1810  0.00  0.00     0.000 C
ENDBRANCH 97 104
ATOM    107   O  NAG B   7       3.574 -14.297  14.3220  0.00  0.00     0.000 O
ATOM    109  HD  NAG B   7       4.270 -14.419  14.8230  0.00  0.00     0.000 HD
ATOM    109   O  NAG B   7       3.574 -14.297  14.3220  0.00  0.00     0.000 O
ATOM    111  HD  NAG B   7       4.270 -14.419  14.8230  0.00  0.00     0.000 HD
ENDBRANCH 95 98
ENDBRANCH 82 95
ENDBRANCH 81 85
ENDBRANCH 65 81
ENDBRANCH 64 67
ENDBRANCH 51 64
ENDBRANCH 50 54
ENDBRANCH 34 50
ENDBRANCH 33 36
ENDBRANCH 20 33
ENDBRANCH 19 23
ENDBRANCH 1 19
TORSDOF 19
ENDMDL
MODEL 47
REMARK VINA RESULT:      -6.5      5.170     17.984
ROOT
ATOM      1  C1  NAG B   1      14.417 -14.309  -4.6010  0.00  0.00     0.000 C
ATOM      2  C2  NAG B   1      13.790 -15.343  -5.5310  0.00  0.00     0.000 C
ATOM      3  C3  NAG B   1      13.745 -14.859  -6.9660  0.00  0.00     0.000 C
ATOM      4  C4  NAG B   1      12.956 -13.554  -6.9320  0.00  0.00     0.000 C
ATOM      5  C5  NAG B   1      13.719 -12.527  -6.0860  0.00  0.00     0.000 C
ATOM      6  O5  NAG B   1      13.874 -12.985  -4.7250  0.00  0.00     0.000 O
ATOM      7   O  NAG B   1      13.117 -15.819  -7.8460  0.00  0.00     0.000 O
ATOM      9  HD  NAG B   1      13.525 -16.328  -7.2760  0.00  0.00     0.000 HD
ATOM      9   O  NAG B   1      12.780 -13.057  -8.2480  0.00  0.00     0.000 O
ATOM     11  HD  NAG B   1      13.188 -13.565  -7.6780  0.00  0.00     0.000 HD
ATOM     11   C  NAG B   1      13.013 -11.167  -6.1510  0.00  0.00     0.000 C
ATOM     12   O  NAG B   1      13.236 -10.411  -4.9620  0.00  0.00     0.000 O
ATOM     14  HD  NAG B   1      13.644 -10.919  -4.3930  0.00  0.00     0.000 HD
ENDROOT
BRANCH 2 16
ATOM     14   N  NAG B   1      14.530 -16.572  -5.1910  0.00  0.00     0.000 N
ATOM     16  HD  NAG B   1      14.779 -17.064  -4.5240  0.00  0.00     0.000 HD
ATOM     16   C  NAG B   1      13.926 -17.739  -4.9090  0.00  0.00     0.000 C
ATOM     17   C  NAG B   1      12.423 -17.826  -4.9040  0.00  0.00     0.000 C
ATOM     18   O  NAG B   1      14.579 -18.757  -4.6790  0.00  0.00     0.000 OA
ENDBRANCH 2 16
BRANCH 1 19
ATOM     19  O4  BDP B   2      14.042 -14.765  -3.3080  0.00  0.00     0.000 O
BRANCH 19 23
ATOM     20  C1  BDP B   2      11.914 -13.221  -0.1420  0.00  0.00     0.000 C
ATOM     21  C2  BDP B   2      11.103 -13.694  -1.3310  0.00  0.00     0.000 C
ATOM     22  C3  BDP B   2      11.918 -14.602  -2.2230  0.00  0.00     0.000 C
ATOM     23  C4  BDP B   2      13.212 -13.882  -2.5930  0.00  0.00     0.000 C
ATOM     24  C5  BDP B   2      13.939 -13.469  -1.3290  0.00  0.00     0.000 C
ATOM     25  O5  BDP B   2      13.117 -12.601  -0.5720  0.00  0.00     0.000 O
ATOM     26   O  BDP B   2       9.944 -14.370  -0.8950  0.00  0.00     0.000 O
ATOM     28  HD  BDP B   2      10.210 -14.018  -0.1500  0.00  0.00     0.000 HD
ATOM     28   O  BDP B   2      11.143 -14.948  -3.3810  0.00  0.00     0.000 O
ATOM     30  HD  BDP B   2      11.409 -14.595  -2.6360  0.00  0.00     0.000 HD
BRANCH 24 30
ATOM     30   C  BDP B   2      15.207 -12.750  -1.6190  0.00  0.00     0.000 C
ATOM     31   O  BDP B   2      15.117 -11.625  -2.1620  0.00  0.00     0.000 OA
ATOM     32   O  BDP B   2      16.299 -13.308  -1.3130  0.00  0.00     0.000 OA
ENDBRANCH 24 30
BRANCH 20 33
ATOM     33  O3  NAG B   3      11.091 -12.259   0.4700  0.00  0.00     0.000 O
BRANCH 33 36
ATOM     34  C1  NAG B   3      11.604 -11.190   4.0410  0.00  0.00     0.000 C
ATOM     35  C2  NAG B   3      11.077 -12.011   2.8790  0.00  0.00     0.000 C
ATOM     36  C3  NAG B   3      11.754 -11.611   1.5590  0.00  0.00     0.000 C
ATOM     37  C4  NAG B   3      11.646 -10.099   1.3740  0.00  0.00     0.000 C
ATOM     38  C5  NAG B   3      12.122  -9.377   2.6310  0.00  0.00     0.000 C
ATOM     39  O5  NAG B   3      11.377  -9.818   3.7540  0.00  0.00     0.000 O
ATOM     40   O  NAG B   3      12.443  -9.684   0.2540  0.00  0.00     0.000 O
ATOM     42  HD  NAG B   3      12.780  -9.153   0.8490  0.00  0.00     0.000 HD
ATOM     42   C  NAG B   3      11.928  -7.863   2.5850  0.00  0.00     0.000 C
ATOM     43   O  NAG B   3      10.528  -7.561   2.5560  0.00  0.00     0.000 O
ATOM     45  HD  NAG B   3      10.865  -7.030   3.1510  0.00  0.00     0.000 HD
BRANCH 35 47
ATOM     45   N  NAG B   3      10.037 -13.031   2.8460  0.00  0.00     0.000 N
ATOM     47  HD  NAG B   3       9.897 -12.394   2.2760  0.00  0.00     0.000 HD
ATOM     47   C  NAG B   3      10.288 -14.317   2.9920  0.00  0.00     0.000 C
ATOM     48   C  NAG B   3       9.105 -15.235   2.9110  0.00  0.00     0.000 C
ATOM     49   O  NAG B   3      11.429 -14.743   3.1580  0.00  0.00     0.000 OA
ENDBRANCH 35 47
BRANCH 34 50
ATOM     50  O4  BDP B   4      10.807 -11.603   5.1310  0.00  0.00     0.000 O
BRANCH 50 54
ATOM     51  C1  BDP B   4      10.401 -11.495   9.1770  0.00  0.00     0.000 C
ATOM     52  C2  BDP B   4      10.244 -10.143   8.4900  0.00  0.00     0.000 C
ATOM     53  C3  BDP B   4      10.041 -10.372   7.0240  0.00  0.00     0.000 C
ATOM     54  C4  BDP B   4      11.209 -11.230   6.4590  0.00  0.00     0.000 C
ATOM     55  C5  BDP B   4      11.467 -12.478   7.2930  0.00  0.00     0.000 C
ATOM     56  O5  BDP B   4      11.556 -12.143   8.6750  0.00  0.00     0.000 O
ATOM     57   O  BDP B   4       9.129  -9.453   9.0150  0.00  0.00     0.000 O
ATOM     59  HD  BDP B   4       9.470  -8.858   9.5430  0.00  0.00     0.000 HD
ATOM     59   O  BDP B   4      10.091  -9.079   6.3860  0.00  0.00     0.000 O
ATOM     61  HD  BDP B   4      10.432  -8.483   6.9140  0.00  0.00     0.000 HD
BRANCH 55 61
ATOM     61   C  BDP B   4      12.770 -13.116   6.8500  0.00  0.00     0.000 C
ATOM     62   O  BDP B   4      13.833 -12.461   7.0070  0.00  0.00     0.000 OA
ATOM     63   O  BDP B   4      12.728 -14.279   6.3440  0.00  0.00     0.000 OA
ENDBRANCH 55 61
BRANCH 51 64
ATOM     64  O3  NAG B   5      10.529 -11.243  10.5900  0.00  0.00     0.000 O
BRANCH 64 67
ATOM     65  C1  NAG B   5       8.742 -12.991  13.3000  0.00  0.00     0.000 C
ATOM     66  C2  NAG B   5       9.033 -11.929  12.2540  0.00  0.00     0.000 C
ATOM     67  C3  NAG B   5      10.196 -12.371  11.3760  0.00  0.00     0.000 C
ATOM     68  C4  NAG B   5      11.407 -12.775  12.2280  0.00  0.00     0.000 C
ATOM     69  C5  NAG B   5      11.000 -13.769  13.3040  0.00  0.00     0.000 C
ATOM     70  O5  NAG B   5       9.900 -13.245  14.0620  0.00  0.00     0.000 O
ATOM     71   O  NAG B   5      12.396 -13.318  11.3790  0.00  0.00     0.000 O
ATOM     73  HD  NAG B   5      12.917 -12.842  11.8820  0.00  0.00     0.000 HD
ATOM     73   C  NAG B   5      12.122 -14.134  14.2860  0.00  0.00     0.000 C
ATOM     74   O  NAG B   5      12.513 -12.962  15.0300  0.00  0.00     0.000 O
ATOM     76  HD  NAG B   5      13.034 -12.486  15.5330  0.00  0.00     0.000 HD
BRANCH 66 78
ATOM     76   N  NAG B   5       7.780 -11.738  11.4990  0.00  0.00     0.000 N
ATOM     78  HD  NAG B   5       8.290 -11.267  12.0160  0.00  0.00     0.000 HD
ATOM     78   C  NAG B   5       7.165 -10.567  11.2730  0.00  0.00     0.000 C
ATOM     79   C  NAG B   5       5.911 -10.696  10.4510  0.00  0.00     0.000 C
ATOM     80   O  NAG B   5       7.599  -9.447  11.7230  0.00  0.00     0.000 OA
ENDBRANCH 66 78
BRANCH 65 81
ATOM     81  O4  BDP B   6       7.679 -12.560  14.1590  0.00  0.00     0.000 O
BRANCH 81 85
ATOM     82  C1  BDP B   6       4.794 -14.169  16.8890  0.00  0.00     0.000 C
ATOM     83  C2  BDP B   6       6.242 -14.083  17.3620  0.00  0.00     0.000 C
ATOM     84  C3  BDP B   6       7.094 -13.143  16.5050  0.00  0.00     0.000 C
ATOM     85  C4  BDP B   6       6.977 -13.465  15.0140  0.00  0.00     0.000 C
ATOM     86  C5  BDP B   6       5.472 -13.560  14.6650  0.00  0.00     0.000 C
ATOM     87  O5  BDP B   6       4.775 -14.527  15.5140  0.00  0.00     0.000 O
ATOM     88   O  BDP B   6       6.177 -13.584  18.6960  0.00  0.00     0.000 O
ATOM     90  HD  BDP B   6       6.578 -13.022  19.2180  0.00  0.00     0.000 HD
ATOM     90   O  BDP B   6       8.456 -13.202  16.9360  0.00  0.00     0.000 O
ATOM     92  HD  BDP B   6       8.857 -12.640  17.4590  0.00  0.00     0.000 HD
BRANCH 86 92
ATOM     92   C  BDP B   6       5.286 -14.107  13.2700  0.00  0.00     0.000 C
ATOM     93   O  BDP B   6       5.523 -15.331  13.0430  0.00  0.00     0.000 OA
ATOM     94   O  BDP B   6       4.870 -13.305  12.3770  0.00  0.00     0.000 OA
ENDBRANCH 86 92
BRANCH 82 95
ATOM     95  O3  NAG B   7       4.137 -15.217  17.6280  0.00  0.00     0.000 O
BRANCH 95 98
ATOM     96  C1  NAG B   7       1.102 -15.442  19.6480  0.00  0.00     0.000 C
ATOM     97  C2  NAG B   7       2.580 -15.625  19.3290  0.00  0.00     0.000 C
ATOM     98  C3  NAG B   7       2.741 -15.104  17.9030  0.00  0.00     0.000 C
ATOM     99  C4  NAG B   7       1.860 -15.911  16.9520  0.00  0.00     0.000 C
ATOM    100  C5  NAG B   7       0.407 -15.921  17.4300  0.00  0.00     0.000 C
ATOM    101  O5  NAG B   7       0.373 -16.327  18.7900  0.00  0.00     0.000 O
BRANCH 97 104
ATOM    102   N  NAG B   7       3.671 -14.877  19.9680  0.00  0.00     0.000 N
ATOM    104  HD  NAG B   7       4.429 -14.484  20.1130  0.00  0.00     0.000 HD
ATOM    104   O  NAG B   7       5.295 -14.461  21.4920  0.00  0.00     0.000 OA
ATOM    105   C  NAG B   7       4.343 -15.164  21.1000  0.00  0.00     0.000 C
ATOM    106   C  NAG B   7       3.946 -16.361  21.8940  0.00  0.00     0.000 C
ENDBRANCH 97 104
ATOM    107   O  NAG B   7      -1.771 -16.568  16.8470  0.00  0.00     0.000 O
ATOM    109  HD  NAG B   7      -1.291 -15.952  17.2210  0.00  0.00     0.000 HD
ATOM    109   O  NAG B   7      -1.771 -16.568  16.8470  0.00  0.00     0.000 O
ATOM    111  HD  NAG B   7      -1.291 -15.952  17.2210  0.00  0.00     0.000 HD
ENDBRANCH 95 98
ENDBRANCH 82 95
ENDBRANCH 81 85
ENDBRANCH 65 81
ENDBRANCH 64 67
ENDBRANCH 51 64
ENDBRANCH 50 54
ENDBRANCH 34 50
ENDBRANCH 33 36
ENDBRANCH 20 33
ENDBRANCH 19 23
ENDBRANCH 1 19
TORSDOF 19
ENDMDL
MODEL 48
REMARK VINA RESULT:      -6.4      8.427     17.040
ROOT
ATOM      1  C1  NAG B   1      10.661   6.031  15.4560  0.00  0.00     0.000 C
ATOM      2  C2  NAG B   1      10.437   6.964  14.2700  0.00  0.00     0.000 C
ATOM      3  C3  NAG B   1      10.194   8.392  14.7130  0.00  0.00     0.000 C
ATOM      4  C4  NAG B   1       8.985   8.332  15.6410  0.00  0.00     0.000 C
ATOM      5  C5  NAG B   1       9.338   7.485  16.8710  0.00  0.00     0.000 C
ATOM      6  O5  NAG B   1       9.672   6.132  16.4930  0.00  0.00     0.000 O
ATOM      7   O  NAG B   1       9.942   9.275  13.5950  0.00  0.00     0.000 O
ATOM      9  HD  NAG B   1      10.517   8.717  13.2670  0.00  0.00     0.000 HD
ATOM      9   O  NAG B   1       8.617   9.639  16.0480  0.00  0.00     0.000 O
ATOM     11  HD  NAG B   1       9.192   9.081  15.7190  0.00  0.00     0.000 HD
ATOM     11   C  NAG B   1       8.185   7.523  17.8810  0.00  0.00     0.000 C
ATOM     12   O  NAG B   1       8.138   6.329  18.6600  0.00  0.00     0.000 O
ATOM     14  HD  NAG B   1       8.713   5.771  18.3310  0.00  0.00     0.000 HD
ENDROOT
BRANCH 2 16
ATOM     14   N  NAG B   1      11.538   6.476  13.4210  0.00  0.00     0.000 N
ATOM     16  HD  NAG B   1      11.825   5.778  12.9970  0.00  0.00     0.000 HD
ATOM     16   C  NAG B   1      11.445   6.373  12.0840  0.00  0.00     0.000 C
ATOM     17   C  NAG B   1      10.160   6.738  11.3890  0.00  0.00     0.000 C
ATOM     18   O  NAG B   1      12.404   6.008  11.4030  0.00  0.00     0.000 OA
ENDBRANCH 2 16
BRANCH 1 19
ATOM     19  O4  BDP B   2      10.501   4.739  14.8870  0.00  0.00     0.000 O
BRANCH 19 23
ATOM     20  C1  BDP B   2      11.388   0.883  16.0230  0.00  0.00     0.000 C
ATOM     21  C2  BDP B   2      10.231   1.547  16.7400  0.00  0.00     0.000 C
ATOM     22  C3  BDP B   2       9.735   2.755  15.9790  0.00  0.00     0.000 C
ATOM     23  C4  BDP B   2      10.920   3.679  15.7140  0.00  0.00     0.000 C
ATOM     24  C5  BDP B   2      12.005   2.911  14.9850  0.00  0.00     0.000 C
ATOM     25  O5  BDP B   2      12.428   1.820  15.7800  0.00  0.00     0.000 O
ATOM     26   O  BDP B   2       9.174   0.629  16.9170  0.00  0.00     0.000 O
ATOM     28  HD  BDP B   2       9.806   0.094  16.6650  0.00  0.00     0.000 HD
ATOM     28   O  BDP B   2       8.704   3.404  16.7400  0.00  0.00     0.000 O
ATOM     30  HD  BDP B   2       9.336   2.869  16.4880  0.00  0.00     0.000 HD
BRANCH 24 30
ATOM     30   C  BDP B   2      13.198   3.753  14.7040  0.00  0.00     0.000 C
ATOM     31   O  BDP B   2      13.800   4.241  15.6880  0.00  0.00     0.000 OA
ATOM     32   O  BDP B   2      13.533   3.938  13.5000  0.00  0.00     0.000 OA
ENDBRANCH 24 30
BRANCH 20 33
ATOM     33  O3  NAG B   3      11.843  -0.086  16.9360  0.00  0.00     0.000 O
BRANCH 33 36
ATOM     34  C1  NAG B   3      12.930  -3.513  15.8280  0.00  0.00     0.000 C
ATOM     35  C2  NAG B   3      11.991  -2.415  16.2920  0.00  0.00     0.000 C
ATOM     36  C3  NAG B   3      12.692  -1.048  16.3060  0.00  0.00     0.000 C
ATOM     37  C4  NAG B   3      13.992  -1.155  17.0990  0.00  0.00     0.000 C
ATOM     38  C5  NAG B   3      14.817  -2.341  16.6060  0.00  0.00     0.000 C
ATOM     39  O5  NAG B   3      14.054  -3.532  16.6950  0.00  0.00     0.000 O
ATOM     40   O  NAG B   3      14.757   0.052  16.9540  0.00  0.00     0.000 O
ATOM     42  HD  NAG B   3      15.367  -0.511  16.7060  0.00  0.00     0.000 HD
ATOM     42   C  NAG B   3      16.076  -2.603  17.4300  0.00  0.00     0.000 C
ATOM     43   O  NAG B   3      15.706  -3.003  18.7550  0.00  0.00     0.000 O
ATOM     45  HD  NAG B   3      16.316  -3.566  18.5070  0.00  0.00     0.000 HD
BRANCH 35 47
ATOM     45   N  NAG B   3      10.614  -2.697  16.6780  0.00  0.00     0.000 N
ATOM     47  HD  NAG B   3      11.113  -2.481  17.3530  0.00  0.00     0.000 HD
ATOM     47   C  NAG B   3       9.577  -2.348  15.9430  0.00  0.00     0.000 C
ATOM     48   C  NAG B   3       8.227  -2.696  16.4970  0.00  0.00     0.000 C
ATOM     49   O  NAG B   3       9.706  -1.749  14.8780  0.00  0.00     0.000 OA
ENDBRANCH 35 47
BRANCH 34 50
ATOM     50  O4  BDP B   4      12.168  -4.692  15.9830  0.00  0.00     0.000 O
BRANCH 50 54
ATOM     51  C1  BDP B   4      11.794  -8.575  14.8290  0.00  0.00     0.000 C
ATOM     52  C2  BDP B   4      12.961  -8.306  15.7720  0.00  0.00     0.000 C
ATOM     53  C3  BDP B   4      12.766  -6.962  16.4040  0.00  0.00     0.000 C
ATOM     54  C4  BDP B   4      12.592  -5.882  15.2970  0.00  0.00     0.000 C
ATOM     55  C5  BDP B   4      11.554  -6.280  14.2580  0.00  0.00     0.000 C
ATOM     56  O5  BDP B   4      11.795  -7.606  13.7960  0.00  0.00     0.000 O
ATOM     57   O  BDP B   4      13.014  -9.293  16.7800  0.00  0.00     0.000 O
ATOM     59  HD  BDP B   4      13.661  -9.815  16.5400  0.00  0.00     0.000 HD
ATOM     59   O  BDP B   4      13.975  -6.661  17.1320  0.00  0.00     0.000 O
ATOM     61  HD  BDP B   4      14.622  -7.184  16.8920  0.00  0.00     0.000 HD
BRANCH 55 61
ATOM     61   C  BDP B   4      11.628  -5.321  13.0830  0.00  0.00     0.000 C
ATOM     62   O  BDP B   4      11.390  -4.104  13.2980  0.00  0.00     0.000 OA
ATOM     63   O  BDP B   4      11.929  -5.790  11.9430  0.00  0.00     0.000 OA
ENDBRANCH 55 61
BRANCH 51 64
ATOM     64  O3  NAG B   5      11.977  -9.898  14.2890  0.00  0.00     0.000 O
BRANCH 64 67
ATOM     65  C1  NAG B   5       9.235 -12.348  14.0290  0.00  0.00     0.000 C
ATOM     66  C2  NAG B   5      10.372 -11.561  14.6570  0.00  0.00     0.000 C
ATOM     67  C3  NAG B   5      10.791 -10.427  13.7300  0.00  0.00     0.000 C
ATOM     68  C4  NAG B   5      11.080 -10.949  12.3160  0.00  0.00     0.000 C
ATOM     69  C5  NAG B   5       9.926 -11.800  11.8110  0.00  0.00     0.000 C
ATOM     70  O5  NAG B   5       9.624 -12.830  12.7640  0.00  0.00     0.000 O
ATOM     71   O  NAG B   5      11.313  -9.846  11.4660  0.00  0.00     0.000 O
ATOM     73  HD  NAG B   5      11.945 -10.360  11.1730  0.00  0.00     0.000 HD
ATOM     73   C  NAG B   5      10.182 -12.471  10.4530  0.00  0.00     0.000 C
ATOM     74   O  NAG B   5      11.273 -13.407  10.5740  0.00  0.00     0.000 O
ATOM     76  HD  NAG B   5      11.906 -13.920  10.2810  0.00  0.00     0.000 HD
BRANCH 66 78
ATOM     76   N  NAG B   5       9.862 -11.111  15.9660  0.00  0.00     0.000 N
ATOM     78  HD  NAG B   5      10.504 -11.611  15.6710  0.00  0.00     0.000 HD
ATOM     78   C  NAG B   5      10.483 -11.255  17.1470  0.00  0.00     0.000 C
ATOM     79   C  NAG B   5       9.715 -10.675  18.3040  0.00  0.00     0.000 C
ATOM     80   O  NAG B   5      11.617 -11.839  17.2780  0.00  0.00     0.000 OA
ENDBRANCH 66 78
BRANCH 65 81
ATOM     81  O4  BDP B   6       8.868 -13.445  14.8760  0.00  0.00     0.000 O
BRANCH 81 85
ATOM     82  C1  BDP B   6       5.220 -15.211  16.2680  0.00  0.00     0.000 C
ATOM     83  C2  BDP B   6       6.025 -15.983  15.2260  0.00  0.00     0.000 C
ATOM     84  C3  BDP B   6       7.469 -15.489  15.1040  0.00  0.00     0.000 C
ATOM     85  C4  BDP B   6       7.540 -13.974  14.9040  0.00  0.00     0.000 C
ATOM     86  C5  BDP B   6       6.663 -13.308  15.9920  0.00  0.00     0.000 C
ATOM     87  O5  BDP B   6       5.292 -13.822  15.9770  0.00  0.00     0.000 O
ATOM     88   O  BDP B   6       6.020 -17.337  15.6690  0.00  0.00     0.000 O
ATOM     90  HD  BDP B   6       6.551 -18.018  15.7410  0.00  0.00     0.000 HD
ATOM     90   O  BDP B   6       8.122 -16.178  14.0350  0.00  0.00     0.000 O
ATOM     92  HD  BDP B   6       8.653 -16.858  14.1080  0.00  0.00     0.000 HD
BRANCH 86 92
ATOM     92   C  BDP B   6       6.497 -11.835  15.7100  0.00  0.00     0.000 C
ATOM     93   O  BDP B   6       6.890 -10.987  16.5680  0.00  0.00     0.000 OA
ATOM     94   O  BDP B   6       5.983 -11.505  14.5970  0.00  0.00     0.000 OA
ENDBRANCH 86 92
BRANCH 82 95
ATOM     95  O3  NAG B   7       3.840 -15.613  16.1650  0.00  0.00     0.000 O
BRANCH 95 98
ATOM     96  C1  NAG B   7       1.187 -15.794  18.6690  0.00  0.00     0.000 C
ATOM     97  C2  NAG B   7       2.150 -16.331  17.6190  0.00  0.00     0.000 C
ATOM     98  C3  NAG B   7       2.895 -15.101  17.1030  0.00  0.00     0.000 C
ATOM     99  C4  NAG B   7       1.903 -14.110  16.4990  0.00  0.00     0.000 C
ATOM    100  C5  NAG B   7       0.794 -13.770  17.4950  0.00  0.00     0.000 C
ATOM    101  O5  NAG B   7       0.231 -14.976  17.9860  0.00  0.00     0.000 O
BRANCH 97 104
ATOM    102   N  NAG B   7       2.985 -17.534  17.5020  0.00  0.00     0.000 N
ATOM    104  HD  NAG B   7       3.241 -18.355  17.3990  0.00  0.00     0.000 HD
ATOM    104   O  NAG B   7       4.434 -19.135  18.1850  0.00  0.00     0.000 OA
ATOM    105   C  NAG B   7       3.831 -18.066  18.4040  0.00  0.00     0.000 C
ATOM    106   C  NAG B   7       4.040 -17.365  19.7030  0.00  0.00     0.000 C
ENDBRANCH 97 104
ATOM    107   O  NAG B   7      -1.059 -12.379  17.8600  0.00  0.00     0.000 O
ATOM    109  HD  NAG B   7      -0.370 -12.751  18.2290  0.00  0.00     0.000 HD
ATOM    109   O  NAG B   7      -1.059 -12.379  17.8600  0.00  0.00     0.000 O
ATOM    111  HD  NAG B   7      -0.370 -12.751  18.2290  0.00  0.00     0.000 HD
ENDBRANCH 95 98
ENDBRANCH 82 95
ENDBRANCH 81 85
ENDBRANCH 65 81
ENDBRANCH 64 67
ENDBRANCH 51 64
ENDBRANCH 50 54
ENDBRANCH 34 50
ENDBRANCH 33 36
ENDBRANCH 20 33
ENDBRANCH 19 23
ENDBRANCH 1 19
TORSDOF 19
ENDMDL
MODEL 49
REMARK VINA RESULT:      -6.4      8.197     16.940
ROOT
ATOM      1  C1  NAG B   1      10.629   6.323  14.4360  0.00  0.00     0.000 C
ATOM      2  C2  NAG B   1      10.063   7.249  13.3630  0.00  0.00     0.000 C
ATOM      3  C3  NAG B   1       9.780   8.635  13.9050  0.00  0.00     0.000 C
ATOM      4  C4  NAG B   1       8.811   8.430  15.0650  0.00  0.00     0.000 C
ATOM      5  C5  NAG B   1       9.502   7.603  16.1570  0.00  0.00     0.000 C
ATOM      6  O5  NAG B   1       9.880   6.300  15.6620  0.00  0.00     0.000 O
ATOM      7   O  NAG B   1       9.208   9.506  12.9020  0.00  0.00     0.000 O
ATOM      9  HD  NAG B   1       9.751   9.018  12.4370  0.00  0.00     0.000 HD
ATOM      9   O  NAG B   1       8.411   9.684  15.5930  0.00  0.00     0.000 O
ATOM     11  HD  NAG B   1       8.954   9.196  15.1280  0.00  0.00     0.000 HD
ATOM     11   C  NAG B   1       8.595   7.502  17.3890  0.00  0.00     0.000 C
ATOM     12   O  NAG B   1       8.836   6.295  18.1110  0.00  0.00     0.000 O
ATOM     14  HD  NAG B   1       9.379   5.807  17.6460  0.00  0.00     0.000 HD
ENDROOT
BRANCH 2 16
ATOM     14   N  NAG B   1      10.004   6.452  12.1250  0.00  0.00     0.000 N
ATOM     16  HD  NAG B   1       9.613   6.404  11.3530  0.00  0.00     0.000 HD
ATOM     16   C  NAG B   1      10.632   6.807  10.9910  0.00  0.00     0.000 C
ATOM     17   C  NAG B   1      11.421   8.089  10.9390  0.00  0.00     0.000 C
ATOM     18   O  NAG B   1      10.601   6.090   9.9910  0.00  0.00     0.000 OA
ENDBRANCH 2 16
BRANCH 1 19
ATOM     19  O4  BDP B   2      10.479   5.032  13.8620  0.00  0.00     0.000 O
BRANCH 19 23
ATOM     20  C1  BDP B   2      12.330   1.395  14.3980  0.00  0.00     0.000 C
ATOM     21  C2  BDP B   2      11.147   1.687  15.2970  0.00  0.00     0.000 C
ATOM     22  C3  BDP B   2      10.308   2.819  14.7490  0.00  0.00     0.000 C
ATOM     23  C4  BDP B   2      11.218   4.018  14.5010  0.00  0.00     0.000 C
ATOM     24  C5  BDP B   2      12.353   3.610  13.5830  0.00  0.00     0.000 C
ATOM     25  O5  BDP B   2      13.099   2.570  14.1860  0.00  0.00     0.000 O
ATOM     26   O  BDP B   2      10.349   0.532  15.4470  0.00  0.00     0.000 O
ATOM     28  HD  BDP B   2      11.050   0.191  15.0710  0.00  0.00     0.000 HD
ATOM     28   O  BDP B   2       9.256   3.122  15.6790  0.00  0.00     0.000 O
ATOM     30  HD  BDP B   2       9.957   2.780  15.3020  0.00  0.00     0.000 HD
BRANCH 24 30
ATOM     30   C  BDP B   2      13.286   4.734  13.3090  0.00  0.00     0.000 C
ATOM     31   O  BDP B   2      14.092   5.045  14.2170  0.00  0.00     0.000 OA
ATOM     32   O  BDP B   2      13.215   5.316  12.1890  0.00  0.00     0.000 OA
ENDBRANCH 24 30
BRANCH 20 33
ATOM     33  O3  NAG B   3      13.094   0.468  15.1300  0.00  0.00     0.000 O
BRANCH 33 36
ATOM     34  C1  NAG B   3      14.639  -2.693  13.7970  0.00  0.00     0.000 C
ATOM     35  C2  NAG B   3      13.637  -1.811  14.5190  0.00  0.00     0.000 C
ATOM     36  C3  NAG B   3      13.927  -0.322  14.2780  0.00  0.00     0.000 C
ATOM     37  C4  NAG B   3      15.389  -0.031  14.6090  0.00  0.00     0.000 C
ATOM     38  C5  NAG B   3      16.300  -1.028  13.8980  0.00  0.00     0.000 C
ATOM     39  O5  NAG B   3      15.940  -2.352  14.2540  0.00  0.00     0.000 O
ATOM     40   O  NAG B   3      15.729   1.303  14.2000  0.00  0.00     0.000 O
ATOM     42  HD  NAG B   3      16.357   0.881  13.7790  0.00  0.00     0.000 HD
ATOM     42   C  NAG B   3      17.774  -0.894  14.2750  0.00  0.00     0.000 C
ATOM     43   O  NAG B   3      17.948  -1.234  15.6560  0.00  0.00     0.000 O
ATOM     45  HD  NAG B   3      18.576  -1.656  15.2350  0.00  0.00     0.000 HD
BRANCH 35 47
ATOM     45   N  NAG B   3      12.555  -2.282  15.3750  0.00  0.00     0.000 N
ATOM     47  HD  NAG B   3      13.135  -1.801  15.8030  0.00  0.00     0.000 HD
ATOM     47   C  NAG B   3      11.304  -2.362  14.9700  0.00  0.00     0.000 C
ATOM     48   C  NAG B   3      10.311  -2.848  15.9840  0.00  0.00     0.000 C
ATOM     49   O  NAG B   3      10.963  -2.033  13.8360  0.00  0.00     0.000 OA
ENDBRANCH 35 47
BRANCH 34 50
ATOM     50  O4  BDP B   4      14.297  -3.998  14.2140  0.00  0.00     0.000 O
BRANCH 50 54
ATOM     51  C1  BDP B   4      14.640  -7.955  13.3360  0.00  0.00     0.000 C
ATOM     52  C2  BDP B   4      15.911  -7.317  13.8830  0.00  0.00     0.000 C
ATOM     53  C3  BDP B   4      15.558  -6.001  14.5050  0.00  0.00     0.000 C
ATOM     54  C4  BDP B   4      14.807  -5.116  13.4690  0.00  0.00     0.000 C
ATOM     55  C5  BDP B   4      13.661  -5.858  12.7950  0.00  0.00     0.000 C
ATOM     56  O5  BDP B   4      14.100  -7.128  12.3220  0.00  0.00     0.000 O
ATOM     57   O  BDP B   4      16.498  -8.152  14.8590  0.00  0.00     0.000 O
ATOM     59  HD  BDP B   4      17.166  -8.526  14.4530  0.00  0.00     0.000 HD
ATOM     59   O  BDP B   4      16.800  -5.345  14.8330  0.00  0.00     0.000 O
ATOM     61  HD  BDP B   4      17.468  -5.718  14.4280  0.00  0.00     0.000 HD
BRANCH 55 61
ATOM     61   C  BDP B   4      13.153  -5.037  11.6240  0.00  0.00     0.000 C
ATOM     62   O  BDP B   4      11.944  -4.685  11.6290  0.00  0.00     0.000 OA
ATOM     63   O  BDP B   4      13.969  -4.742  10.6980  0.00  0.00     0.000 OA
ENDBRANCH 55 61
BRANCH 51 64
ATOM     64  O3  NAG B   5      15.003  -9.244  12.8050  0.00  0.00     0.000 O
BRANCH 64 67
ATOM     65  C1  NAG B   5      12.468 -11.916  12.9810  0.00  0.00     0.000 C
ATOM     66  C2  NAG B   5      13.513 -10.925  13.4640  0.00  0.00     0.000 C
ATOM     67  C3  NAG B   5      13.886  -9.973  12.3350  0.00  0.00     0.000 C
ATOM     68  C4  NAG B   5      14.279 -10.748  11.0690  0.00  0.00     0.000 C
ATOM     69  C5  NAG B   5      13.216 -11.778  10.7180  0.00  0.00     0.000 C
ATOM     70  O5  NAG B   5      12.950 -12.612  11.8550  0.00  0.00     0.000 O
ATOM     71   O  NAG B   5      14.465  -9.827  10.0150  0.00  0.00     0.000 O
ATOM     73  HD  NAG B   5      15.147 -10.335   9.8530  0.00  0.00     0.000 HD
ATOM     73   C  NAG B   5      13.583 -12.688   9.5370  0.00  0.00     0.000 C
ATOM     74   O  NAG B   5      14.735 -13.485   9.8810  0.00  0.00     0.000 O
ATOM     76  HD  NAG B   5      15.417 -13.993   9.7190  0.00  0.00     0.000 HD
BRANCH 66 78
ATOM     76   N  NAG B   5      12.890 -10.316  14.6550  0.00  0.00     0.000 N
ATOM     78  HD  NAG B   5      13.619 -10.745  14.4660  0.00  0.00     0.000 HD
ATOM     78   C  NAG B   5      13.488 -10.108  15.8390  0.00  0.00     0.000 C
ATOM     79   C  NAG B   5      12.594  -9.449  16.8550  0.00  0.00     0.000 C
ATOM     80   O  NAG B   5      14.701 -10.446  16.0830  0.00  0.00     0.000 OA
ENDBRANCH 66 78
BRANCH 65 81
ATOM     81  O4  BDP B   6      12.148 -12.843  14.0270  0.00  0.00     0.000 O
BRANCH 81 85
ATOM     82  C1  BDP B   6       8.973 -15.483  15.1720  0.00  0.00     0.000 C
ATOM     83  C2  BDP B   6      10.024 -16.021  14.2050  0.00  0.00     0.000 C
ATOM     84  C3  BDP B   6      11.300 -15.176  14.1820  0.00  0.00     0.000 C
ATOM     85  C4  BDP B   6      10.999 -13.692  13.9640  0.00  0.00     0.000 C
ATOM     86  C5  BDP B   6       9.903 -13.276  14.9740  0.00  0.00     0.000 C
ATOM     87  O5  BDP B   6       8.713 -14.121  14.8660  0.00  0.00     0.000 O
ATOM     88   O  BDP B   6      10.329 -17.334  14.6670  0.00  0.00     0.000 O
ATOM     90  HD  BDP B   6      11.009 -17.857  14.7890  0.00  0.00     0.000 HD
ATOM     90   O  BDP B   6      12.186 -15.672  13.1750  0.00  0.00     0.000 O
ATOM     92  HD  BDP B   6      12.865 -16.195  13.2970  0.00  0.00     0.000 HD
BRANCH 86 92
ATOM     92   C  BDP B   6       9.390 -11.891  14.6580  0.00  0.00     0.000 C
ATOM     93   O  BDP B   6       9.836 -10.898  15.3080  0.00  0.00     0.000 OA
ATOM     94   O  BDP B   6       8.536 -11.781  13.7240  0.00  0.00     0.000 OA
ENDBRANCH 86 92
BRANCH 82 95
ATOM     95  O3  NAG B   7       7.752 -16.223  14.9740  0.00  0.00     0.000 O
BRANCH 95 98
ATOM     96  C1  NAG B   7       5.482 -18.184  17.0570  0.00  0.00     0.000 C
ATOM     97  C2  NAG B   7       6.329 -17.874  15.8300  0.00  0.00     0.000 C
ATOM     98  C3  NAG B   7       6.909 -16.486  16.0940  0.00  0.00     0.000 C
ATOM     99  C4  NAG B   7       5.777 -15.475  16.2620  0.00  0.00     0.000 C
ATOM    100  C5  NAG B   7       4.792 -15.931  17.3390  0.00  0.00     0.000 C
ATOM    101  O5  NAG B   7       4.386 -17.262  17.0560  0.00  0.00     0.000 O
BRANCH 97 104
ATOM    102   N  NAG B   7       7.254 -18.627  14.9710  0.00  0.00     0.000 N
ATOM    104  HD  NAG B   7       7.571 -19.155  14.3620  0.00  0.00     0.000 HD
ATOM    104   O  NAG B   7       8.861 -20.142  14.4710  0.00  0.00     0.000 OA
ATOM    105   C  NAG B   7       8.184 -19.535  15.3230  0.00  0.00     0.000 C
ATOM    106   C  NAG B   7       8.398 -19.830  16.7690  0.00  0.00     0.000 C
ENDBRANCH 97 104
ATOM    107   O  NAG B   7       2.911 -15.280  18.5800  0.00  0.00     0.000 O
ATOM    109  HD  NAG B   7       3.669 -15.699  18.6090  0.00  0.00     0.000 HD
ATOM    109   O  NAG B   7       2.911 -15.280  18.5800  0.00  0.00     0.000 O
ATOM    111  HD  NAG B   7       3.669 -15.699  18.6090  0.00  0.00     0.000 HD
ENDBRANCH 95 98
ENDBRANCH 82 95
ENDBRANCH 81 85
ENDBRANCH 65 81
ENDBRANCH 64 67
ENDBRANCH 51 64
ENDBRANCH 50 54
ENDBRANCH 34 50
ENDBRANCH 33 36
ENDBRANCH 20 33
ENDBRANCH 19 23
ENDBRANCH 1 19
TORSDOF 19
ENDMDL
MODEL 50
REMARK VINA RESULT:      -6.4      5.057      9.993
ROOT
ATOM      1  C1  NAG B   1       9.391 -14.298  13.6090  0.00  0.00     0.000 C
ATOM      2  C2  NAG B   1       8.738 -15.505  14.2770  0.00  0.00     0.000 C
ATOM      3  C3  NAG B   1       7.338 -15.752  13.7530  0.00  0.00     0.000 C
ATOM      4  C4  NAG B   1       6.572 -14.458  14.0110  0.00  0.00     0.000 C
ATOM      5  C5  NAG B   1       7.212 -13.324  13.2000  0.00  0.00     0.000 C
ATOM      6  O5  NAG B   1       8.583 -13.110  13.5970  0.00  0.00     0.000 O
ATOM      7   O  NAG B   1       6.699 -16.870  14.4100  0.00  0.00     0.000 O
ATOM      9  HD  NAG B   1       7.527 -17.120  14.3800  0.00  0.00     0.000 HD
ATOM      9   O  NAG B   1       5.214 -14.612  13.6320  0.00  0.00     0.000 O
ATOM     11  HD  NAG B   1       6.042 -14.862  13.6020  0.00  0.00     0.000 HD
ATOM     11   C  NAG B   1       6.375 -12.046  13.3370  0.00  0.00     0.000 C
ATOM     12   O  NAG B   1       7.185 -10.880  13.1990  0.00  0.00     0.000 O
ATOM     14  HD  NAG B   1       8.014 -11.130  13.1690  0.00  0.00     0.000 HD
ENDROOT
BRANCH 2 16
ATOM     14   N  NAG B   1       9.615 -16.679  14.1260  0.00  0.00     0.000 N
ATOM     16  HD  NAG B   1      10.446 -16.921  14.1080  0.00  0.00     0.000 HD
ATOM     16   C  NAG B   1      10.192 -17.304  15.1670  0.00  0.00     0.000 C
ATOM     17   C  NAG B   1       9.977 -16.791  16.5660  0.00  0.00     0.000 C
ATOM     18   O  NAG B   1      10.879 -18.313  15.0050  0.00  0.00     0.000 OA
ENDBRANCH 2 16
BRANCH 1 19
ATOM     19  O4  BDP B   2      10.493 -14.013  14.4600  0.00  0.00     0.000 O
BRANCH 19 23
ATOM     20  C1  BDP B   2      12.519 -11.727  11.7010  0.00  0.00     0.000 C
ATOM     21  C2  BDP B   2      12.826 -13.210  11.7020  0.00  0.00     0.000 C
ATOM     22  C3  BDP B   2      11.756 -13.991  12.4300  0.00  0.00     0.000 C
ATOM     23  C4  BDP B   2      11.579 -13.387  13.8210  0.00  0.00     0.000 C
ATOM     24  C5  BDP B   2      11.265 -11.910  13.6930  0.00  0.00     0.000 C
ATOM     25  O5  BDP B   2      12.329 -11.255  13.0280  0.00  0.00     0.000 O
ATOM     26   O  BDP B   2      12.945 -13.686  10.3790  0.00  0.00     0.000 O
ATOM     28  HD  BDP B   2      12.944 -12.831  10.2390  0.00  0.00     0.000 HD
ATOM     28   O  BDP B   2      12.136 -15.375  12.4870  0.00  0.00     0.000 O
ATOM     30  HD  BDP B   2      12.135 -14.520  12.3470  0.00  0.00     0.000 HD
BRANCH 24 30
ATOM     30   C  BDP B   2      11.092 -11.255  15.0160  0.00  0.00     0.000 C
ATOM     31   O  BDP B   2      12.014 -11.397  15.8520  0.00  0.00     0.000 OA
ATOM     32   O  BDP B   2      10.030 -10.603  15.2300  0.00  0.00     0.000 OA
ENDBRANCH 24 30
BRANCH 20 33
ATOM     33  O3  NAG B   3      13.678 -11.139  11.1630  0.00  0.00     0.000 O
BRANCH 33 36
ATOM     34  C1  NAG B   3      13.522  -8.112   8.9350  0.00  0.00     0.000 C
ATOM     35  C2  NAG B   3      13.523  -9.580   9.3170  0.00  0.00     0.000 C
ATOM     36  C3  NAG B   3      13.472  -9.761  10.8420  0.00  0.00     0.000 C
ATOM     37  C4  NAG B   3      14.581  -8.932  11.4860  0.00  0.00     0.000 C
ATOM     38  C5  NAG B   3      14.539  -7.498  10.9670  0.00  0.00     0.000 C
ATOM     39  O5  NAG B   3      14.640  -7.492   9.5530  0.00  0.00     0.000 O
ATOM     40   O  NAG B   3      14.424  -8.929  12.9130  0.00  0.00     0.000 O
ATOM     42  HD  NAG B   3      14.448  -8.072  12.7900  0.00  0.00     0.000 HD
ATOM     42   C  NAG B   3      15.693  -6.629  11.4600  0.00  0.00     0.000 C
ATOM     43   O  NAG B   3      16.927  -7.124  10.9250  0.00  0.00     0.000 O
ATOM     45  HD  NAG B   3      16.950  -6.267  10.8020  0.00  0.00     0.000 HD
BRANCH 35 47
ATOM     45   N  NAG B   3      13.581 -10.628   8.3050  0.00  0.00     0.000 N
ATOM     47  HD  NAG B   3      14.316 -10.560   8.7580  0.00  0.00     0.000 HD
ATOM     47   C  NAG B   3      12.555 -11.403   8.0150  0.00  0.00     0.000 C
ATOM     48   C  NAG B   3      12.791 -12.445   6.9620  0.00  0.00     0.000 C
ATOM     49   O  NAG B   3      11.475 -11.297   8.5920  0.00  0.00     0.000 OA
ENDBRANCH 35 47
BRANCH 34 50
ATOM     50  O4  BDP B   4      13.684  -8.132   7.5320  0.00  0.00     0.000 O
BRANCH 50 54
ATOM     51  C1  BDP B   4      12.903  -5.982   4.1670  0.00  0.00     0.000 C
ATOM     52  C2  BDP B   4      13.269  -5.140   5.3840  0.00  0.00     0.000 C
ATOM     53  C3  BDP B   4      13.885  -6.033   6.4170  0.00  0.00     0.000 C
ATOM     54  C4  BDP B   4      12.919  -7.211   6.7360  0.00  0.00     0.000 C
ATOM     55  C5  BDP B   4      12.416  -7.905   5.4780  0.00  0.00     0.000 C
ATOM     56  O5  BDP B   4      11.935  -6.946   4.5390  0.00  0.00     0.000 O
ATOM     57   O  BDP B   4      14.192  -4.135   5.0250  0.00  0.00     0.000 O
ATOM     59  HD  BDP B   4      13.721  -3.410   4.9850  0.00  0.00     0.000 HD
ATOM     59   O  BDP B   4      14.037  -5.246   7.6160  0.00  0.00     0.000 O
ATOM     61  HD  BDP B   4      13.565  -4.520   7.5760  0.00  0.00     0.000 HD
BRANCH 55 61
ATOM     61   C  BDP B   4      11.289  -8.853   5.8450  0.00  0.00     0.000 C
ATOM     62   O  BDP B   4      11.058  -9.822   5.0760  0.00  0.00     0.000 OA
ATOM     63   O  BDP B   4      10.635  -8.625   6.9090  0.00  0.00     0.000 OA
ENDBRANCH 55 61
BRANCH 51 64
ATOM     64  O3  NAG B   5      12.375  -5.086   3.1710  0.00  0.00     0.000 O
BRANCH 64 67
ATOM     65  C1  NAG B   5      13.082  -5.388  -0.4350  0.00  0.00     0.000 C
ATOM     66  C2  NAG B   5      13.275  -4.973   1.0130  0.00  0.00     0.000 C
ATOM     67  C3  NAG B   5      12.264  -5.691   1.8980  0.00  0.00     0.000 C
ATOM     68  C4  NAG B   5      10.837  -5.506   1.3660  0.00  0.00     0.000 C
ATOM     69  C5  NAG B   5      10.763  -5.857  -0.1110  0.00  0.00     0.000 C
ATOM     70  O5  NAG B   5      11.758  -5.122  -0.8390  0.00  0.00     0.000 O
ATOM     71   O  NAG B   5       9.963  -6.311   2.1270  0.00  0.00     0.000 O
ATOM     73  HD  NAG B   5       9.465  -5.604   2.0810  0.00  0.00     0.000 HD
ATOM     73   C  NAG B   5       9.400  -5.580  -0.7610  0.00  0.00     0.000 C
ATOM     74   O  NAG B   5       9.129  -4.163  -0.7300  0.00  0.00     0.000 O
ATOM     76  HD  NAG B   5       8.631  -3.456  -0.7760  0.00  0.00     0.000 HD
BRANCH 66 78
ATOM     76   N  NAG B   5      14.706  -5.251   1.2420  0.00  0.00     0.000 N
ATOM     78  HD  NAG B   5      14.167  -4.578   1.3240  0.00  0.00     0.000 HD
ATOM     78   C  NAG B   5      15.571  -4.456   1.8920  0.00  0.00     0.000 C
ATOM     79   C  NAG B   5      16.961  -5.026   1.9770  0.00  0.00     0.000 C
ATOM     80   O  NAG B   5      15.245  -3.318   2.3850  0.00  0.00     0.000 OA
ENDBRANCH 66 78
BRANCH 65 81
ATOM     81  O4  BDP B   6      14.000  -4.679  -1.2770  0.00  0.00     0.000 O
BRANCH 81 85
ATOM     82  C1  BDP B   6      16.430  -5.632  -4.6760  0.00  0.00     0.000 C
ATOM     83  C2  BDP B   6      15.228  -4.721  -4.9020  0.00  0.00     0.000 C
ATOM     84  C3  BDP B   6      14.683  -4.121  -3.6030  0.00  0.00     0.000 C
ATOM     85  C4  BDP B   6      14.422  -5.193  -2.5430  0.00  0.00     0.000 C
ATOM     86  C5  BDP B   6      15.693  -6.069  -2.4300  0.00  0.00     0.000 C
ATOM     87  O5  BDP B   6      16.086  -6.629  -3.7240  0.00  0.00     0.000 O
ATOM     88   O  BDP B   6      15.697  -3.676  -5.7500  0.00  0.00     0.000 O
ATOM     90  HD  BDP B   6      15.637  -2.817  -5.8470  0.00  0.00     0.000 HD
ATOM     90   O  BDP B   6      13.495  -3.375  -3.8800  0.00  0.00     0.000 O
ATOM     92  HD  BDP B   6      13.435  -2.516  -3.9770  0.00  0.00     0.000 HD
BRANCH 86 92
ATOM     92   C  BDP B   6      15.423  -7.286  -1.5790  0.00  0.00     0.000 C
ATOM     93   O  BDP B   6      14.624  -8.176  -1.9980  0.00  0.00     0.000 OA
ATOM     94   O  BDP B   6      16.039  -7.374  -0.4710  0.00  0.00     0.000 OA
ENDBRANCH 86 92
BRANCH 82 95
ATOM     95  O3  NAG B   7      16.738  -6.294  -5.9180  0.00  0.00     0.000 O
BRANCH 95 98
ATOM     96  C1  NAG B   7      19.919  -7.145  -7.4990  0.00  0.00     0.000 C
ATOM     97  C2  NAG B   7      18.556  -6.476  -7.3830  0.00  0.00     0.000 C
ATOM     98  C3  NAG B   7      17.987  -6.971  -6.0550  0.00  0.00     0.000 C
ATOM     99  C4  NAG B   7      17.863  -8.492  -6.0780  0.00  0.00     0.000 C
ATOM    100  C5  NAG B   7      19.197  -9.144  -6.4430  0.00  0.00     0.000 C
ATOM    101  O5  NAG B   7      19.688  -8.551  -7.6360  0.00  0.00     0.000 O
BRANCH 97 104
ATOM    102   N  NAG B   7      18.476  -5.017  -7.2260  0.00  0.00     0.000 N
ATOM    104  HD  NAG B   7      18.266  -4.228  -6.9400  0.00  0.00     0.000 HD
ATOM    104   O  NAG B   7      18.001  -2.884  -7.8200  0.00  0.00     0.000 OA
ATOM    105   C  NAG B   7      18.071  -4.092  -8.1170  0.00  0.00     0.000 C
ATOM    106   C  NAG B   7      17.684  -4.528  -9.4890  0.00  0.00     0.000 C
ENDBRANCH 97 104
ATOM    107   O  NAG B   7      20.311 -11.200  -6.6250  0.00  0.00     0.000 O
ATOM    109  HD  NAG B   7      20.388 -10.372  -6.3840  0.00  0.00     0.000 HD
ATOM    109   O  NAG B   7      20.311 -11.200  -6.6250  0.00  0.00     0.000 O
ATOM    111  HD  NAG B   7      20.388 -10.372  -6.3840  0.00  0.00     0.000 HD
ENDBRANCH 95 98
ENDBRANCH 82 95
ENDBRANCH 81 85
ENDBRANCH 65 81
ENDBRANCH 64 67
ENDBRANCH 51 64
ENDBRANCH 50 54
ENDBRANCH 34 50
ENDBRANCH 33 36
ENDBRANCH 20 33
ENDBRANCH 19 23
ENDBRANCH 1 19
TORSDOF 19
ENDMDL
MODEL 51
REMARK VINA RESULT:      -6.3     11.668     17.445
ROOT
ATOM      1  C1  NAG B   1      10.687 -12.950  11.5960  0.00  0.00     0.000 C
ATOM      2  C2  NAG B   1      12.141 -13.390  11.4590  0.00  0.00     0.000 C
ATOM      3  C3  NAG B   1      12.333 -14.839  11.8590  0.00  0.00     0.000 C
ATOM      4  C4  NAG B   1      11.829 -14.935  13.2960  0.00  0.00     0.000 C
ATOM      5  C5  NAG B   1      10.331 -14.606  13.3270  0.00  0.00     0.000 C
ATOM      6  O5  NAG B   1      10.084 -13.262  12.8620  0.00  0.00     0.000 O
ATOM      7   O  NAG B   1      13.715 -15.252  11.7690  0.00  0.00     0.000 O
ATOM      9  HD  NAG B   1      13.643 -14.697  11.1080  0.00  0.00     0.000 HD
ATOM      9   O  NAG B   1      12.045 -16.241  13.8020  0.00  0.00     0.000 O
ATOM     11  HD  NAG B   1      11.972 -15.687  13.1410  0.00  0.00     0.000 HD
ATOM     11   C  NAG B   1       9.775 -14.830  14.7390  0.00  0.00     0.000 C
ATOM     12   O  NAG B   1       8.665 -13.972  15.0000  0.00  0.00     0.000 O
ATOM     14  HD  NAG B   1       8.593 -13.418  14.3390  0.00  0.00     0.000 HD
ENDROOT
BRANCH 2 16
ATOM     14   N  NAG B   1      13.302 -12.566  11.0770  0.00  0.00     0.000 N
ATOM     16  HD  NAG B   1      14.107 -12.613  10.7610  0.00  0.00     0.000 HD
ATOM     16   C  NAG B   1      13.583 -12.236   9.8040  0.00  0.00     0.000 C
ATOM     17   C  NAG B   1      12.707 -12.738   8.6870  0.00  0.00     0.000 C
ATOM     18   O  NAG B   1      14.533 -11.504   9.5290  0.00  0.00     0.000 OA
ENDBRANCH 2 16
BRANCH 1 19
ATOM     19  O4  BDP B   2      10.771 -11.532  11.5410  0.00  0.00     0.000 O
BRANCH 19 23
ATOM     20  C1  BDP B   2      10.029  -8.428  14.1410  0.00  0.00     0.000 C
ATOM     21  C2  BDP B   2      11.066  -9.441  14.5810  0.00  0.00     0.000 C
ATOM     22  C3  BDP B   2      11.555 -10.267  13.4120  0.00  0.00     0.000 C
ATOM     23  C4  BDP B   2      10.343 -10.875  12.7100  0.00  0.00     0.000 C
ATOM     24  C5  BDP B   2       9.386  -9.770  12.3090  0.00  0.00     0.000 C
ATOM     25  O5  BDP B   2       8.959  -9.071  13.4620  0.00  0.00     0.000 O
ATOM     26   O  BDP B   2      12.158  -8.790  15.1920  0.00  0.00     0.000 O
ATOM     28  HD  BDP B   2      11.589  -8.138  15.1520  0.00  0.00     0.000 HD
ATOM     28   O  BDP B   2      12.462 -11.273  13.8900  0.00  0.00     0.000 O
ATOM     30  HD  BDP B   2      11.893 -10.621  13.8490  0.00  0.00     0.000 HD
BRANCH 24 30
ATOM     30   C  BDP B   2       8.175 -10.296  11.6270  0.00  0.00     0.000 C
ATOM     31   O  BDP B   2       7.946  -9.888  10.4650  0.00  0.00     0.000 OA
ATOM     32   O  BDP B   2       7.441 -11.114  12.2520  0.00  0.00     0.000 OA
ENDBRANCH 24 30
BRANCH 20 33
ATOM     33  O3  NAG B   3       9.551  -7.885  15.3470  0.00  0.00     0.000 O
BRANCH 33 36
ATOM     34  C1  NAG B   3       8.508  -4.282  15.6290  0.00  0.00     0.000 C
ATOM     35  C2  NAG B   3       9.430  -5.486  15.6510  0.00  0.00     0.000 C
ATOM     36  C3  NAG B   3       8.722  -6.742  15.1210  0.00  0.00     0.000 C
ATOM     37  C4  NAG B   3       7.404  -6.933  15.8680  0.00  0.00     0.000 C
ATOM     38  C5  NAG B   3       6.596  -5.638  15.8540  0.00  0.00     0.000 C
ATOM     39  O5  NAG B   3       7.363  -4.584  16.4130  0.00  0.00     0.000 O
ATOM     40   O  NAG B   3       6.638  -7.980  15.2520  0.00  0.00     0.000 O
ATOM     42  HD  NAG B   3       6.037  -7.357  15.2290  0.00  0.00     0.000 HD
ATOM     42   C  NAG B   3       5.320  -5.698  16.6900  0.00  0.00     0.000 C
ATOM     43   O  NAG B   3       5.660  -5.845  18.0740  0.00  0.00     0.000 O
ATOM     45  HD  NAG B   3       5.059  -5.223  18.0500  0.00  0.00     0.000 HD
BRANCH 35 47
ATOM     45   N  NAG B   3      10.800  -5.465  16.1480  0.00  0.00     0.000 N
ATOM     47  HD  NAG B   3      10.279  -5.964  16.6270  0.00  0.00     0.000 HD
ATOM     47   C  NAG B   3      11.851  -5.446  15.3530  0.00  0.00     0.000 C
ATOM     48   C  NAG B   3      13.190  -5.446  16.0280  0.00  0.00     0.000 C
ATOM     49   O  NAG B   3      11.742  -5.455  14.1290  0.00  0.00     0.000 OA
ENDBRANCH 35 47
BRANCH 34 50
ATOM     50  O4  BDP B   4       9.271  -3.265  16.2430  0.00  0.00     0.000 O
BRANCH 50 54
ATOM     51  C1  BDP B   4       9.816   0.765  16.3690  0.00  0.00     0.000 C
ATOM     52  C2  BDP B   4       8.357   0.326  16.3090  0.00  0.00     0.000 C
ATOM     53  C3  BDP B   4       8.281  -1.132  16.6430  0.00  0.00     0.000 C
ATOM     54  C4  BDP B   4       9.218  -1.937  15.6960  0.00  0.00     0.000 C
ATOM     55  C5  BDP B   4      10.619  -1.346  15.6280  0.00  0.00     0.000 C
ATOM     56  O5  BDP B   4      10.558   0.057  15.3920  0.00  0.00     0.000 O
ATOM     57   O  BDP B   4       7.587   1.059  17.2380  0.00  0.00     0.000 O
ATOM     59  HD  BDP B   4       7.164   1.643  16.7580  0.00  0.00     0.000 HD
ATOM     59   O  BDP B   4       6.925  -1.551  16.3880  0.00  0.00     0.000 O
ATOM     61  HD  BDP B   4       6.502  -0.967  15.9080  0.00  0.00     0.000 HD
BRANCH 55 61
ATOM     61   C  BDP B   4      11.388  -2.009  14.4990  0.00  0.00     0.000 C
ATOM     62   O  BDP B   4      12.635  -2.131  14.6250  0.00  0.00     0.000 OA
ATOM     63   O  BDP B   4      10.739  -2.411  13.4850  0.00  0.00     0.000 OA
ENDBRANCH 55 61
BRANCH 51 64
ATOM     64  O3  NAG B   5       9.847   2.181  16.1080  0.00  0.00     0.000 O
BRANCH 64 67
ATOM     65  C1  NAG B   5      12.602   4.376  17.1990  0.00  0.00     0.000 C
ATOM     66  C2  NAG B   5      11.303   3.592  17.2780  0.00  0.00     0.000 C
ATOM     67  C3  NAG B   5      11.164   2.696  16.0540  0.00  0.00     0.000 C
ATOM     68  C4  NAG B   5      11.345   3.500  14.7590  0.00  0.00     0.000 C
ATOM     69  C5  NAG B   5      12.623   4.322  14.8120  0.00  0.00     0.000 C
ATOM     70  O5  NAG B   5      12.641   5.122  16.0030  0.00  0.00     0.000 O
ATOM     71   O  NAG B   5      11.359   2.603  13.6690  0.00  0.00     0.000 O
ATOM     73  HD  NAG B   5      10.865   3.218  13.3120  0.00  0.00     0.000 HD
ATOM     73   C  NAG B   5      12.823   5.257  13.6110  0.00  0.00     0.000 C
ATOM     74   O  NAG B   5      11.776   6.249  13.5900  0.00  0.00     0.000 O
ATOM     76  HD  NAG B   5      11.282   6.864  13.2330  0.00  0.00     0.000 HD
BRANCH 66 78
ATOM     76   N  NAG B   5      11.425   3.072  18.6540  0.00  0.00     0.000 N
ATOM     78  HD  NAG B   5      10.808   3.424  18.1580  0.00  0.00     0.000 HD
ATOM     78   C  NAG B   5      10.411   2.833  19.5000  0.00  0.00     0.000 C
ATOM     79   C  NAG B   5      10.855   2.285  20.8290  0.00  0.00     0.000 C
ATOM     80   O  NAG B   5       9.182   3.058  19.2060  0.00  0.00     0.000 OA
ENDBRANCH 66 78
BRANCH 65 81
ATOM     81  O4  BDP B   6      12.716   5.255  18.3250  0.00  0.00     0.000 O
BRANCH 81 85
ATOM     82  C1  BDP B   6      15.738   7.380  20.4960  0.00  0.00     0.000 C
ATOM     83  C2  BDP B   6      15.128   8.070  19.2790  0.00  0.00     0.000 C
ATOM     84  C3  BDP B   6      13.810   7.431  18.8320  0.00  0.00     0.000 C
ATOM     85  C4  BDP B   6      13.940   5.917  18.6520  0.00  0.00     0.000 C
ATOM     86  C5  BDP B   6      14.599   5.341  19.9290  0.00  0.00     0.000 C
ATOM     87  O5  BDP B   6      15.876   5.993  20.2250  0.00  0.00     0.000 O
ATOM     88   O  BDP B   6      14.892   9.416  19.6830  0.00  0.00     0.000 O
ATOM     90  HD  BDP B   6      14.294  10.038  19.6150  0.00  0.00     0.000 HD
ATOM     90   O  BDP B   6      13.360   8.053  17.6260  0.00  0.00     0.000 O
ATOM     92  HD  BDP B   6      12.761   8.675  17.5580  0.00  0.00     0.000 HD
BRANCH 86 92
ATOM     92   C  BDP B   6      14.973   3.893  19.7240  0.00  0.00     0.000 C
ATOM     93   O  BDP B   6      14.241   2.984  20.2190  0.00  0.00     0.000 OA
ATOM     94   O  BDP B   6      16.011   3.648  19.0350  0.00  0.00     0.000 OA
ENDBRANCH 86 92
BRANCH 82 95
ATOM     95  O3  NAG B   7      17.056   7.922  20.7110  0.00  0.00     0.000 O
BRANCH 95 98
ATOM     96  C1  NAG B   7      18.889   9.397  23.5050  0.00  0.00     0.000 C
ATOM     97  C2  NAG B   7      18.396   9.280  22.0690  0.00  0.00     0.000 C
ATOM     98  C3  NAG B   7      17.569   7.997  22.0400  0.00  0.00     0.000 C
ATOM     99  C4  NAG B   7      18.443   6.807  22.4290  0.00  0.00     0.000 C
ATOM    100  C5  NAG B   7      19.131   7.052  23.7730  0.00  0.00     0.000 C
ATOM    101  O5  NAG B   7      19.791   8.308  23.7310  0.00  0.00     0.000 O
BRANCH 97 104
ATOM    102   N  NAG B   7      17.435  10.248  21.5230  0.00  0.00     0.000 N
ATOM    104  HD  NAG B   7      16.761  10.598  21.1060  0.00  0.00     0.000 HD
ATOM    104   O  NAG B   7      16.724  11.988  20.2580  0.00  0.00     0.000 OA
ATOM    105   C  NAG B   7      17.657  11.281  20.6880  0.00  0.00     0.000 C
ATOM    106   C  NAG B   7      19.052  11.574  20.2540  0.00  0.00     0.000 C
ENDBRANCH 97 104
ATOM    107   O  NAG B   7      20.457   6.049  25.4290  0.00  0.00     0.000 O
ATOM    109  HD  NAG B   7      19.793   6.585  25.2820  0.00  0.00     0.000 HD
ATOM    109   O  NAG B   7      20.457   6.049  25.4290  0.00  0.00     0.000 O
ATOM    111  HD  NAG B   7      19.793   6.585  25.2820  0.00  0.00     0.000 HD
ENDBRANCH 95 98
ENDBRANCH 82 95
ENDBRANCH 81 85
ENDBRANCH 65 81
ENDBRANCH 64 67
ENDBRANCH 51 64
ENDBRANCH 50 54
ENDBRANCH 34 50
ENDBRANCH 33 36
ENDBRANCH 20 33
ENDBRANCH 19 23
ENDBRANCH 1 19
TORSDOF 19
ENDMDL
MODEL 52
REMARK VINA RESULT:      -6.3      4.996     10.482
ROOT
ATOM      1  C1  NAG B   1       9.842 -14.624  14.0210  0.00  0.00     0.000 C
ATOM      2  C2  NAG B   1       9.549 -15.958  14.7020  0.00  0.00     0.000 C
ATOM      3  C3  NAG B   1       8.350 -16.653  14.0890  0.00  0.00     0.000 C
ATOM      4  C4  NAG B   1       7.195 -15.666  14.2220  0.00  0.00     0.000 C
ATOM      5  C5  NAG B   1       7.511 -14.408  13.4020  0.00  0.00     0.000 C
ATOM      6  O5  NAG B   1       8.705 -13.758  13.8870  0.00  0.00     0.000 O
ATOM      7   O  NAG B   1       8.042 -17.899  14.7550  0.00  0.00     0.000 O
ATOM      9  HD  NAG B   1       8.907 -17.872  14.7990  0.00  0.00     0.000 HD
ATOM      9   O  NAG B   1       5.993 -16.255  13.7540  0.00  0.00     0.000 O
ATOM     11  HD  NAG B   1       6.858 -16.228  13.7980  0.00  0.00     0.000 HD
ATOM     11   C  NAG B   1       6.305 -13.461  13.4110  0.00  0.00     0.000 C
ATOM     12   O  NAG B   1       6.713 -12.101  13.2720  0.00  0.00     0.000 O
ATOM     14  HD  NAG B   1       7.578 -12.075  13.3160  0.00  0.00     0.000 HD
ENDROOT
BRANCH 2 16
ATOM     14   N  NAG B   1      10.447 -16.244  15.8350  0.00  0.00     0.000 N
ATOM     16  HD  NAG B   1      10.578 -16.797  16.4880  0.00  0.00     0.000 HD
ATOM     16   C  NAG B   1      11.415 -17.175  15.7890  0.00  0.00     0.000 C
ATOM     17   C  NAG B   1      11.602 -18.003  14.5450  0.00  0.00     0.000 C
ATOM     18   O  NAG B   1      12.178 -17.351  16.7380  0.00  0.00     0.000 OA
ENDBRANCH 2 16
BRANCH 1 19
ATOM     19  O4  BDP B   2      10.720 -13.980  14.9340  0.00  0.00     0.000 O
BRANCH 19 23
ATOM     20  C1  BDP B   2      12.483 -11.580  12.0940  0.00  0.00     0.000 C
ATOM     21  C2  BDP B   2      13.165 -12.903  12.3740  0.00  0.00     0.000 C
ATOM     22  C3  BDP B   2      12.237 -13.857  13.0910  0.00  0.00     0.000 C
ATOM     23  C4  BDP B   2      11.691 -13.158  14.3330  0.00  0.00     0.000 C
ATOM     24  C5  BDP B   2      11.024 -11.858  13.9270  0.00  0.00     0.000 C
ATOM     25  O5  BDP B   2      11.969 -11.018  13.2930  0.00  0.00     0.000 O
ATOM     26   O  BDP B   2      13.612 -13.489  11.1700  0.00  0.00     0.000 O
ATOM     28  HD  BDP B   2      13.409 -12.694  10.8930  0.00  0.00     0.000 HD
ATOM     28   O  BDP B   2      12.953 -15.058  13.4190  0.00  0.00     0.000 O
ATOM     30  HD  BDP B   2      12.750 -14.263  13.1410  0.00  0.00     0.000 HD
BRANCH 24 30
ATOM     30   C  BDP B   2      10.478 -11.119  15.0960  0.00  0.00     0.000 C
ATOM     31   O  BDP B   2       9.251 -10.869  15.0950  0.00  0.00     0.000 OA
ATOM     32   O  BDP B   2      11.274 -10.777  16.0160  0.00  0.00     0.000 OA
ENDBRANCH 24 30
BRANCH 20 33
ATOM     33  O3  NAG B   3      13.518 -10.761  11.6050  0.00  0.00     0.000 O
BRANCH 33 36
ATOM     34  C1  NAG B   3      12.880  -8.063   9.0620  0.00  0.00     0.000 C
ATOM     35  C2  NAG B   3      13.196  -9.447   9.5970  0.00  0.00     0.000 C
ATOM     36  C3  NAG B   3      13.019  -9.511  11.1220  0.00  0.00     0.000 C
ATOM     37  C4  NAG B   3      13.811  -8.379  11.7710  0.00  0.00     0.000 C
ATOM     38  C5  NAG B   3      13.478  -7.048  11.1010  0.00  0.00     0.000 C
ATOM     39  O5  NAG B   3      13.735  -7.131   9.7090  0.00  0.00     0.000 O
ATOM     40   O  NAG B   3      13.498  -8.300  13.1700  0.00  0.00     0.000 O
ATOM     42  HD  NAG B   3      13.325  -7.478  12.9590  0.00  0.00     0.000 HD
ATOM     42   C  NAG B   3      14.322  -5.878  11.5990  0.00  0.00     0.000 C
ATOM     43   O  NAG B   3      15.692  -6.084  11.2330  0.00  0.00     0.000 O
ATOM     45  HD  NAG B   3      15.519  -5.263  11.0220  0.00  0.00     0.000 HD
BRANCH 35 47
ATOM     45   N  NAG B   3      12.384 -10.408   8.8620  0.00  0.00     0.000 N
ATOM     47  HD  NAG B   3      12.197  -9.587   8.6570  0.00  0.00     0.000 HD
ATOM     47   C  NAG B   3      12.857 -11.554   8.4160  0.00  0.00     0.000 C
ATOM     48   C  NAG B   3      11.892 -12.419   7.6600  0.00  0.00     0.000 C
ATOM     49   O  NAG B   3      14.029 -11.885   8.5850  0.00  0.00     0.000 OA
ENDBRANCH 35 47
BRANCH 34 50
ATOM     50  O4  BDP B   4      13.200  -8.154   7.6900  0.00  0.00     0.000 O
BRANCH 50 54
ATOM     51  C1  BDP B   4      12.520  -6.457   4.0550  0.00  0.00     0.000 C
ATOM     52  C2  BDP B   4      12.793  -5.461   5.1760  0.00  0.00     0.000 C
ATOM     53  C3  BDP B   4      13.385  -6.198   6.3390  0.00  0.00     0.000 C
ATOM     54  C4  BDP B   4      12.446  -7.367   6.7530  0.00  0.00     0.000 C
ATOM     55  C5  BDP B   4      12.033  -8.226   5.5660  0.00  0.00     0.000 C
ATOM     56  O5  BDP B   4      11.568  -7.408   4.4960  0.00  0.00     0.000 O
ATOM     57   O  BDP B   4      13.699  -4.469   4.7410  0.00  0.00     0.000 O
ATOM     59  HD  BDP B   4      13.205  -3.774   4.5910  0.00  0.00     0.000 HD
ATOM     59   O  BDP B   4      13.448  -5.266   7.4380  0.00  0.00     0.000 O
ATOM     61  HD  BDP B   4      12.954  -4.571   7.2880  0.00  0.00     0.000 HD
BRANCH 55 61
ATOM     61   C  BDP B   4      10.921  -9.169   5.9920  0.00  0.00     0.000 C
ATOM     62   O  BDP B   4      10.572 -10.072   5.1890  0.00  0.00     0.000 OA
ATOM     63   O  BDP B   4      10.399  -9.002   7.1370  0.00  0.00     0.000 OA
ENDBRANCH 55 61
BRANCH 51 64
ATOM     64  O3  NAG B   5      12.014  -5.709   2.9330  0.00  0.00     0.000 O
BRANCH 64 67
ATOM     65  C1  NAG B   5      13.281  -5.309  -0.5060  0.00  0.00     0.000 C
ATOM     66  C2  NAG B   5      12.942  -4.939   0.9270  0.00  0.00     0.000 C
ATOM     67  C3  NAG B   5      12.510  -6.181   1.6960  0.00  0.00     0.000 C
ATOM     68  C4  NAG B   5      11.397  -6.930   0.9510  0.00  0.00     0.000 C
ATOM     69  C5  NAG B   5      11.789  -7.173  -0.4980  0.00  0.00     0.000 C
ATOM     70  O5  NAG B   5      12.175  -5.936  -1.1140  0.00  0.00     0.000 O
ATOM     71   O  NAG B   5      11.142  -8.145   1.6230  0.00  0.00     0.000 O
ATOM     73  HD  NAG B   5      10.321  -7.921   1.4630  0.00  0.00     0.000 HD
ATOM     73   C  NAG B   5      10.683  -7.805  -1.3550  0.00  0.00     0.000 C
ATOM     74   O  NAG B   5       9.565  -6.897  -1.4480  0.00  0.00     0.000 O
ATOM     76  HD  NAG B   5       8.744  -6.674  -1.6090  0.00  0.00     0.000 HD
BRANCH 66 78
ATOM     76   N  NAG B   5      14.163  -4.255   1.3970  0.00  0.00     0.000 N
ATOM     78  HD  NAG B   5      13.317  -4.078   1.3360  0.00  0.00     0.000 HD
ATOM     78   C  NAG B   5      14.207  -3.112   2.1000  0.00  0.00     0.000 C
ATOM     79   C  NAG B   5      15.604  -2.675   2.4480  0.00  0.00     0.000 C
ATOM     80   O  NAG B   5      13.159  -2.452   2.4340  0.00  0.00     0.000 OA
ENDBRANCH 66 78
BRANCH 65 81
ATOM     81  O4  BDP B   6      13.643  -4.136  -1.2460  0.00  0.00     0.000 O
BRANCH 81 85
ATOM     82  C1  BDP B   6      16.192  -3.240  -4.5730  0.00  0.00     0.000 C
ATOM     83  C2  BDP B   6      15.764  -4.693  -4.3830  0.00  0.00     0.000 C
ATOM     84  C3  BDP B   6      14.561  -4.842  -3.4480  0.00  0.00     0.000 C
ATOM     85  C4  BDP B   6      14.773  -4.108  -2.1220  0.00  0.00     0.000 C
ATOM     86  C5  BDP B   6      15.235  -2.667  -2.4430  0.00  0.00     0.000 C
ATOM     87  O5  BDP B   6      16.422  -2.653  -3.3000  0.00  0.00     0.000 O
ATOM     88   O  BDP B   6      15.418  -5.160  -5.6840  0.00  0.00     0.000 O
ATOM     90  HD  BDP B   6      14.816  -5.639  -6.0830  0.00  0.00     0.000 HD
ATOM     90   O  BDP B   6      14.292  -6.229  -3.2290  0.00  0.00     0.000 O
ATOM     92  HD  BDP B   6      13.690  -6.707  -3.6280  0.00  0.00     0.000 HD
BRANCH 86 92
ATOM     92   C  BDP B   6      15.689  -1.964  -1.1870  0.00  0.00     0.000 C
ATOM     93   O  BDP B   6      15.061  -0.939  -0.7840  0.00  0.00     0.000 OA
ATOM     94   O  BDP B   6      16.685  -2.453  -0.5690  0.00  0.00     0.000 OA
ENDBRANCH 86 92
BRANCH 82 95
ATOM     95  O3  NAG B   7      17.437  -3.225  -5.2990  0.00  0.00     0.000 O
BRANCH 95 98
ATOM     96  C1  NAG B   7      18.831  -2.041  -8.4600  0.00  0.00     0.000 C
ATOM     97  C2  NAG B   7      18.720  -2.941  -7.2370  0.00  0.00     0.000 C
ATOM     98  C3  NAG B   7      17.581  -2.345  -6.4120  0.00  0.00     0.000 C
ATOM     99  C4  NAG B   7      17.921  -0.909  -6.0200  0.00  0.00     0.000 C
ATOM    100  C5  NAG B   7      18.273  -0.075  -7.2530  0.00  0.00     0.000 C
ATOM    101  O5  NAG B   7      19.269  -0.757  -8.0000  0.00  0.00     0.000 O
BRANCH 97 104
ATOM    102   N  NAG B   7      18.838  -4.388  -7.0110  0.00  0.00     0.000 N
ATOM    104  HD  NAG B   7      19.160  -5.188  -6.9300  0.00  0.00     0.000 HD
ATOM    104   O  NAG B   7      18.481  -6.590  -7.4020  0.00  0.00     0.000 OA
ATOM    105   C  NAG B   7      18.236  -5.397  -7.6690  0.00  0.00     0.000 C
ATOM    106   C  NAG B   7      17.264  -5.078  -8.7530  0.00  0.00     0.000 C
ENDBRANCH 97 104
ATOM    107   O  NAG B   7      18.752   2.099  -7.9920  0.00  0.00     0.000 O
ATOM    109  HD  NAG B   7      18.344   1.360  -8.1840  0.00  0.00     0.000 HD
ATOM    109   O  NAG B   7      18.752   2.099  -7.9920  0.00  0.00     0.000 O
ATOM    111  HD  NAG B   7      18.344   1.360  -8.1840  0.00  0.00     0.000 HD
ENDBRANCH 95 98
ENDBRANCH 82 95
ENDBRANCH 81 85
ENDBRANCH 65 81
ENDBRANCH 64 67
ENDBRANCH 51 64
ENDBRANCH 50 54
ENDBRANCH 34 50
ENDBRANCH 33 36
ENDBRANCH 20 33
ENDBRANCH 19 23
ENDBRANCH 1 19
TORSDOF 19
ENDMDL
MODEL 53
REMARK VINA RESULT:      -6.3      5.093      9.693
ROOT
ATOM      1  C1  NAG B   1       9.958 -14.892  14.0440  0.00  0.00     0.000 C
ATOM      2  C2  NAG B   1       9.600 -16.217  14.7100  0.00  0.00     0.000 C
ATOM      3  C3  NAG B   1       8.361 -16.840  14.1000  0.00  0.00     0.000 C
ATOM      4  C4  NAG B   1       7.261 -15.795  14.2560  0.00  0.00     0.000 C
ATOM      5  C5  NAG B   1       7.636 -14.545  13.4490  0.00  0.00     0.000 C
ATOM      6  O5  NAG B   1       8.867 -13.965  13.9310  0.00  0.00     0.000 O
ATOM      7   O  NAG B   1       7.994 -18.077  14.7530  0.00  0.00     0.000 O
ATOM      9  HD  NAG B   1       8.859 -18.096  14.7890  0.00  0.00     0.000 HD
ATOM      9   O  NAG B   1       6.026 -16.314  13.7900  0.00  0.00     0.000 O
ATOM     11  HD  NAG B   1       6.891 -16.334  13.8270  0.00  0.00     0.000 HD
ATOM     11   C  NAG B   1       6.481 -13.536  13.4800  0.00  0.00     0.000 C
ATOM     12   O  NAG B   1       6.960 -12.198  13.3540  0.00  0.00     0.000 O
ATOM     14  HD  NAG B   1       7.825 -12.217  13.3910  0.00  0.00     0.000 HD
ENDROOT
BRANCH 2 16
ATOM     14   N  NAG B   1      10.478 -16.577  15.8380  0.00  0.00     0.000 N
ATOM     16  HD  NAG B   1      10.583 -17.158  16.4720  0.00  0.00     0.000 HD
ATOM     16   C  NAG B   1      11.409 -17.544  15.7650  0.00  0.00     0.000 C
ATOM     17   C  NAG B   1      11.572 -18.336  14.4950  0.00  0.00     0.000 C
ATOM     18   O  NAG B   1      12.157 -17.783  16.7130  0.00  0.00     0.000 OA
ENDBRANCH 2 16
BRANCH 1 19
ATOM     19  O4  BDP B   2      10.876 -14.307  14.9570  0.00  0.00     0.000 O
BRANCH 19 23
ATOM     20  C1  BDP B   2      12.746 -11.913  12.1800  0.00  0.00     0.000 C
ATOM     21  C2  BDP B   2      13.295 -13.316  12.3380  0.00  0.00     0.000 C
ATOM     22  C3  BDP B   2      12.306 -14.215  13.0440  0.00  0.00     0.000 C
ATOM     23  C4  BDP B   2      11.899 -13.550  14.3560  0.00  0.00     0.000 C
ATOM     24  C5  BDP B   2      11.357 -12.163  14.0720  0.00  0.00     0.000 C
ATOM     25  O5  BDP B   2      12.355 -11.385  13.4400  0.00  0.00     0.000 O
ATOM     26   O  BDP B   2      13.617 -13.860  11.0760  0.00  0.00     0.000 O
ATOM     28  HD  BDP B   2      13.487 -13.031  10.8620  0.00  0.00     0.000 HD
ATOM     28   O  BDP B   2      12.904 -15.504  13.2540  0.00  0.00     0.000 O
ATOM     30  HD  BDP B   2      12.774 -14.675  13.0390  0.00  0.00     0.000 HD
BRANCH 24 30
ATOM     30   C  BDP B   2      10.951 -11.453  15.3130  0.00  0.00     0.000 C
ATOM     31   O  BDP B   2       9.758 -11.083  15.3990  0.00  0.00     0.000 OA
ATOM     32   O  BDP B   2      11.825 -11.255  16.2050  0.00  0.00     0.000 OA
ENDBRANCH 24 30
BRANCH 20 33
ATOM     33  O3  NAG B   3      13.838 -11.174  11.6880  0.00  0.00     0.000 O
BRANCH 33 36
ATOM     34  C1  NAG B   3      13.403  -8.231   9.3860  0.00  0.00     0.000 C
ATOM     35  C2  NAG B   3      13.593  -9.678   9.8000  0.00  0.00     0.000 C
ATOM     36  C3  NAG B   3      13.455  -9.846  11.3210  0.00  0.00     0.000 C
ATOM     37  C4  NAG B   3      14.377  -8.853  12.0250  0.00  0.00     0.000 C
ATOM     38  C5  NAG B   3      14.162  -7.447  11.4720  0.00  0.00     0.000 C
ATOM     39  O5  NAG B   3      14.367  -7.443  10.0690  0.00  0.00     0.000 O
ATOM     40   O  NAG B   3      14.115  -8.856  13.4370  0.00  0.00     0.000 O
ATOM     42  HD  NAG B   3      14.021  -8.007  13.2960  0.00  0.00     0.000 HD
ATOM     42   C  NAG B   3      15.135  -6.410  12.0270  0.00  0.00     0.000 C
ATOM     43   O  NAG B   3      16.465  -6.721  11.5950  0.00  0.00     0.000 O
ATOM     45  HD  NAG B   3      16.371  -5.872  11.4540  0.00  0.00     0.000 HD
BRANCH 35 47
ATOM     45   N  NAG B   3      13.902 -10.759   8.8730  0.00  0.00     0.000 N
ATOM     47  HD  NAG B   3      14.546 -10.602   9.4300  0.00  0.00     0.000 HD
ATOM     47   C  NAG B   3      13.006 -11.639   8.4740  0.00  0.00     0.000 C
ATOM     48   C  NAG B   3      13.495 -12.700   7.5330  0.00  0.00     0.000 C
ATOM     49   O  NAG B   3      11.843 -11.611   8.8700  0.00  0.00     0.000 OA
ENDBRANCH 35 47
BRANCH 34 50
ATOM     50  O4  BDP B   4      13.671  -8.243   7.9990  0.00  0.00     0.000 O
BRANCH 50 54
ATOM     51  C1  BDP B   4      12.754  -6.454   4.4620  0.00  0.00     0.000 C
ATOM     52  C2  BDP B   4      13.079  -5.486   5.5940  0.00  0.00     0.000 C
ATOM     53  C3  BDP B   4      13.749  -6.246   6.6970  0.00  0.00     0.000 C
ATOM     54  C4  BDP B   4      12.852  -7.441   7.1320  0.00  0.00     0.000 C
ATOM     55  C5  BDP B   4      12.382  -8.273   5.9460  0.00  0.00     0.000 C
ATOM     56  O5  BDP B   4      11.843  -7.432   4.9300  0.00  0.00     0.000 O
ATOM     57   O  BDP B   4      13.943  -4.468   5.1360  0.00  0.00     0.000 O
ATOM     59  HD  BDP B   4      13.432  -3.776   5.0350  0.00  0.00     0.000 HD
ATOM     59   O  BDP B   4      13.864  -5.346   7.8190  0.00  0.00     0.000 O
ATOM     61  HD  BDP B   4      13.352  -4.654   7.7180  0.00  0.00     0.000 HD
BRANCH 55 61
ATOM     61   C  BDP B   4      11.311  -9.244   6.4100  0.00  0.00     0.000 C
ATOM     62   O  BDP B   4      11.175 -10.322   5.7730  0.00  0.00     0.000 OA
ATOM     63   O  BDP B   4      10.606  -8.926   7.4160  0.00  0.00     0.000 OA
ENDBRANCH 55 61
BRANCH 51 64
ATOM     64  O3  NAG B   5      12.171  -5.682   3.3950  0.00  0.00     0.000 O
BRANCH 64 67
ATOM     65  C1  NAG B   5      12.678  -6.771  -0.0910  0.00  0.00     0.000 C
ATOM     66  C2  NAG B   5      13.005  -6.160   1.2600  0.00  0.00     0.000 C
ATOM     67  C3  NAG B   5      11.887  -6.463   2.2510  0.00  0.00     0.000 C
ATOM     68  C4  NAG B   5      10.521  -6.057   1.6810  0.00  0.00     0.000 C
ATOM     69  C5  NAG B   5      10.324  -6.640   0.2900  0.00  0.00     0.000 C
ATOM     70  O5  NAG B   5      11.435  -6.289  -0.5480  0.00  0.00     0.000 O
ATOM     71   O  NAG B   5       9.514  -6.496   2.5670  0.00  0.00     0.000 O
ATOM     73  HD  NAG B   5       9.186  -5.715   2.3890  0.00  0.00     0.000 HD
ATOM     73   C  NAG B   5       9.038  -6.182  -0.4110  0.00  0.00     0.000 C
ATOM     74   O  NAG B   5       9.091  -4.758  -0.6390  0.00  0.00     0.000 O
ATOM     76  HD  NAG B   5       8.763  -3.976  -0.8160  0.00  0.00     0.000 HD
BRANCH 66 78
ATOM     76   N  NAG B   5      14.366  -6.686   1.4770  0.00  0.00     0.000 N
ATOM     78  HD  NAG B   5      13.964  -5.921   1.5250  0.00  0.00     0.000 HD
ATOM     78   C  NAG B   5      15.384  -6.028   2.0530  0.00  0.00     0.000 C
ATOM     79   C  NAG B   5      16.647  -6.841   2.1480  0.00  0.00     0.000 C
ATOM     80   O  NAG B   5      15.293  -4.820   2.4730  0.00  0.00     0.000 OA
ENDBRANCH 66 78
BRANCH 65 81
ATOM     81  O4  BDP B   6      13.704  -6.450  -1.0390  0.00  0.00     0.000 O
BRANCH 81 85
ATOM     82  C1  BDP B   6      15.623  -8.383  -4.3470  0.00  0.00     0.000 C
ATOM     83  C2  BDP B   6      14.608  -7.288  -4.6620  0.00  0.00     0.000 C
ATOM     84  C3  BDP B   6      14.296  -6.400  -3.4540  0.00  0.00     0.000 C
ATOM     85  C4  BDP B   6      13.916  -7.223  -2.2220  0.00  0.00     0.000 C
ATOM     86  C5  BDP B   6      14.995  -8.315  -2.0280  0.00  0.00     0.000 C
ATOM     87  O5  BDP B   6      15.167  -9.132  -3.2300  0.00  0.00     0.000 O
ATOM     88   O  BDP B   6      15.204  -6.501  -5.6900  0.00  0.00     0.000 O
ATOM     90  HD  BDP B   6      15.306  -5.674  -5.9230  0.00  0.00     0.000 HD
ATOM     90   O  BDP B   6      13.259  -5.476  -3.7930  0.00  0.00     0.000 O
ATOM     92  HD  BDP B   6      13.361  -4.648  -4.0260  0.00  0.00     0.000 HD
BRANCH 86 92
ATOM     92   C  BDP B   6      14.561  -9.308  -0.9770  0.00  0.00     0.000 C
ATOM     93   O  BDP B   6      13.601 -10.100  -1.2250  0.00  0.00     0.000 OA
ATOM     94   O  BDP B   6      15.203  -9.320   0.1190  0.00  0.00     0.000 OA
ENDBRANCH 86 92
BRANCH 82 95
ATOM     95  O3  NAG B   7      15.696  -9.273  -5.4770  0.00  0.00     0.000 O
BRANCH 95 98
ATOM     96  C1  NAG B   7      18.261 -10.415  -7.8130  0.00  0.00     0.000 C
ATOM     97  C2  NAG B   7      16.885  -9.918  -7.3890  0.00  0.00     0.000 C
ATOM     98  C3  NAG B   7      16.964  -9.799  -5.8680  0.00  0.00     0.000 C
ATOM     99  C4  NAG B   7      17.279 -11.161  -5.2560  0.00  0.00     0.000 C
ATOM    100  C5  NAG B   7      18.540 -11.761  -5.8790  0.00  0.00     0.000 C
ATOM    101  O5  NAG B   7      18.409 -11.741  -7.2930  0.00  0.00     0.000 O
BRANCH 97 104
ATOM    102   N  NAG B   7      16.381  -8.578  -7.7160  0.00  0.00     0.000 N
ATOM    104  HD  NAG B   7      15.971  -7.816  -7.6720  0.00  0.00     0.000 HD
ATOM    104   O  NAG B   7      15.214  -7.019  -8.8720  0.00  0.00     0.000 OA
ATOM    105   C  NAG B   7      15.619  -8.192  -8.7570  0.00  0.00     0.000 C
ATOM    106   C  NAG B   7      15.238  -9.199  -9.7880  0.00  0.00     0.000 C
ENDBRANCH 97 104
ATOM    107   O  NAG B   7      20.066 -13.537  -5.7250  0.00  0.00     0.000 O
ATOM    109  HD  NAG B   7      19.979 -12.688  -5.8750  0.00  0.00     0.000 HD
ATOM    109   O  NAG B   7      20.066 -13.537  -5.7250  0.00  0.00     0.000 O
ATOM    111  HD  NAG B   7      19.979 -12.688  -5.8750  0.00  0.00     0.000 HD
ENDBRANCH 95 98
ENDBRANCH 82 95
ENDBRANCH 81 85
ENDBRANCH 65 81
ENDBRANCH 64 67
ENDBRANCH 51 64
ENDBRANCH 50 54
ENDBRANCH 34 50
ENDBRANCH 33 36
ENDBRANCH 20 33
ENDBRANCH 19 23
ENDBRANCH 1 19
TORSDOF 19
ENDMDL
MODEL 54
REMARK VINA RESULT:      -6.2      9.866     15.985
ROOT
ATOM      1  C1  NAG B   1       7.188   3.287  23.0130  0.00  0.00     0.000 C
ATOM      2  C2  NAG B   1       7.232   3.112  24.5290  0.00  0.00     0.000 C
ATOM      3  C3  NAG B   1       7.540   4.415  25.2380  0.00  0.00     0.000 C
ATOM      4  C4  NAG B   1       8.874   4.884  24.6690  0.00  0.00     0.000 C
ATOM      5  C5  NAG B   1       8.711   5.164  23.1690  0.00  0.00     0.000 C
ATOM      6  O5  NAG B   1       8.323   3.970  22.4570  0.00  0.00     0.000 O
ATOM      7   O  NAG B   1       7.621   4.249  26.6720  0.00  0.00     0.000 O
ATOM      9  HD  NAG B   1       7.002   3.683  26.4540  0.00  0.00     0.000 HD
ATOM      9   O  NAG B   1       9.301   6.062  25.3330  0.00  0.00     0.000 O
ATOM     11  HD  NAG B   1       8.683   5.497  25.1140  0.00  0.00     0.000 HD
ATOM     11   C  NAG B   1      10.003   5.767  22.6050  0.00  0.00     0.000 C
ATOM     12   O  NAG B   1      10.166   5.444  21.2250  0.00  0.00     0.000 O
ATOM     14  HD  NAG B   1       9.547   4.879  21.0060  0.00  0.00     0.000 HD
ENDROOT
BRANCH 2 16
ATOM     14   N  NAG B   1       5.966   2.424  24.8400  0.00  0.00     0.000 N
ATOM     16  HD  NAG B   1       5.465   1.761  24.5990  0.00  0.00     0.000 HD
ATOM     16   C  NAG B   1       5.905   1.287  25.5550  0.00  0.00     0.000 C
ATOM     17   C  NAG B   1       7.171   0.643  26.0530  0.00  0.00     0.000 C
ATOM     18   O  NAG B   1       4.825   0.768  25.8370  0.00  0.00     0.000 OA
ENDBRANCH 2 16
BRANCH 1 19
ATOM     19  O4  BDP B   2       7.260   1.952  22.5310  0.00  0.00     0.000 O
BRANCH 19 23
ATOM     20  C1  BDP B   2       9.748  -0.154  20.0180  0.00  0.00     0.000 C
ATOM     21  C2  BDP B   2      10.335   0.264  21.3510  0.00  0.00     0.000 C
ATOM     22  C3  BDP B   2       9.249   0.641  22.3330  0.00  0.00     0.000 C
ATOM     23  C4  BDP B   2       8.354   1.693  21.6850  0.00  0.00     0.000 C
ATOM     24  C5  BDP B   2       7.819   1.160  20.3700  0.00  0.00     0.000 C
ATOM     25  O5  BDP B   2       8.899   0.863  19.5050  0.00  0.00     0.000 O
ATOM     26   O  BDP B   2      11.122  -0.777  21.8880  0.00  0.00     0.000 O
ATOM     28  HD  BDP B   2      10.999  -1.071  21.0830  0.00  0.00     0.000 HD
ATOM     28   O  BDP B   2       9.852   1.118  23.5460  0.00  0.00     0.000 O
ATOM     30  HD  BDP B   2       9.729   0.824  22.7410  0.00  0.00     0.000 HD
BRANCH 24 30
ATOM     30   C  BDP B   2       6.946   2.144  19.6780  0.00  0.00     0.000 C
ATOM     31   O  BDP B   2       5.725   1.875  19.6040  0.00  0.00     0.000 OA
ATOM     32   O  BDP B   2       7.477   3.185  19.1980  0.00  0.00     0.000 OA
ENDBRANCH 24 30
BRANCH 20 33
ATOM     33  O3  NAG B   3      10.870  -0.286  19.1800  0.00  0.00     0.000 O
BRANCH 33 36
ATOM     34  C1  NAG B   3      10.534  -2.484  16.1450  0.00  0.00     0.000 C
ATOM     35  C2  NAG B   3      10.716  -2.120  17.6070  0.00  0.00     0.000 C
ATOM     36  C3  NAG B   3      10.494  -0.618  17.8410  0.00  0.00     0.000 C
ATOM     37  C4  NAG B   3      11.362   0.179  16.8710  0.00  0.00     0.000 C
ATOM     38  C5  NAG B   3      11.163  -0.326  15.4440  0.00  0.00     0.000 C
ATOM     39  O5  NAG B   3      11.448  -1.713  15.3790  0.00  0.00     0.000 O
ATOM     40   O  NAG B   3      11.020   1.572  16.9360  0.00  0.00     0.000 O
ATOM     42  HD  NAG B   3      10.924   1.462  16.0830  0.00  0.00     0.000 HD
ATOM     42   C  NAG B   3      12.090   0.327  14.4230  0.00  0.00     0.000 C
ATOM     43   O  NAG B   3      13.446  -0.040  14.7030  0.00  0.00     0.000 O
ATOM     45  HD  NAG B   3      13.350  -0.151  13.8500  0.00  0.00     0.000 HD
BRANCH 35 47
ATOM     45   N  NAG B   3       9.859  -3.016  18.3730  0.00  0.00     0.000 N
ATOM     47  HD  NAG B   3       9.788  -3.136  17.5180  0.00  0.00     0.000 HD
ATOM     47   C  NAG B   3      10.229  -3.559  19.5160  0.00  0.00     0.000 C
ATOM     48   C  NAG B   3       9.234  -4.474  20.1650  0.00  0.00     0.000 C
ATOM     49   O  NAG B   3      11.336  -3.350  20.0080  0.00  0.00     0.000 OA
ENDBRANCH 35 47
BRANCH 34 50
ATOM     50  O4  BDP B   4      10.881  -3.852  16.0960  0.00  0.00     0.000 O
BRANCH 50 54
ATOM     51  C1  BDP B   4       9.212  -7.396  14.9960  0.00  0.00     0.000 C
ATOM     52  C2  BDP B   4      10.393  -6.959  14.1360  0.00  0.00     0.000 C
ATOM     53  C3  BDP B   4      11.132  -5.872  14.8530  0.00  0.00     0.000 C
ATOM     54  C4  BDP B   4      10.153  -4.716  15.2070  0.00  0.00     0.000 C
ATOM     55  C5  BDP B   4       8.888  -5.217  15.8910  0.00  0.00     0.000 C
ATOM     56  O5  BDP B   4       8.325  -6.304  15.1620  0.00  0.00     0.000 O
ATOM     57   O  BDP B   4      11.264  -8.047  13.9110  0.00  0.00     0.000 O
ATOM     59  HD  BDP B   4      11.094  -8.298  13.0990  0.00  0.00     0.000 HD
ATOM     59   O  BDP B   4      12.115  -5.355  13.9320  0.00  0.00     0.000 O
ATOM     61  HD  BDP B   4      11.946  -5.606  13.1210  0.00  0.00     0.000 HD
BRANCH 55 61
ATOM     61   C  BDP B   4       7.877  -4.088  15.9630  0.00  0.00     0.000 C
ATOM     62   O  BDP B   4       7.479  -3.722  17.1010  0.00  0.00     0.000 OA
ATOM     63   O  BDP B   4       7.481  -3.565  14.8770  0.00  0.00     0.000 OA
ENDBRANCH 55 61
BRANCH 51 64
ATOM     64  O3  NAG B   5       8.563  -8.483  14.3100  0.00  0.00     0.000 O
BRANCH 64 67
ATOM     65  C1  NAG B   5       7.821 -12.024  15.0230  0.00  0.00     0.000 C
ATOM     66  C2  NAG B   5       8.315 -10.810  14.2550  0.00  0.00     0.000 C
ATOM     67  C3  NAG B   5       8.302  -9.584  15.1590  0.00  0.00     0.000 C
ATOM     68  C4  NAG B   5       6.929  -9.403  15.8220  0.00  0.00     0.000 C
ATOM     69  C5  NAG B   5       6.479 -10.696  16.4840  0.00  0.00     0.000 C
ATOM     70  O5  NAG B   5       6.534 -11.774  15.5390  0.00  0.00     0.000 O
ATOM     71   O  NAG B   5       7.016  -8.351  16.7590  0.00  0.00     0.000 O
ATOM     73  HD  NAG B   5       6.246  -8.146  16.4190  0.00  0.00     0.000 HD
ATOM     73   C  NAG B   5       5.058 -10.647  17.0650  0.00  0.00     0.000 C
ATOM     74   O  NAG B   5       4.106 -10.456  15.9980  0.00  0.00     0.000 O
ATOM     76  HD  NAG B   5       3.337 -10.250  15.6570  0.00  0.00     0.000 HD
BRANCH 66 78
ATOM     76   N  NAG B   5       9.706 -10.928  13.7760  0.00  0.00     0.000 N
ATOM     78  HD  NAG B   5       8.910 -11.025  13.4500  0.00  0.00     0.000 HD
ATOM     78   C  NAG B   5      10.092 -11.056  12.4970  0.00  0.00     0.000 C
ATOM     79   C  NAG B   5      11.585 -11.135  12.3260  0.00  0.00     0.000 C
ATOM     80   O  NAG B   5       9.268 -11.113  11.5160  0.00  0.00     0.000 OA
ENDBRANCH 66 78
BRANCH 65 81
ATOM     81  O4  BDP B   6       7.788 -13.171  14.1640  0.00  0.00     0.000 O
BRANCH 81 85
ATOM     82  C1  BDP B   6       8.385 -17.412  14.2920  0.00  0.00     0.000 C
ATOM     83  C2  BDP B   6       7.245 -16.835  15.1270  0.00  0.00     0.000 C
ATOM     84  C3  BDP B   6       6.860 -15.414  14.7060  0.00  0.00     0.000 C
ATOM     85  C4  BDP B   6       8.076 -14.487  14.6410  0.00  0.00     0.000 C
ATOM     86  C5  BDP B   6       9.168 -15.193  13.8030  0.00  0.00     0.000 C
ATOM     87  O5  BDP B   6       9.489 -16.520  14.3320  0.00  0.00     0.000 O
ATOM     88   O  BDP B   6       6.140 -17.710  14.9180  0.00  0.00     0.000 O
ATOM     90  HD  BDP B   6       5.285 -17.684  14.7840  0.00  0.00     0.000 HD
ATOM     90   O  BDP B   6       5.871 -14.900  15.6010  0.00  0.00     0.000 O
ATOM     92  HD  BDP B   6       5.016 -14.875  15.4660  0.00  0.00     0.000 HD
BRANCH 86 92
ATOM     92   C  BDP B   6      10.475 -14.443  13.8970  0.00  0.00     0.000 C
ATOM     93   O  BDP B   6      10.755 -13.807  14.9580  0.00  0.00     0.000 OA
ATOM     94   O  BDP B   6      11.258 -14.503  12.8990  0.00  0.00     0.000 OA
ENDBRANCH 86 92
BRANCH 82 95
ATOM     95  O3  NAG B   7       8.800 -18.656  14.8900  0.00  0.00     0.000 O
BRANCH 95 98
ATOM     96  C1  NAG B   7       9.750 -21.911  13.5330  0.00  0.00     0.000 C
ATOM     97  C2  NAG B   7       8.964 -20.941  14.4050  0.00  0.00     0.000 C
ATOM     98  C3  NAG B   7       9.577 -19.572  14.1200  0.00  0.00     0.000 C
ATOM     99  C4  NAG B   7      11.059 -19.580  14.4880  0.00  0.00     0.000 C
ATOM    100  C5  NAG B   7      11.790 -20.726  13.7860  0.00  0.00     0.000 C
ATOM    101  O5  NAG B   7      11.092 -21.936  14.0330  0.00  0.00     0.000 O
BRANCH 97 104
ATOM    102   N  NAG B   7       7.547 -20.617  14.1920  0.00  0.00     0.000 N
ATOM    104  HD  NAG B   7       6.792 -20.194  14.1630  0.00  0.00     0.000 HD
ATOM    104   O  NAG B   7       5.308 -20.776  14.4940  0.00  0.00     0.000 OA
ATOM    105   C  NAG B   7       6.457 -21.202  14.7230  0.00  0.00     0.000 C
ATOM    106   C  NAG B   7       6.632 -22.380  15.6200  0.00  0.00     0.000 C
ENDBRANCH 97 104
ATOM    107   O  NAG B   7      13.906 -21.653  13.3820  0.00  0.00     0.000 O
ATOM    109  HD  NAG B   7      13.132 -21.477  13.0350  0.00  0.00     0.000 HD
ATOM    109   O  NAG B   7      13.906 -21.653  13.3820  0.00  0.00     0.000 O
ATOM    111  HD  NAG B   7      13.132 -21.477  13.0350  0.00  0.00     0.000 HD
ENDBRANCH 95 98
ENDBRANCH 82 95
ENDBRANCH 81 85
ENDBRANCH 65 81
ENDBRANCH 64 67
ENDBRANCH 51 64
ENDBRANCH 50 54
ENDBRANCH 34 50
ENDBRANCH 33 36
ENDBRANCH 20 33
ENDBRANCH 19 23
ENDBRANCH 1 19
TORSDOF 19
ENDMDL
MODEL 55
REMARK VINA RESULT:      -6.2     12.484     18.220
ROOT
ATOM      1  C1  NAG B   1      10.855 -12.775  11.3520  0.00  0.00     0.000 C
ATOM      2  C2  NAG B   1      12.309 -13.192  11.1520  0.00  0.00     0.000 C
ATOM      3  C3  NAG B   1      12.532 -14.649  11.5000  0.00  0.00     0.000 C
ATOM      4  C4  NAG B   1      12.079 -14.796  12.9490  0.00  0.00     0.000 C
ATOM      5  C5  NAG B   1      10.579 -14.488  13.0420  0.00  0.00     0.000 C
ATOM      6  O5  NAG B   1      10.300 -13.134  12.6270  0.00  0.00     0.000 O
ATOM      7   O  NAG B   1      13.915 -15.041  11.3500  0.00  0.00     0.000 O
ATOM      9  HD  NAG B   1      13.813 -14.468  10.7090  0.00  0.00     0.000 HD
ATOM      9   O  NAG B   1      12.328 -16.115  13.4070  0.00  0.00     0.000 O
ATOM     11  HD  NAG B   1      12.225 -15.541  12.7660  0.00  0.00     0.000 HD
ATOM     11   C  NAG B   1      10.075 -14.762  14.4640  0.00  0.00     0.000 C
ATOM     12   O  NAG B   1       8.964 -13.928  14.7890  0.00  0.00     0.000 O
ATOM     14  HD  NAG B   1       8.862 -13.355  14.1490  0.00  0.00     0.000 HD
ENDROOT
BRANCH 2 16
ATOM     14   N  NAG B   1      13.423 -12.310  10.7610  0.00  0.00     0.000 N
ATOM     16  HD  NAG B   1      14.228 -12.316  10.4400  0.00  0.00     0.000 HD
ATOM     16   C  NAG B   1      13.679 -11.969   9.4860  0.00  0.00     0.000 C
ATOM     17   C  NAG B   1      12.822 -12.518   8.3760  0.00  0.00     0.000 C
ATOM     18   O  NAG B   1      14.588 -11.190   9.2030  0.00  0.00     0.000 OA
ENDBRANCH 2 16
BRANCH 1 19
ATOM     19  O4  BDP B   2      10.920 -11.356  11.3390  0.00  0.00     0.000 O
BRANCH 19 23
ATOM     20  C1  BDP B   2      10.061  -8.334  13.9980  0.00  0.00     0.000 C
ATOM     21  C2  BDP B   2      11.125  -9.323  14.4250  0.00  0.00     0.000 C
ATOM     22  C3  BDP B   2      11.649 -10.108  13.2430  0.00  0.00     0.000 C
ATOM     23  C4  BDP B   2      10.463 -10.738  12.5180  0.00  0.00     0.000 C
ATOM     24  C5  BDP B   2       9.475  -9.654  12.1320  0.00  0.00     0.000 C
ATOM     25  O5  BDP B   2       9.017  -8.994  13.2960  0.00  0.00     0.000 O
ATOM     26   O  BDP B   2      12.192  -8.651  15.0600  0.00  0.00     0.000 O
ATOM     28  HD  BDP B   2      11.603  -8.017  15.0280  0.00  0.00     0.000 HD
ATOM     28   O  BDP B   2      12.584 -11.095  13.7070  0.00  0.00     0.000 O
ATOM     30  HD  BDP B   2      11.995 -10.461  13.6760  0.00  0.00     0.000 HD
BRANCH 24 30
ATOM     30   C  BDP B   2       8.286 -10.203  11.4290  0.00  0.00     0.000 C
ATOM     31   O  BDP B   2       8.052  -9.774  10.2750  0.00  0.00     0.000 OA
ATOM     32   O  BDP B   2       7.575 -11.060  12.0280  0.00  0.00     0.000 OA
ENDBRANCH 24 30
BRANCH 20 33
ATOM     33  O3  NAG B   3       9.557  -7.832  15.2120  0.00  0.00     0.000 O
BRANCH 33 36
ATOM     34  C1  NAG B   3       8.490  -4.243  15.5760  0.00  0.00     0.000 C
ATOM     35  C2  NAG B   3       9.419  -5.442  15.5780  0.00  0.00     0.000 C
ATOM     36  C3  NAG B   3       8.724  -6.688  15.0060  0.00  0.00     0.000 C
ATOM     37  C4  NAG B   3       7.398  -6.905  15.7310  0.00  0.00     0.000 C
ATOM     38  C5  NAG B   3       6.584  -5.614  15.7420  0.00  0.00     0.000 C
ATOM     39  O5  NAG B   3       7.338  -4.572  16.3380  0.00  0.00     0.000 O
ATOM     40   O  NAG B   3       6.645  -7.939  15.0780  0.00  0.00     0.000 O
ATOM     42  HD  NAG B   3       6.041  -7.319  15.0640  0.00  0.00     0.000 HD
ATOM     42   C  NAG B   3       5.298  -5.703  16.5600  0.00  0.00     0.000 C
ATOM     43   O  NAG B   3       5.622  -5.886  17.9440  0.00  0.00     0.000 O
ATOM     45  HD  NAG B   3       5.017  -5.265  17.9290  0.00  0.00     0.000 HD
BRANCH 35 47
ATOM     45   N  NAG B   3      10.637  -5.110  14.8510  0.00  0.00     0.000 N
ATOM     47  HD  NAG B   3      10.026  -4.501  14.7730  0.00  0.00     0.000 HD
ATOM     47   C  NAG B   3      11.843  -5.382  15.3100  0.00  0.00     0.000 C
ATOM     48   C  NAG B   3      12.991  -4.954  14.4450  0.00  0.00     0.000 C
ATOM     49   O  NAG B   3      12.018  -5.930  16.3960  0.00  0.00     0.000 OA
ENDBRANCH 35 47
BRANCH 34 50
ATOM     50  O4  BDP B   4       9.240  -3.239  16.2270  0.00  0.00     0.000 O
BRANCH 50 54
ATOM     51  C1  BDP B   4       9.415   0.796  16.7150  0.00  0.00     0.000 C
ATOM     52  C2  BDP B   4       8.006   0.242  16.5350  0.00  0.00     0.000 C
ATOM     53  C3  BDP B   4       8.044  -1.241  16.7420  0.00  0.00     0.000 C
ATOM     54  C4  BDP B   4       9.096  -1.877  15.7880  0.00  0.00     0.000 C
ATOM     55  C5  BDP B   4      10.441  -1.166  15.8510  0.00  0.00     0.000 C
ATOM     56  O5  BDP B   4      10.265   0.242  15.7280  0.00  0.00     0.000 O
ATOM     57   O  BDP B   4       7.127   0.823  17.4740  0.00  0.00     0.000 O
ATOM     59  HD  BDP B   4       6.679   1.409  17.0200  0.00  0.00     0.000 HD
ATOM     59   O  BDP B   4       6.746  -1.749  16.3750  0.00  0.00     0.000 O
ATOM     61  HD  BDP B   4       6.297  -1.164  15.9210  0.00  0.00     0.000 HD
BRANCH 55 61
ATOM     61   C  BDP B   4      11.322  -1.660  14.7180  0.00  0.00     0.000 C
ATOM     62   O  BDP B   4      10.772  -2.273  13.7650  0.00  0.00     0.000 OA
ATOM     63   O  BDP B   4      12.569  -1.432  14.7830  0.00  0.00     0.000 OA
ENDBRANCH 55 61
BRANCH 51 64
ATOM     64  O3  NAG B   5       9.332   2.228  16.5740  0.00  0.00     0.000 O
BRANCH 64 67
ATOM     65  C1  NAG B   5      11.322   4.555  18.6270  0.00  0.00     0.000 C
ATOM     66  C2  NAG B   5      10.178   3.633  18.2440  0.00  0.00     0.000 C
ATOM     67  C3  NAG B   5      10.523   2.883  16.9640  0.00  0.00     0.000 C
ATOM     68  C4  NAG B   5      10.958   3.853  15.8570  0.00  0.00     0.000 C
ATOM     69  C5  NAG B   5      12.040   4.795  16.3630  0.00  0.00     0.000 C
ATOM     70  O5  NAG B   5      11.602   5.441  17.5670  0.00  0.00     0.000 O
ATOM     71   O  NAG B   5      11.410   3.103  14.7500  0.00  0.00     0.000 O
ATOM     73  HD  NAG B   5      10.960   3.701  14.3150  0.00  0.00     0.000 HD
ATOM     73   C  NAG B   5      12.447   5.885  15.3620  0.00  0.00     0.000 C
ATOM     74   O  NAG B   5      11.324   6.755  15.1090  0.00  0.00     0.000 O
ATOM     76  HD  NAG B   5      10.874   7.353  14.6740  0.00  0.00     0.000 HD
BRANCH 66 78
ATOM     76   N  NAG B   5       9.978   2.834  19.4690  0.00  0.00     0.000 N
ATOM     78  HD  NAG B   5       9.498   3.333  18.9480  0.00  0.00     0.000 HD
ATOM     78   C  NAG B   5       8.795   2.517  20.0200  0.00  0.00     0.000 C
ATOM     79   C  NAG B   5       8.918   1.674  21.2590  0.00  0.00     0.000 C
ATOM     80   O  NAG B   5       7.670   2.904  19.5410  0.00  0.00     0.000 OA
ENDBRANCH 66 78
BRANCH 65 81
ATOM     81  O4  BDP B   6      10.983   5.298  19.8060  0.00  0.00     0.000 O
BRANCH 81 85
ATOM     82  C1  BDP B   6      12.965   7.148  23.1240  0.00  0.00     0.000 C
ATOM     83  C2  BDP B   6      12.669   8.017  21.9050  0.00  0.00     0.000 C
ATOM     84  C3  BDP B   6      11.624   7.399  20.9730  0.00  0.00     0.000 C
ATOM     85  C4  BDP B   6      11.972   5.956  20.6010  0.00  0.00     0.000 C
ATOM     86  C5  BDP B   6      12.284   5.189  21.9080  0.00  0.00     0.000 C
ATOM     87  O5  BDP B   6      13.333   5.847  22.6890  0.00  0.00     0.000 O
ATOM     88   O  BDP B   6      12.174   9.247  22.4270  0.00  0.00     0.000 O
ATOM     90  HD  BDP B   6      11.556   9.835  22.2770  0.00  0.00     0.000 HD
ATOM     90   O  BDP B   6      11.485   8.210  19.8030  0.00  0.00     0.000 O
ATOM     92  HD  BDP B   6      10.867   8.798  19.6530  0.00  0.00     0.000 HD
BRANCH 86 92
ATOM     92   C  BDP B   6      12.863   3.830  21.6000  0.00  0.00     0.000 C
ATOM     93   O  BDP B   6      12.163   2.792  21.8060  0.00  0.00     0.000 OA
ATOM     94   O  BDP B   6      14.038   3.788  21.1200  0.00  0.00     0.000 OA
ENDBRANCH 86 92
BRANCH 82 95
ATOM     95  O3  NAG B   7      14.090   7.715  23.8240  0.00  0.00     0.000 O
BRANCH 95 98
ATOM     96  C1  NAG B   7      14.861   8.554  27.2940  0.00  0.00     0.000 C
ATOM     97  C2  NAG B   7      14.773   8.786  25.7910  0.00  0.00     0.000 C
ATOM     98  C3  NAG B   7      14.231   7.476  25.2230  0.00  0.00     0.000 C
ATOM     99  C4  NAG B   7      15.184   6.331  25.5580  0.00  0.00     0.000 C
ATOM    100  C5  NAG B   7      15.456   6.269  27.0620  0.00  0.00     0.000 C
ATOM    101  O5  NAG B   7      15.862   7.554  27.5090  0.00  0.00     0.000 O
BRANCH 97 104
ATOM    102   N  NAG B   7      13.817   9.755  25.2380  0.00  0.00     0.000 N
ATOM    104  HD  NAG B   7      13.214  10.129  24.7410  0.00  0.00     0.000 HD
ATOM    104   O  NAG B   7      13.139  11.683  24.2630  0.00  0.00     0.000 OA
ATOM    105   C  NAG B   7      14.050  10.992  24.7600  0.00  0.00     0.000 C
ATOM    106   C  NAG B   7      15.434  11.542  24.8150  0.00  0.00     0.000 C
ENDBRANCH 97 104
ATOM    107   O  NAG B   7      16.486   5.003  28.7470  0.00  0.00     0.000 O
ATOM    109  HD  NAG B   7      15.793   5.481  28.5440  0.00  0.00     0.000 HD
ATOM    109   O  NAG B   7      16.486   5.003  28.7470  0.00  0.00     0.000 O
ATOM    111  HD  NAG B   7      15.793   5.481  28.5440  0.00  0.00     0.000 HD
ENDBRANCH 95 98
ENDBRANCH 82 95
ENDBRANCH 81 85
ENDBRANCH 65 81
ENDBRANCH 64 67
ENDBRANCH 51 64
ENDBRANCH 50 54
ENDBRANCH 34 50
ENDBRANCH 33 36
ENDBRANCH 20 33
ENDBRANCH 19 23
ENDBRANCH 1 19
TORSDOF 19
ENDMDL
MODEL 56
REMARK VINA RESULT:      -6.2     10.880     18.869
ROOT
ATOM      1  C1  NAG B   1      12.262   8.091  13.6520  0.00  0.00     0.000 C
ATOM      2  C2  NAG B   1      11.766   8.348  12.2320  0.00  0.00     0.000 C
ATOM      3  C3  NAG B   1      11.179   9.736  12.0820  0.00  0.00     0.000 C
ATOM      4  C4  NAG B   1      10.058   9.819  13.1130  0.00  0.00     0.000 C
ATOM      5  C5  NAG B   1      10.657   9.683  14.5190  0.00  0.00     0.000 C
ATOM      6  O5  NAG B   1      11.315   8.409  14.6830  0.00  0.00     0.000 O
ATOM      7   O  NAG B   1      10.671   9.973  10.7490  0.00  0.00     0.000 O
ATOM      9  HD  NAG B   1      11.359   9.469  10.6000  0.00  0.00     0.000 HD
ATOM      9   O  NAG B   1       9.379  11.058  12.9980  0.00  0.00     0.000 O
ATOM     11  HD  NAG B   1      10.067  10.554  12.8490  0.00  0.00     0.000 HD
ATOM     11   C  NAG B   1       9.567   9.901  15.5760  0.00  0.00     0.000 C
ATOM     12   O  NAG B   1       9.855   9.180  16.7720  0.00  0.00     0.000 O
ATOM     14  HD  NAG B   1      10.543   8.675  16.6230  0.00  0.00     0.000 HD
ENDROOT
BRANCH 2 16
ATOM     14   N  NAG B   1      12.903   8.005  11.3590  0.00  0.00     0.000 N
ATOM     16  HD  NAG B   1      13.517   7.408  11.2300  0.00  0.00     0.000 HD
ATOM     16   C  NAG B   1      12.819   7.109  10.3600  0.00  0.00     0.000 C
ATOM     17   C  NAG B   1      11.524   6.382  10.1100  0.00  0.00     0.000 C
ATOM     18   O  NAG B   1      13.777   6.886   9.6210  0.00  0.00     0.000 OA
ENDBRANCH 2 16
BRANCH 1 19
ATOM     19  O4  BDP B   2      12.421   6.679  13.6880  0.00  0.00     0.000 O
BRANCH 19 23
ATOM     20  C1  BDP B   2      10.998   3.629  16.0590  0.00  0.00     0.000 C
ATOM     21  C2  BDP B   2      10.059   4.144  14.9890  0.00  0.00     0.000 C
ATOM     22  C3  BDP B   2      10.805   4.935  13.9380  0.00  0.00     0.000 C
ATOM     23  C4  BDP B   2      11.614   6.024  14.6380  0.00  0.00     0.000 C
ATOM     24  C5  BDP B   2      12.522   5.390  15.6730  0.00  0.00     0.000 C
ATOM     25  O5  BDP B   2      11.740   4.699  16.6290  0.00  0.00     0.000 O
ATOM     26   O  BDP B   2       9.375   3.070  14.3790  0.00  0.00     0.000 O
ATOM     28  HD  BDP B   2       9.730   2.666  15.0590  0.00  0.00     0.000 HD
ATOM     28   O  BDP B   2       9.865   5.480  12.9990  0.00  0.00     0.000 O
ATOM     30  HD  BDP B   2      10.219   5.076  13.6790  0.00  0.00     0.000 HD
BRANCH 24 30
ATOM     30   C  BDP B   2      13.333   6.401  16.4020  0.00  0.00     0.000 C
ATOM     31   O  BDP B   2      14.545   6.493  16.0970  0.00  0.00     0.000 OA
ATOM     32   O  BDP B   2      12.766   7.101  17.2890  0.00  0.00     0.000 OA
ENDBRANCH 24 30
BRANCH 20 33
ATOM     33  O3  NAG B   3      10.140   3.091  17.0350  0.00  0.00     0.000 O
BRANCH 33 36
ATOM     34  C1  NAG B   3      11.069   0.506  19.6050  0.00  0.00     0.000 C
ATOM     35  C2  NAG B   3      10.487   1.070  18.3240  0.00  0.00     0.000 C
ATOM     36  C3  NAG B   3      10.869   2.547  18.1380  0.00  0.00     0.000 C
ATOM     37  C4  NAG B   3      10.508   3.325  19.4010  0.00  0.00     0.000 C
ATOM     38  C5  NAG B   3      11.072   2.623  20.6340  0.00  0.00     0.000 C
ATOM     39  O5  NAG B   3      10.596   1.289  20.6910  0.00  0.00     0.000 O
ATOM     40   O  NAG B   3      11.038   4.657  19.3250  0.00  0.00     0.000 O
ATOM     42  HD  NAG B   3      11.386   4.429  20.0850  0.00  0.00     0.000 HD
ATOM     42   C  NAG B   3      10.648   3.262  21.9550  0.00  0.00     0.000 C
ATOM     43   O  NAG B   3       9.233   3.116  22.1250  0.00  0.00     0.000 O
ATOM     45  HD  NAG B   3       9.581   2.888  22.8850  0.00  0.00     0.000 HD
BRANCH 35 47
ATOM     45   N  NAG B   3      10.900   0.207  17.2240  0.00  0.00     0.000 N
ATOM     47  HD  NAG B   3      11.264  -0.016  17.9780  0.00  0.00     0.000 HD
ATOM     47   C  NAG B   3      10.081  -0.171  16.2630  0.00  0.00     0.000 C
ATOM     48   C  NAG B   3      10.662  -1.077  15.2180  0.00  0.00     0.000 C
ATOM     49   O  NAG B   3       8.902   0.175  16.2380  0.00  0.00     0.000 OA
ENDBRANCH 35 47
BRANCH 34 50
ATOM     50  O4  BDP B   4      10.534  -0.799  19.6700  0.00  0.00     0.000 O
BRANCH 50 54
ATOM     51  C1  BDP B   4      11.151  -4.563  21.0850  0.00  0.00     0.000 C
ATOM     52  C2  BDP B   4      10.661  -3.568  22.1300  0.00  0.00     0.000 C
ATOM     53  C3  BDP B   4      10.125  -2.359  21.4270  0.00  0.00     0.000 C
ATOM     54  C4  BDP B   4      11.209  -1.783  20.4710  0.00  0.00     0.000 C
ATOM     55  C5  BDP B   4      11.820  -2.852  19.5760  0.00  0.00     0.000 C
ATOM     56  O5  BDP B   4      12.213  -3.983  20.3480  0.00  0.00     0.000 O
ATOM     57   O  BDP B   4       9.639  -4.144  22.9150  0.00  0.00     0.000 O
ATOM     59  HD  BDP B   4      10.026  -4.348  23.6620  0.00  0.00     0.000 HD
ATOM     59   O  BDP B   4       9.853  -1.369  22.4400  0.00  0.00     0.000 O
ATOM     61  HD  BDP B   4      10.241  -1.573  23.1880  0.00  0.00     0.000 HD
BRANCH 55 61
ATOM     61   C  BDP B   4      13.038  -2.281  18.8730  0.00  0.00     0.000 C
ATOM     62   O  BDP B   4      14.073  -2.073  19.5580  0.00  0.00     0.000 OA
ATOM     63   O  BDP B   4      12.956  -2.042  17.6290  0.00  0.00     0.000 OA
ENDBRANCH 55 61
BRANCH 51 64
ATOM     64  O3  NAG B   5      11.600  -5.737  21.7900  0.00  0.00     0.000 O
BRANCH 64 67
ATOM     65  C1  NAG B   5      10.913  -8.952  20.1210  0.00  0.00     0.000 C
ATOM     66  C2  NAG B   5      10.631  -7.648  20.8470  0.00  0.00     0.000 C
ATOM     67  C3  NAG B   5      11.902  -6.811  20.9210  0.00  0.00     0.000 C
ATOM     68  C4  NAG B   5      13.065  -7.626  21.5030  0.00  0.00     0.000 C
ATOM     69  C5  NAG B   5      13.210  -8.952  20.7730  0.00  0.00     0.000 C
ATOM     70  O5  NAG B   5      11.954  -9.647  20.7680  0.00  0.00     0.000 O
ATOM     71   O  NAG B   5      14.246  -6.859  21.4080  0.00  0.00     0.000 O
ATOM     73  HD  NAG B   5      14.372  -7.175  22.2040  0.00  0.00     0.000 HD
ATOM     73   C  NAG B   5      14.269  -9.890  21.3700  0.00  0.00     0.000 C
ATOM     74   O  NAG B   5      13.878 -10.273  22.7050  0.00  0.00     0.000 O
ATOM     76  HD  NAG B   5      14.003 -10.589  23.5020  0.00  0.00     0.000 HD
BRANCH 66 78
ATOM     76   N  NAG B   5       9.264  -7.304  21.2820  0.00  0.00     0.000 N
ATOM     78  HD  NAG B   5       9.823  -7.044  20.6750  0.00  0.00     0.000 HD
ATOM     78   C  NAG B   5       8.397  -6.523  20.6180  0.00  0.00     0.000 C
ATOM     79   C  NAG B   5       7.070  -6.376  21.3110  0.00  0.00     0.000 C
ATOM     80   O  NAG B   5       8.678  -5.949  19.5060  0.00  0.00     0.000 OA
ENDBRANCH 66 78
BRANCH 65 81
ATOM     81  O4  BDP B   6       9.732  -9.763  20.0900  0.00  0.00     0.000 O
BRANCH 81 85
ATOM     82  C1  BDP B   6       7.752 -12.615  17.5780  0.00  0.00     0.000 C
ATOM     83  C2  BDP B   6       9.160 -12.956  18.0570  0.00  0.00     0.000 C
ATOM     84  C3  BDP B   6       9.607 -12.100  19.2460  0.00  0.00     0.000 C
ATOM     85  C4  BDP B   6       9.417 -10.605  18.9780  0.00  0.00     0.000 C
ATOM     86  C5  BDP B   6       7.972 -10.393  18.4680  0.00  0.00     0.000 C
ATOM     87  O5  BDP B   6       7.678 -11.225  17.2990  0.00  0.00     0.000 O
ATOM     88   O  BDP B   6       9.108 -14.325  18.4480  0.00  0.00     0.000 O
ATOM     90  HD  BDP B   6       9.390 -14.851  19.0760  0.00  0.00     0.000 HD
ATOM     90   O  BDP B   6      10.970 -12.394  19.5630  0.00  0.00     0.000 O
ATOM     92  HD  BDP B   6      11.252 -12.920  20.1910  0.00  0.00     0.000 HD
BRANCH 86 92
ATOM     92   C  BDP B   6       7.790  -8.983  17.9610  0.00  0.00     0.000 C
ATOM     93   O  BDP B   6       6.746  -8.336  18.2760  0.00  0.00     0.000 OA
ATOM     94   O  BDP B   6       8.720  -8.493  17.2470  0.00  0.00     0.000 OA
ENDBRANCH 86 92
BRANCH 82 95
ATOM     95  O3  NAG B   7       7.507 -13.327  16.3490  0.00  0.00     0.000 O
BRANCH 95 98
ATOM     96  C1  NAG B   7       5.130 -15.587  14.7410  0.00  0.00     0.000 C
ATOM     97  C2  NAG B   7       6.438 -14.821  14.8970  0.00  0.00     0.000 C
ATOM     98  C3  NAG B   7       6.259 -13.995  16.1690  0.00  0.00     0.000 C
ATOM     99  C4  NAG B   7       5.072 -13.047  16.0090  0.00  0.00     0.000 C
ATOM    100  C5  NAG B   7       3.812 -13.814  15.6060  0.00  0.00     0.000 C
ATOM    101  O5  NAG B   7       4.106 -14.622  14.4770  0.00  0.00     0.000 O
BRANCH 97 104
ATOM    102   N  NAG B   7       7.618 -15.675  15.0890  0.00  0.00     0.000 N
ATOM    104  HD  NAG B   7       8.294 -16.081  15.4460  0.00  0.00     0.000 HD
ATOM    104   O  NAG B   7       9.746 -16.384  14.7740  0.00  0.00     0.000 OA
ATOM    105   C  NAG B   7       8.808 -15.624  14.4610  0.00  0.00     0.000 C
ATOM    106   C  NAG B   7       9.012 -14.624  13.3750  0.00  0.00     0.000 C
ENDBRANCH 97 104
ATOM    107   O  NAG B   7       1.501 -13.605  15.2570  0.00  0.00     0.000 O
ATOM    109  HD  NAG B   7       2.127 -14.115  15.5710  0.00  0.00     0.000 HD
ATOM    109   O  NAG B   7       1.501 -13.605  15.2570  0.00  0.00     0.000 O
ATOM    111  HD  NAG B   7       2.127 -14.115  15.5710  0.00  0.00     0.000 HD
ENDBRANCH 95 98
ENDBRANCH 82 95
ENDBRANCH 81 85
ENDBRANCH 65 81
ENDBRANCH 64 67
ENDBRANCH 51 64
ENDBRANCH 50 54
ENDBRANCH 34 50
ENDBRANCH 33 36
ENDBRANCH 20 33
ENDBRANCH 19 23
ENDBRANCH 1 19
TORSDOF 19
ENDMDL
MODEL 57
REMARK VINA RESULT:      -6.1     30.269     33.950
ROOT
ATOM      1  C1  NAG B   1      -7.096  17.583   6.7860  0.00  0.00     0.000 C
ATOM      2  C2  NAG B   1      -7.795  16.836   7.9190  0.00  0.00     0.000 C
ATOM      3  C3  NAG B   1      -9.237  16.517   7.5790  0.00  0.00     0.000 C
ATOM      4  C4  NAG B   1      -9.892  17.861   7.2770  0.00  0.00     0.000 C
ATOM      5  C5  NAG B   1      -9.219  18.484   6.0480  0.00  0.00     0.000 C
ATOM      6  O5  NAG B   1      -7.815  18.721   6.2870  0.00  0.00     0.000 O
ATOM      7   O  NAG B   1      -9.917  15.844   8.6630  0.00  0.00     0.000 O
ATOM      9  HD  NAG B   1      -9.112  15.531   8.7250  0.00  0.00     0.000 HD
ATOM      9   O  NAG B   1     -11.277  17.685   7.0290  0.00  0.00     0.000 O
ATOM     11  HD  NAG B   1     -10.472  17.372   7.0910  0.00  0.00     0.000 HD
ATOM     11   C  NAG B   1      -9.952  19.770   5.6450  0.00  0.00     0.000 C
ATOM     12   O  NAG B   1      -9.069  20.691   5.0070  0.00  0.00     0.000 O
ATOM     14  HD  NAG B   1      -8.264  20.378   5.0680  0.00  0.00     0.000 HD
ENDROOT
BRANCH 2 16
ATOM     14   N  NAG B   1      -7.082  15.603   8.2940  0.00  0.00     0.000 N
ATOM     16  HD  NAG B   1      -6.293  15.247   8.3320  0.00  0.00     0.000 HD
ATOM     16   C  NAG B   1      -6.426  15.458   9.4590  0.00  0.00     0.000 C
ATOM     17   C  NAG B   1      -6.375  16.601  10.4390  0.00  0.00     0.000 C
ATOM     18   O  NAG B   1      -5.884  14.395   9.7590  0.00  0.00     0.000 OA
ENDBRANCH 2 16
BRANCH 1 19
ATOM     19  O4  BDP B   2      -5.930  18.101   7.4120  0.00  0.00     0.000 O
BRANCH 19 23
ATOM     20  C1  BDP B   2      -3.730  18.473   3.9520  0.00  0.00     0.000 C
ATOM     21  C2  BDP B   2      -3.676  17.125   4.6430  0.00  0.00     0.000 C
ATOM     22  C3  BDP B   2      -4.813  16.968   5.6270  0.00  0.00     0.000 C
ATOM     23  C4  BDP B   2      -4.797  18.161   6.5790  0.00  0.00     0.000 C
ATOM     24  C5  BDP B   2      -4.866  19.446   5.7780  0.00  0.00     0.000 C
ATOM     25  O5  BDP B   2      -3.753  19.523   4.9080  0.00  0.00     0.000 O
ATOM     26   O  BDP B   2      -3.724  16.085   3.6900  0.00  0.00     0.000 O
ATOM     28  HD  BDP B   2      -3.590  16.766   3.1720  0.00  0.00     0.000 HD
ATOM     28   O  BDP B   2      -4.668  15.720   6.3230  0.00  0.00     0.000 O
ATOM     30  HD  BDP B   2      -4.534  16.401   5.8050  0.00  0.00     0.000 HD
BRANCH 24 30
ATOM     30   C  BDP B   2      -4.843  20.652   6.6470  0.00  0.00     0.000 C
ATOM     31   O  BDP B   2      -3.794  20.871   7.2970  0.00  0.00     0.000 OA
ATOM     32   O  BDP B   2      -5.874  21.382   6.6910  0.00  0.00     0.000 OA
ENDBRANCH 24 30
BRANCH 20 33
ATOM     33  O3  NAG B   3      -2.526  18.532   3.2280  0.00  0.00     0.000 O
BRANCH 33 36
ATOM     34  C1  NAG B   3      -2.122  19.678  -0.3320  0.00  0.00     0.000 C
ATOM     35  C2  NAG B   3      -2.250  18.711   0.8290  0.00  0.00     0.000 C
ATOM     36  C3  NAG B   3      -2.614  19.444   2.1300  0.00  0.00     0.000 C
ATOM     37  C4  NAG B   3      -1.629  20.588   2.3570  0.00  0.00     0.000 C
ATOM     38  C5  NAG B   3      -1.515  21.446   1.1000  0.00  0.00     0.000 C
ATOM     39  O5  NAG B   3      -1.131  20.640  -0.0010  0.00  0.00     0.000 O
ATOM     40   O  NAG B   3      -2.070  21.404   3.4530  0.00  0.00     0.000 O
ATOM     42  HD  NAG B   3      -1.992  22.029   2.8590  0.00  0.00     0.000 HD
ATOM     42   C  NAG B   3      -0.454  22.539   1.1920  0.00  0.00     0.000 C
ATOM     43   O  NAG B   3       0.844  21.940   1.2870  0.00  0.00     0.000 O
ATOM     45  HD  NAG B   3       0.922  22.564   0.6920  0.00  0.00     0.000 HD
BRANCH 35 47
ATOM     45   N  NAG B   3      -2.023  17.279   0.6790  0.00  0.00     0.000 N
ATOM     47  HD  NAG B   3      -1.408  17.667   1.1510  0.00  0.00     0.000 HD
ATOM     47   C  NAG B   3      -2.999  16.393   0.6910  0.00  0.00     0.000 C
ATOM     48   C  NAG B   3      -2.590  14.957   0.5440  0.00  0.00     0.000 C
ATOM     49   O  NAG B   3      -4.174  16.720   0.8400  0.00  0.00     0.000 OA
ENDBRANCH 35 47
BRANCH 34 50
ATOM     50  O4  BDP B   4      -1.681  18.864  -1.3980  0.00  0.00     0.000 O
BRANCH 50 54
ATOM     51  C1  BDP B   4      -1.762  18.416  -5.4410  0.00  0.00     0.000 C
ATOM     52  C2  BDP B   4      -1.398  19.819  -4.9680  0.00  0.00     0.000 C
ATOM     53  C3  BDP B   4      -1.040  19.757  -3.5150  0.00  0.00     0.000 C
ATOM     54  C4  BDP B   4      -2.205  19.107  -2.7140  0.00  0.00     0.000 C
ATOM     55  C5  BDP B   4      -2.677  17.800  -3.3360  0.00  0.00     0.000 C
ATOM     56  O5  BDP B   4      -2.902  17.965  -4.7330  0.00  0.00     0.000 O
ATOM     57   O  BDP B   4      -0.296  20.312  -5.7000  0.00  0.00     0.000 O
ATOM     59  HD  BDP B   4      -0.642  20.870  -6.2650  0.00  0.00     0.000 HD
ATOM     59   O  BDP B   4      -0.892  21.117  -3.0600  0.00  0.00     0.000 O
ATOM     61  HD  BDP B   4      -1.238  21.675  -3.6250  0.00  0.00     0.000 HD
BRANCH 55 61
ATOM     61   C  BDP B   4      -3.971  17.367  -2.6700  0.00  0.00     0.000 C
ATOM     62   O  BDP B   4      -4.740  18.264  -2.2340  0.00  0.00     0.000 OA
ATOM     63   O  BDP B   4      -4.217  16.125  -2.5850  0.00  0.00     0.000 OA
ENDBRANCH 55 61
BRANCH 51 64
ATOM     64  O3  NAG B   5      -2.037  18.500  -6.8530  0.00  0.00     0.000 O
BRANCH 64 67
ATOM     65  C1  NAG B   5      -0.651  16.179  -9.3610  0.00  0.00     0.000 C
ATOM     66  C2  NAG B   5      -0.729  17.387  -8.4430  0.00  0.00     0.000 C
ATOM     67  C3  NAG B   5      -1.921  17.250  -7.5050  0.00  0.00     0.000 C
ATOM     68  C4  NAG B   5      -3.208  16.961  -8.2880  0.00  0.00     0.000 C
ATOM     69  C5  NAG B   5      -3.005  15.796  -9.2450  0.00  0.00     0.000 C
ATOM     70  O5  NAG B   5      -1.859  16.039 -10.0740  0.00  0.00     0.000 O
ATOM     71   O  NAG B   5      -4.246  16.693  -7.3690  0.00  0.00     0.000 O
ATOM     73  HD  NAG B   5      -4.696  17.189  -7.9180  0.00  0.00     0.000 HD
ATOM     73   C  NAG B   5      -4.203  15.516 -10.1630  0.00  0.00     0.000 C
ATOM     74   O  NAG B   5      -4.418  16.645 -11.0360  0.00  0.00     0.000 O
ATOM     76  HD  NAG B   5      -4.869  17.141 -11.5840  0.00  0.00     0.000 HD
BRANCH 66 78
ATOM     76   N  NAG B   5       0.549  17.458  -7.7090  0.00  0.00     0.000 N
ATOM     78  HD  NAG B   5       0.126  17.931  -8.2970  0.00  0.00     0.000 HD
ATOM     78   C  NAG B   5       1.370  18.519  -7.6520  0.00  0.00     0.000 C
ATOM     79   C  NAG B   5       2.591  18.288  -6.8050  0.00  0.00     0.000 C
ATOM     80   O  NAG B   5       1.139  19.620  -8.2680  0.00  0.00     0.000 OA
ENDBRANCH 66 78
BRANCH 65 81
ATOM     81  O4  BDP B   6       0.441  16.325 -10.2770  0.00  0.00     0.000 O
BRANCH 81 85
ATOM     82  C1  BDP B   6       3.203  13.938 -12.5220  0.00  0.00     0.000 C
ATOM     83  C2  BDP B   6       1.714  13.674 -12.7260  0.00  0.00     0.000 C
ATOM     84  C3  BDP B   6       0.831  14.816 -12.2150  0.00  0.00     0.000 C
ATOM     85  C4  BDP B   6       1.172  15.202 -10.7740  0.00  0.00     0.000 C
ATOM     86  C5  BDP B   6       2.703  15.408 -10.6860  0.00  0.00     0.000 C
ATOM     87  O5  BDP B   6       3.439  14.232 -11.1520  0.00  0.00     0.000 O
ATOM     88   O  BDP B   6       1.543  13.532 -14.1340  0.00  0.00     0.000 O
ATOM     90  HD  BDP B   6       0.999  13.765 -14.7670  0.00  0.00     0.000 HD
ATOM     90   O  BDP B   6      -0.545  14.449 -12.3350  0.00  0.00     0.000 O
ATOM     92  HD  BDP B   6      -1.089  14.682 -12.9680  0.00  0.00     0.000 HD
BRANCH 86 92
ATOM     92   C  BDP B   6       3.136  15.557  -9.2480  0.00  0.00     0.000 C
ATOM     93   O  BDP B   6       4.174  16.232  -8.9750  0.00  0.00     0.000 OA
ATOM     94   O  BDP B   6       2.414  15.007  -8.3590  0.00  0.00     0.000 OA
ENDBRANCH 86 92
BRANCH 82 95
ATOM     95  O3  NAG B   7       3.926  12.735 -12.8480  0.00  0.00     0.000 O
BRANCH 95 98
ATOM     96  C1  NAG B   7       6.620  11.755 -15.1110  0.00  0.00     0.000 C
ATOM     97  C2  NAG B   7       5.290  11.610 -14.3830  0.00  0.00     0.000 C
ATOM     98  C3  NAG B   7       5.200  12.840 -13.4820  0.00  0.00     0.000 C
ATOM     99  C4  NAG B   7       6.373  12.855 -12.5050  0.00  0.00     0.000 C
ATOM    100  C5  NAG B   7       7.705  12.750 -13.2500  0.00  0.00     0.000 C
ATOM    101  O5  NAG B   7       7.654  11.636 -14.1280  0.00  0.00     0.000 O
BRANCH 97 104
ATOM    102   N  NAG B   7       4.062  11.678 -15.1860  0.00  0.00     0.000 N
ATOM    104  HD  NAG B   7       3.284  11.911 -15.4880  0.00  0.00     0.000 HD
ATOM    104   O  NAG B   7       2.105  10.945 -16.0610  0.00  0.00     0.000 OA
ATOM    105   C  NAG B   7       3.137  10.722 -15.3980  0.00  0.00     0.000 C
ATOM    106   C  NAG B   7       3.348   9.368 -14.8120  0.00  0.00     0.000 C
ENDBRANCH 97 104
ATOM    107   O  NAG B   7      10.034  12.841 -12.9830  0.00  0.00     0.000 O
ATOM    109  HD  NAG B   7       9.371  13.059 -13.4950  0.00  0.00     0.000 HD
ATOM    109   O  NAG B   7      10.034  12.841 -12.9830  0.00  0.00     0.000 O
ATOM    111  HD  NAG B   7       9.371  13.059 -13.4950  0.00  0.00     0.000 HD
ENDBRANCH 95 98
ENDBRANCH 82 95
ENDBRANCH 81 85
ENDBRANCH 65 81
ENDBRANCH 64 67
ENDBRANCH 51 64
ENDBRANCH 50 54
ENDBRANCH 34 50
ENDBRANCH 33 36
ENDBRANCH 20 33
ENDBRANCH 19 23
ENDBRANCH 1 19
TORSDOF 19
ENDMDL
MODEL 58
REMARK VINA RESULT:      -6.1     32.178     35.022
ROOT
ATOM      1  C1  NAG B   1      -2.336  20.287  11.9640  0.00  0.00     0.000 C
ATOM      2  C2  NAG B   1      -1.619  20.548  13.2860  0.00  0.00     0.000 C
ATOM      3  C3  NAG B   1      -2.235  19.766  14.4270  0.00  0.00     0.000 C
ATOM      4  C4  NAG B   1      -3.701  20.189  14.4670  0.00  0.00     0.000 C
ATOM      5  C5  NAG B   1      -4.380  19.772  13.1560  0.00  0.00     0.000 C
ATOM      6  O5  NAG B   1      -3.765  20.419  12.0220  0.00  0.00     0.000 O
ATOM      7   O  NAG B   1      -1.586  20.039  15.6900  0.00  0.00     0.000 O
ATOM      9  HD  NAG B   1      -0.928  20.084  15.1280  0.00  0.00     0.000 HD
ATOM      9   O  NAG B   1      -4.356  19.575  15.5640  0.00  0.00     0.000 O
ATOM     11  HD  NAG B   1      -3.698  19.620  15.0020  0.00  0.00     0.000 HD
ATOM     11   C  NAG B   1      -5.884  20.064  13.2300  0.00  0.00     0.000 C
ATOM     12   O  NAG B   1      -6.424  20.327  11.9360  0.00  0.00     0.000 O
ATOM     14  HD  NAG B   1      -5.767  20.373  11.3740  0.00  0.00     0.000 HD
ENDROOT
BRANCH 2 16
ATOM     14   N  NAG B   1      -0.516  21.498  13.5210  0.00  0.00     0.000 N
ATOM     16  HD  NAG B   1       0.125  21.687  14.0710  0.00  0.00     0.000 HD
ATOM     16   C  NAG B   1       0.767  21.221  13.2330  0.00  0.00     0.000 C
ATOM     17   C  NAG B   1       1.136  19.875  12.6660  0.00  0.00     0.000 C
ATOM     18   O  NAG B   1       1.654  22.058  13.3970  0.00  0.00     0.000 OA
ENDBRANCH 2 16
BRANCH 1 19
ATOM     19  O4  BDP B   2      -1.878  21.344  11.1320  0.00  0.00     0.000 O
BRANCH 19 23
ATOM     20  C1  BDP B   2      -0.472  21.089   7.2720  0.00  0.00     0.000 C
ATOM     21  C2  BDP B   2      -1.072  19.826   7.8550  0.00  0.00     0.000 C
ATOM     22  C3  BDP B   2      -1.915  20.131   9.0730  0.00  0.00     0.000 C
ATOM     23  C4  BDP B   2      -1.068  20.934  10.0570  0.00  0.00     0.000 C
ATOM     24  C5  BDP B   2      -0.534  22.174   9.3670  0.00  0.00     0.000 C
ATOM     25  O5  BDP B   2       0.263  21.795   8.2620  0.00  0.00     0.000 O
ATOM     26   O  BDP B   2      -1.858  19.166   6.8860  0.00  0.00     0.000 O
ATOM     28  HD  BDP B   2      -1.453  19.748   6.3900  0.00  0.00     0.000 HD
ATOM     28   O  BDP B   2      -2.384  18.900   9.6440  0.00  0.00     0.000 O
ATOM     30  HD  BDP B   2      -1.979  19.482   9.1470  0.00  0.00     0.000 HD
BRANCH 24 30
ATOM     30   C  BDP B   2       0.312  22.998  10.2700  0.00  0.00     0.000 C
ATOM     31   O  BDP B   2       1.554  22.879  10.1610  0.00  0.00     0.000 OA
ATOM     32   O  BDP B   2      -0.260  23.763  11.0980  0.00  0.00     0.000 OA
ENDBRANCH 24 30
BRANCH 20 33
ATOM     33  O3  NAG B   3       0.414  20.620   6.2850  0.00  0.00     0.000 O
BRANCH 33 36
ATOM     34  C1  NAG B   3       0.802  22.058   2.8300  0.00  0.00     0.000 C
ATOM     35  C2  NAG B   3       0.321  21.115   3.9160  0.00  0.00     0.000 C
ATOM     36  C3  NAG B   3       0.703  21.628   5.3130  0.00  0.00     0.000 C
ATOM     37  C4  NAG B   3       2.199  21.933   5.3470  0.00  0.00     0.000 C
ATOM     38  C5  NAG B   3       2.586  22.817   4.1650  0.00  0.00     0.000 C
ATOM     39  O5  NAG B   3       2.211  22.192   2.9500  0.00  0.00     0.000 O
ATOM     40   O  NAG B   3       2.536  22.600   6.5730  0.00  0.00     0.000 O
ATOM     42  HD  NAG B   3       2.870  23.179   6.0220  0.00  0.00     0.000 HD
ATOM     42   C  NAG B   3       4.088  23.066   4.0460  0.00  0.00     0.000 C
ATOM     43   O  NAG B   3       4.755  21.833   3.7520  0.00  0.00     0.000 O
ATOM     45  HD  NAG B   3       5.089  22.412   3.2010  0.00  0.00     0.000 HD
BRANCH 35 47
ATOM     45   N  NAG B   3      -0.388  19.875   3.6250  0.00  0.00     0.000 N
ATOM     47  HD  NAG B   3       0.403  19.739   3.9500  0.00  0.00     0.000 HD
ATOM     47   C  NAG B   3      -1.682  19.724   3.8260  0.00  0.00     0.000 C
ATOM     48   C  NAG B   3      -2.250  18.377   3.4920  0.00  0.00     0.000 C
ATOM     49   O  NAG B   3      -2.379  20.626   4.2850  0.00  0.00     0.000 OA
ENDBRANCH 35 47
BRANCH 34 50
ATOM     50  O4  BDP B   4       0.471  21.386   1.6330  0.00  0.00     0.000 O
BRANCH 50 54
ATOM     51  C1  BDP B   4      -0.249  22.071  -2.3120  0.00  0.00     0.000 C
ATOM     52  C2  BDP B   4       0.761  23.022  -1.6800  0.00  0.00     0.000 C
ATOM     53  C3  BDP B   4       1.209  22.445  -0.3720  0.00  0.00     0.000 C
ATOM     54  C4  BDP B   4      -0.028  22.156   0.5260  0.00  0.00     0.000 C
ATOM     55  C5  BDP B   4      -1.106  21.370  -0.2090  0.00  0.00     0.000 C
ATOM     56  O5  BDP B   4      -1.384  21.968  -1.4720  0.00  0.00     0.000 O
ATOM     57   O  BDP B   4       1.878  23.185  -2.5270  0.00  0.00     0.000 O
ATOM     59  HD  BDP B   4       1.763  23.961  -2.8940  0.00  0.00     0.000 HD
ATOM     59   O  BDP B   4       2.007  23.454   0.2810  0.00  0.00     0.000 O
ATOM     61  HD  BDP B   4       1.891  24.230  -0.0860  0.00  0.00     0.000 HD
BRANCH 55 61
ATOM     61   C  BDP B   4      -2.373  21.358   0.6270  0.00  0.00     0.000 C
ATOM     62   O  BDP B   4      -2.639  22.379   1.3130  0.00  0.00     0.000 OA
ATOM     63   O  BDP B   4      -3.104  20.321   0.5940  0.00  0.00     0.000 OA
ENDBRANCH 55 61
BRANCH 51 64
ATOM     64  O3  NAG B   5      -0.610  22.622  -3.5930  0.00  0.00     0.000 O
BRANCH 64 67
ATOM     65  C1  NAG B   5      -0.675  20.514  -6.6170  0.00  0.00     0.000 C
ATOM     66  C2  NAG B   5      -0.097  21.368  -5.5020  0.00  0.00     0.000 C
ATOM     67  C3  NAG B   5      -1.172  21.658  -4.4620  0.00  0.00     0.000 C
ATOM     68  C4  NAG B   5      -2.433  22.235  -5.1190  0.00  0.00     0.000 C
ATOM     69  C5  NAG B   5      -2.881  21.362  -6.2800  0.00  0.00     0.000 C
ATOM     70  O5  NAG B   5      -1.789  21.160  -7.1890  0.00  0.00     0.000 O
ATOM     71   O  NAG B   5      -3.444  22.341  -4.1390  0.00  0.00     0.000 O
ATOM     73  HD  NAG B   5      -3.578  23.101  -4.5340  0.00  0.00     0.000 HD
ATOM     73   C  NAG B   5      -4.063  21.930  -7.0790  0.00  0.00     0.000 C
ATOM     74   O  NAG B   5      -3.672  23.168  -7.7080  0.00  0.00     0.000 O
ATOM     76  HD  NAG B   5      -3.806  23.927  -8.1030  0.00  0.00     0.000 HD
BRANCH 66 78
ATOM     76   N  NAG B   5       1.353  21.631  -5.5740  0.00  0.00     0.000 N
ATOM     78  HD  NAG B   5       0.803  21.238  -5.0330  0.00  0.00     0.000 HD
ATOM     78   C  NAG B   5       2.295  21.082  -4.7910  0.00  0.00     0.000 C
ATOM     79   C  NAG B   5       3.690  21.537  -5.1220  0.00  0.00     0.000 C
ATOM     80   O  NAG B   5       2.030  20.255  -3.8470  0.00  0.00     0.000 OA
ENDBRANCH 66 78
BRANCH 65 81
ATOM     81  O4  BDP B   6       0.319  20.277  -7.6220  0.00  0.00     0.000 O
BRANCH 81 85
ATOM     82  C1  BDP B   6       1.703  17.155 -10.2120  0.00  0.00     0.000 C
ATOM     83  C2  BDP B   6       0.393  17.848 -10.5790  0.00  0.00     0.000 C
ATOM     84  C3  BDP B   6       0.202  19.182  -9.8530  0.00  0.00     0.000 C
ATOM     85  C4  BDP B   6       0.395  19.044  -8.3410  0.00  0.00     0.000 C
ATOM     86  C5  BDP B   6       1.731  18.300  -8.0990  0.00  0.00     0.000 C
ATOM     87  O5  BDP B   6       1.776  17.017  -8.8000  0.00  0.00     0.000 O
ATOM     88   O  BDP B   6       0.464  18.076 -11.9840  0.00  0.00     0.000 O
ATOM     90  HD  BDP B   6       0.281  18.685 -12.5710  0.00  0.00     0.000 HD
ATOM     90   O  BDP B   6      -1.091  19.713 -10.1570  0.00  0.00     0.000 O
ATOM     92  HD  BDP B   6      -1.273  20.323 -10.7440  0.00  0.00     0.000 HD
BRANCH 86 92
ATOM     92   C  BDP B   6       1.869  17.921  -6.6440  0.00  0.00     0.000 C
ATOM     93   O  BDP B   6       0.848  17.530  -6.0010  0.00  0.00     0.000 OA
ATOM     94   O  BDP B   6       3.028  17.990  -6.1280  0.00  0.00     0.000 OA
ENDBRANCH 86 92
BRANCH 82 95
ATOM     95  O3  NAG B   7       1.693  15.834 -10.7870  0.00  0.00     0.000 O
BRANCH 95 98
ATOM     96  C1  NAG B   7       3.701  13.482 -12.7310  0.00  0.00     0.000 C
ATOM     97  C2  NAG B   7       2.506  13.946 -11.9080  0.00  0.00     0.000 C
ATOM     98  C3  NAG B   7       2.841  15.380 -11.5030  0.00  0.00     0.000 C
ATOM     99  C4  NAG B   7       4.127  15.400 -10.6810  0.00  0.00     0.000 C
ATOM    100  C5  NAG B   7       5.264  14.703 -11.4290  0.00  0.00     0.000 C
ATOM    101  O5  NAG B   7       4.824  13.420 -11.8450  0.00  0.00     0.000 O
BRANCH 97 104
ATOM    102   N  NAG B   7       1.163  14.166 -12.4640  0.00  0.00     0.000 N
ATOM    104  HD  NAG B   7       0.367  14.477 -12.6010  0.00  0.00     0.000 HD
ATOM    104   O  NAG B   7      -0.972  13.646 -13.0120  0.00  0.00     0.000 OA
ATOM    105   C  NAG B   7       0.139  13.297 -12.5670  0.00  0.00     0.000 C
ATOM    106   C  NAG B   7       0.337  11.888 -12.1260  0.00  0.00     0.000 C
ENDBRANCH 97 104
ATOM    107   O  NAG B   7       7.565  14.250 -11.3750  0.00  0.00     0.000 O
ATOM    109  HD  NAG B   7       6.896  14.456 -11.8840  0.00  0.00     0.000 HD
ATOM    109   O  NAG B   7       7.565  14.250 -11.3750  0.00  0.00     0.000 O
ATOM    111  HD  NAG B   7       6.896  14.456 -11.8840  0.00  0.00     0.000 HD
ENDBRANCH 95 98
ENDBRANCH 82 95
ENDBRANCH 81 85
ENDBRANCH 65 81
ENDBRANCH 64 67
ENDBRANCH 51 64
ENDBRANCH 50 54
ENDBRANCH 34 50
ENDBRANCH 33 36
ENDBRANCH 20 33
ENDBRANCH 19 23
ENDBRANCH 1 19
TORSDOF 19
ENDMDL
MODEL 59
REMARK VINA RESULT:      -6.1      1.807      2.182
ROOT
ATOM      1  C1  NAG B   1       0.723 -15.841  18.9050  0.00  0.00     0.000 C
ATOM      2  C2  NAG B   1      -0.619 -15.213  18.5370  0.00  0.00     0.000 C
ATOM      3  C3  NAG B   1      -1.742 -16.229  18.5580  0.00  0.00     0.000 C
ATOM      4  C4  NAG B   1      -1.324 -17.321  17.5790  0.00  0.00     0.000 C
ATOM      5  C5  NAG B   1      -0.041 -17.990  18.0900  0.00  0.00     0.000 C
ATOM      6  O5  NAG B   1       1.042 -17.039  18.1800  0.00  0.00     0.000 O
ATOM      7   O  NAG B   1      -3.010 -15.649  18.1720  0.00  0.00     0.000 O
ATOM      9  HD  NAG B   1      -2.628 -14.998  18.5970  0.00  0.00     0.000 HD
ATOM      9   O  NAG B   1      -2.353 -18.287  17.4560  0.00  0.00     0.000 O
ATOM     11  HD  NAG B   1      -1.971 -17.636  17.8800  0.00  0.00     0.000 HD
ATOM     11   C  NAG B   1       0.321 -19.180  17.1930  0.00  0.00     0.000 C
ATOM     12   O  NAG B   1       1.729 -19.409  17.1810  0.00  0.00     0.000 O
ATOM     14  HD  NAG B   1       2.111 -18.758  17.6050  0.00  0.00     0.000 HD
ENDROOT
BRANCH 2 16
ATOM     14   N  NAG B   1      -0.585 -13.790  18.1540  0.00  0.00     0.000 N
ATOM     16  HD  NAG B   1      -1.085 -13.137  17.8820  0.00  0.00     0.000 HD
ATOM     16   C  NAG B   1      -0.963 -12.798  18.9780  0.00  0.00     0.000 C
ATOM     17   C  NAG B   1      -1.476 -13.120  20.3560  0.00  0.00     0.000 C
ATOM     18   O  NAG B   1      -0.873 -11.618  18.6400  0.00  0.00     0.000 OA
ENDBRANCH 2 16
BRANCH 1 19
ATOM     19  O4  BDP B   2       1.664 -14.864  18.4810  0.00  0.00     0.000 O
BRANCH 19 23
ATOM     20  C1  BDP B   2       4.939 -14.803  15.9880  0.00  0.00     0.000 C
ATOM     21  C2  BDP B   2       3.589 -14.970  15.3220  0.00  0.00     0.000 C
ATOM     22  C3  BDP B   2       2.466 -14.563  16.2490  0.00  0.00     0.000 C
ATOM     23  C4  BDP B   2       2.618 -15.333  17.5590  0.00  0.00     0.000 C
ATOM     24  C5  BDP B   2       3.998 -15.080  18.1350  0.00  0.00     0.000 C
ATOM     25  O5  BDP B   2       4.982 -15.516  17.2170  0.00  0.00     0.000 O
ATOM     26   O  BDP B   2       3.529 -14.204  14.1380  0.00  0.00     0.000 O
ATOM     28  HD  BDP B   2       4.376 -14.157  14.3140  0.00  0.00     0.000 HD
ATOM     28   O  BDP B   2       1.207 -14.827  15.6120  0.00  0.00     0.000 O
ATOM     30  HD  BDP B   2       2.053 -14.779  15.7870  0.00  0.00     0.000 HD
BRANCH 24 30
ATOM     30   C  BDP B   2       4.217 -15.812  19.4100  0.00  0.00     0.000 C
ATOM     31   O  BDP B   2       4.421 -17.046  19.3360  0.00  0.00     0.000 OA
ATOM     32   O  BDP B   2       4.177 -15.160  20.4920  0.00  0.00     0.000 OA
ENDBRANCH 24 30
BRANCH 20 33
ATOM     33  O3  NAG B   3       5.841 -15.389  15.0820  0.00  0.00     0.000 O
BRANCH 33 36
ATOM     34  C1  NAG B   3       9.280 -14.046  14.3630  0.00  0.00     0.000 C
ATOM     35  C2  NAG B   3       7.788 -14.261  14.1900  0.00  0.00     0.000 C
ATOM     36  C3  NAG B   3       7.194 -15.034  15.3770  0.00  0.00     0.000 C
ATOM     37  C4  NAG B   3       8.001 -16.310  15.6050  0.00  0.00     0.000 C
ATOM     38  C5  NAG B   3       9.491 -15.987  15.6780  0.00  0.00     0.000 C
ATOM     39  O5  NAG B   3       9.899 -15.317  14.4980  0.00  0.00     0.000 O
ATOM     40   O  NAG B   3       7.588 -16.940  16.8270  0.00  0.00     0.000 O
ATOM     42  HD  NAG B   3       8.436 -16.888  16.9960  0.00  0.00     0.000 HD
ATOM     42   C  NAG B   3      10.386 -17.220  15.7750  0.00  0.00     0.000 C
ATOM     43   O  NAG B   3      10.285 -17.981  14.5650  0.00  0.00     0.000 O
ATOM     45  HD  NAG B   3      11.133 -17.929  14.7340  0.00  0.00     0.000 HD
BRANCH 35 47
ATOM     45   N  NAG B   3       7.125 -13.741  13.0010  0.00  0.00     0.000 N
ATOM     47  HD  NAG B   3       7.232 -14.600  12.9750  0.00  0.00     0.000 HD
ATOM     47   C  NAG B   3       6.245 -12.760  13.0410  0.00  0.00     0.000 C
ATOM     48   C  NAG B   3       5.641 -12.360  11.7280  0.00  0.00     0.000 C
ATOM     49   O  NAG B   3       5.918 -12.222  14.0970  0.00  0.00     0.000 OA
ENDBRANCH 35 47
BRANCH 34 50
ATOM     50  O4  BDP B   4       9.672 -13.434  13.1520  0.00  0.00     0.000 O
BRANCH 50 54
ATOM     51  C1  BDP B   4      12.214 -10.741  11.4660  0.00  0.00     0.000 C
ATOM     52  C2  BDP B   4      12.901 -11.930  12.1290  0.00  0.00     0.000 C
ATOM     53  C3  BDP B   4      11.882 -13.002  12.3660  0.00  0.00     0.000 C
ATOM     54  C4  BDP B   4      10.695 -12.424  13.1900  0.00  0.00     0.000 C
ATOM     55  C5  BDP B   4      10.162 -11.123  12.6040  0.00  0.00     0.000 C
ATOM     56  O5  BDP B   4      11.233 -10.220  12.3440  0.00  0.00     0.000 O
ATOM     57   O  BDP B   4      13.923 -12.433  11.2940  0.00  0.00     0.000 O
ATOM     59  HD  BDP B   4      14.657 -12.139  11.6470  0.00  0.00     0.000 HD
ATOM     59   O  BDP B   4      12.521 -14.020  13.1620  0.00  0.00     0.000 O
ATOM     61  HD  BDP B   4      13.256 -13.727  13.5150  0.00  0.00     0.000 HD
BRANCH 55 61
ATOM     61   C  BDP B   4       9.201 -10.487  13.5920  0.00  0.00     0.000 C
ATOM     62   O  BDP B   4       8.186  -9.900  13.1330  0.00  0.00     0.000 OA
ATOM     63   O  BDP B   4       9.464 -10.577  14.8300  0.00  0.00     0.000 OA
ENDBRANCH 55 61
BRANCH 51 64
ATOM     64  O3  NAG B   5      13.231  -9.758  11.1930  0.00  0.00     0.000 O
BRANCH 64 67
ATOM     65  C1  NAG B   5      12.974  -7.848   8.0500  0.00  0.00     0.000 C
ATOM     66  C2  NAG B   5      13.228  -9.031   8.9690  0.00  0.00     0.000 C
ATOM     67  C3  NAG B   5      12.761  -8.700  10.3810  0.00  0.00     0.000 C
ATOM     68  C4  NAG B   5      13.366  -7.376  10.8650  0.00  0.00     0.000 C
ATOM     69  C5  NAG B   5      13.142  -6.276   9.8400  0.00  0.00     0.000 C
ATOM     70  O5  NAG B   5      13.619  -6.701   8.5550  0.00  0.00     0.000 O
ATOM     71   O  NAG B   5      12.785  -7.042  12.1080  0.00  0.00     0.000 O
ATOM     73  HD  NAG B   5      13.604  -6.831  12.2970  0.00  0.00     0.000 HD
ATOM     73   C  NAG B   5      13.824  -4.944  10.1820  0.00  0.00     0.000 C
ATOM     74   O  NAG B   5      15.256  -5.122  10.1900  0.00  0.00     0.000 O
ATOM     76  HD  NAG B   5      16.075  -4.910  10.3780  0.00  0.00     0.000 HD
BRANCH 66 78
ATOM     76   N  NAG B   5      12.515 -10.168   8.3550  0.00  0.00     0.000 N
ATOM     78  HD  NAG B   5      13.332  -9.960   8.5540  0.00  0.00     0.000 HD
ATOM     78   C  NAG B   5      13.035 -11.379   8.0980  0.00  0.00     0.000 C
ATOM     79   C  NAG B   5      12.050 -12.336   7.4830  0.00  0.00     0.000 C
ATOM     80   O  NAG B   5      14.255 -11.687   8.3450  0.00  0.00     0.000 OA
ENDBRANCH 66 78
BRANCH 65 81
ATOM     81  O4  BDP B   6      13.454  -8.136   6.7310  0.00  0.00     0.000 O
BRANCH 81 85
ATOM     82  C1  BDP B   6      12.572  -6.943   2.7110  0.00  0.00     0.000 C
ATOM     83  C2  BDP B   6      12.250  -5.953   3.8270  0.00  0.00     0.000 C
ATOM     84  C3  BDP B   6      12.961  -6.287   5.1410  0.00  0.00     0.000 C
ATOM     85  C4  BDP B   6      12.738  -7.743   5.5580  0.00  0.00     0.000 C
ATOM     86  C5  BDP B   6      13.061  -8.641   4.3400  0.00  0.00     0.000 C
ATOM     87  O5  BDP B   6      12.284  -8.260   3.1600  0.00  0.00     0.000 O
ATOM     88   O  BDP B   6      12.698  -4.687   3.3520  0.00  0.00     0.000 O
ATOM     90  HD  BDP B   6      13.113  -3.978   3.6290  0.00  0.00     0.000 HD
ATOM     90   O  BDP B   6      12.524  -5.389   6.1640  0.00  0.00     0.000 O
ATOM     92  HD  BDP B   6      12.939  -4.681   6.4410  0.00  0.00     0.000 HD
BRANCH 86 92
ATOM     92   C  BDP B   6      12.636 -10.065   4.6060  0.00  0.00     0.000 C
ATOM     93   O  BDP B   6      11.409 -10.328   4.7860  0.00  0.00     0.000 OA
ATOM     94   O  BDP B   6      13.543 -10.955   4.6140  0.00  0.00     0.000 OA
ENDBRANCH 86 92
BRANCH 82 95
ATOM     95  O3  NAG B   7      11.710  -6.660   1.5910  0.00  0.00     0.000 O
BRANCH 95 98
ATOM     96  C1  NAG B   7      11.731  -5.907  -1.9830  0.00  0.00     0.000 C
ATOM     97  C2  NAG B   7      11.109  -6.142  -0.6130  0.00  0.00     0.000 C
ATOM     98  C3  NAG B   7      12.284  -6.502   0.2940  0.00  0.00     0.000 C
ATOM     99  C4  NAG B   7      12.978  -7.757  -0.2280  0.00  0.00     0.000 C
ATOM    100  C5  NAG B   7      13.378  -7.591  -1.6940  0.00  0.00     0.000 C
ATOM    101  O5  NAG B   7      12.244  -7.166  -2.4350  0.00  0.00     0.000 O
BRANCH 97 104
ATOM    102   N  NAG B   7      10.502  -5.048   0.1560  0.00  0.00     0.000 N
ATOM    104  HD  NAG B   7      10.263  -4.529   0.8080  0.00  0.00     0.000 HD
ATOM    104   O  NAG B   7       8.826  -3.795   1.0240  0.00  0.00     0.000 OA
ATOM    105   C  NAG B   7       9.201  -4.724   0.2820  0.00  0.00     0.000 C
ATOM    106   C  NAG B   7       8.183  -5.507  -0.4750  0.00  0.00     0.000 C
ENDBRANCH 97 104
ATOM    107   O  NAG B   7      14.556  -8.591  -3.4590  0.00  0.00     0.000 O
ATOM    109  HD  NAG B   7      14.368  -7.842  -3.0680  0.00  0.00     0.000 HD
ATOM    109   O  NAG B   7      14.556  -8.591  -3.4590  0.00  0.00     0.000 O
ATOM    111  HD  NAG B   7      14.368  -7.842  -3.0680  0.00  0.00     0.000 HD
ENDBRANCH 95 98
ENDBRANCH 82 95
ENDBRANCH 81 85
ENDBRANCH 65 81
ENDBRANCH 64 67
ENDBRANCH 51 64
ENDBRANCH 50 54
ENDBRANCH 34 50
ENDBRANCH 33 36
ENDBRANCH 20 33
ENDBRANCH 19 23
ENDBRANCH 1 19
TORSDOF 19
ENDMDL
MODEL 60
REMARK VINA RESULT:      -6.1      9.661     19.701
ROOT
ATOM      1  C1  NAG B   1      10.285   7.159  14.4800  0.00  0.00     0.000 C
ATOM      2  C2  NAG B   1       9.930   7.833  13.1580  0.00  0.00     0.000 C
ATOM      3  C3  NAG B   1       9.748   9.329  13.3170  0.00  0.00     0.000 C
ATOM      4  C4  NAG B   1       8.654   9.496  14.3670  0.00  0.00     0.000 C
ATOM      5  C5  NAG B   1       9.141   8.912  15.6990  0.00  0.00     0.000 C
ATOM      6  O5  NAG B   1       9.422   7.501  15.5760  0.00  0.00     0.000 O
ATOM      7   O  NAG B   1       9.373   9.969  12.0760  0.00  0.00     0.000 O
ATOM      9  HD  NAG B   1       9.904   9.338  11.8090  0.00  0.00     0.000 HD
ATOM      9   O  NAG B   1       8.341  10.870  14.5310  0.00  0.00     0.000 O
ATOM     11  HD  NAG B   1       8.872  10.239  14.2640  0.00  0.00     0.000 HD
ATOM     11   C  NAG B   1       8.112   9.192  16.8020  0.00  0.00     0.000 C
ATOM     12   O  NAG B   1       8.150   8.186  17.8120  0.00  0.00     0.000 O
ATOM     14  HD  NAG B   1       8.680   7.556  17.5450  0.00  0.00     0.000 HD
ENDROOT
BRANCH 2 16
ATOM     14   N  NAG B   1       9.736   6.960  11.9860  0.00  0.00     0.000 N
ATOM     16  HD  NAG B   1       9.544   6.972  11.1420  0.00  0.00     0.000 HD
ATOM     16   C  NAG B   1      10.677   6.774  11.0440  0.00  0.00     0.000 C
ATOM     17   C  NAG B   1      11.994   7.497  11.1450  0.00  0.00     0.000 C
ATOM     18   O  NAG B   1      10.497   5.999  10.1060  0.00  0.00     0.000 OA
ENDBRANCH 2 16
BRANCH 1 19
ATOM     19  O4  BDP B   2      10.054   5.783  14.2140  0.00  0.00     0.000 O
BRANCH 19 23
ATOM     20  C1  BDP B   2      11.230   2.212  15.8910  0.00  0.00     0.000 C
ATOM     21  C2  BDP B   2      10.455   3.154  16.7880  0.00  0.00     0.000 C
ATOM     22  C3  BDP B   2       9.728   4.206  15.9820  0.00  0.00     0.000 C
ATOM     23  C4  BDP B   2      10.737   4.898  15.0700  0.00  0.00     0.000 C
ATOM     24  C5  BDP B   2      11.439   3.861  14.2150  0.00  0.00     0.000 C
ATOM     25  O5  BDP B   2      12.114   2.938  15.0480  0.00  0.00     0.000 O
ATOM     26   O  BDP B   2       9.530   2.433  17.5730  0.00  0.00     0.000 O
ATOM     28  HD  BDP B   2      10.004   1.783  17.2510  0.00  0.00     0.000 HD
ATOM     28   O  BDP B   2       9.087   5.129  16.8760  0.00  0.00     0.000 O
ATOM     30  HD  BDP B   2       9.561   4.480  16.5540  0.00  0.00     0.000 HD
BRANCH 24 30
ATOM     30   C  BDP B   2      12.447   4.469  13.3070  0.00  0.00     0.000 C
ATOM     31   O  BDP B   2      12.420   4.123  12.1040  0.00  0.00     0.000 OA
ATOM     32   O  BDP B   2      13.276   5.290  13.7940  0.00  0.00     0.000 OA
ENDBRANCH 24 30
BRANCH 20 33
ATOM     33  O3  NAG B   3      11.983   1.431  16.7860  0.00  0.00     0.000 O
BRANCH 33 36
ATOM     34  C1  NAG B   3      12.321  -2.286  16.3150  0.00  0.00     0.000 C
ATOM     35  C2  NAG B   3      11.713  -0.976  16.7770  0.00  0.00     0.000 C
ATOM     36  C3  NAG B   3      12.453   0.228  16.1720  0.00  0.00     0.000 C
ATOM     37  C4  NAG B   3      13.949   0.088  16.4400  0.00  0.00     0.000 C
ATOM     38  C5  NAG B   3      14.436  -1.295  16.0170  0.00  0.00     0.000 C
ATOM     39  O5  NAG B   3      13.691  -2.296  16.6900  0.00  0.00     0.000 O
ATOM     40   O  NAG B   3      14.674   1.093  15.7140  0.00  0.00     0.000 O
ATOM     42  HD  NAG B   3      15.100   0.398  15.4220  0.00  0.00     0.000 HD
ATOM     42   C  NAG B   3      15.895  -1.570  16.3690  0.00  0.00     0.000 C
ATOM     43   O  NAG B   3      16.047  -1.603  17.7930  0.00  0.00     0.000 O
ATOM     45  HD  NAG B   3      16.473  -2.298  17.5010  0.00  0.00     0.000 HD
BRANCH 35 47
ATOM     45   N  NAG B   3      10.301  -0.866  16.4320  0.00  0.00     0.000 N
ATOM     47  HD  NAG B   3      10.704  -1.495  15.9930  0.00  0.00     0.000 HD
ATOM     47   C  NAG B   3       9.365  -0.595  17.3190  0.00  0.00     0.000 C
ATOM     48   C  NAG B   3       7.959  -0.539  16.7990  0.00  0.00     0.000 C
ATOM     49   O  NAG B   3       9.624  -0.424  18.5080  0.00  0.00     0.000 OA
ENDBRANCH 35 47
BRANCH 34 50
ATOM     50  O4  BDP B   4      11.605  -3.262  17.0430  0.00  0.00     0.000 O
BRANCH 50 54
ATOM     51  C1  BDP B   4      10.224  -7.088  16.9870  0.00  0.00     0.000 C
ATOM     52  C2  BDP B   4      11.737  -6.961  16.8550  0.00  0.00     0.000 C
ATOM     53  C3  BDP B   4      12.139  -5.576  17.2610  0.00  0.00     0.000 C
ATOM     54  C4  BDP B   4      11.346  -4.532  16.4220  0.00  0.00     0.000 C
ATOM     55  C5  BDP B   4       9.849  -4.812  16.4150  0.00  0.00     0.000 C
ATOM     56  O5  BDP B   4       9.599  -6.178  16.1000  0.00  0.00     0.000 O
ATOM     57   O  BDP B   4      12.382  -7.898  17.6900  0.00  0.00     0.000 O
ATOM     59  HD  BDP B   4      12.645  -8.524  17.1530  0.00  0.00     0.000 HD
ATOM     59   O  BDP B   4      13.538  -5.433  16.9400  0.00  0.00     0.000 O
ATOM     61  HD  BDP B   4      13.801  -6.060  16.4030  0.00  0.00     0.000 HD
BRANCH 55 61
ATOM     61   C  BDP B   4       9.180  -3.929  15.3770  0.00  0.00     0.000 C
ATOM     62   O  BDP B   4       7.928  -3.805  15.4250  0.00  0.00     0.000 OA
ATOM     63   O  BDP B   4       9.912  -3.358  14.5120  0.00  0.00     0.000 OA
ENDBRANCH 55 61
BRANCH 51 64
ATOM     64  O3  NAG B   5       9.879  -8.446  16.6520  0.00  0.00     0.000 O
BRANCH 64 67
ATOM     65  C1  NAG B   5       7.209 -10.093  18.5900  0.00  0.00     0.000 C
ATOM     66  C2  NAG B   5       8.578  -9.511  18.2810  0.00  0.00     0.000 C
ATOM     67  C3  NAG B   5       8.534  -8.757  16.9580  0.00  0.00     0.000 C
ATOM     68  C4  NAG B   5       7.946  -9.634  15.8430  0.00  0.00     0.000 C
ATOM     69  C5  NAG B   5       6.624 -10.244  16.2800  0.00  0.00     0.000 C
ATOM     70  O5  NAG B   5       6.790 -10.925  17.5330  0.00  0.00     0.000 O
ATOM     71   O  NAG B   5       7.786  -8.844  14.6840  0.00  0.00     0.000 O
ATOM     73  HD  NAG B   5       8.098  -9.556  14.3030  0.00  0.00     0.000 HD
ATOM     73   C  NAG B   5       6.024 -11.239  15.2770  0.00  0.00     0.000 C
ATOM     74   O  NAG B   5       6.901 -12.377  15.1410  0.00  0.00     0.000 O
ATOM     76  HD  NAG B   5       7.212 -13.089  14.7590  0.00  0.00     0.000 HD
BRANCH 66 78
ATOM     76   N  NAG B   5       8.885  -8.740  19.5000  0.00  0.00     0.000 N
ATOM     78  HD  NAG B   5       9.259  -9.363  19.0300  0.00  0.00     0.000 HD
ATOM     78   C  NAG B   5      10.066  -8.706  20.1370  0.00  0.00     0.000 C
ATOM     79   C  NAG B   5      10.071  -7.809  21.3450  0.00  0.00     0.000 C
ATOM     80   O  NAG B   5      11.089  -9.381  19.7570  0.00  0.00     0.000 OA
ENDBRANCH 66 78
BRANCH 65 81
ATOM     81  O4  BDP B   6       7.257 -10.843  19.8110  0.00  0.00     0.000 O
BRANCH 81 85
ATOM     82  C1  BDP B   6       4.618 -12.164  22.9170  0.00  0.00     0.000 C
ATOM     83  C2  BDP B   6       4.759 -13.054  21.6860  0.00  0.00     0.000 C
ATOM     84  C3  BDP B   6       5.996 -12.719  20.8480  0.00  0.00     0.000 C
ATOM     85  C4  BDP B   6       6.073 -11.228  20.5140  0.00  0.00     0.000 C
ATOM     86  C5  BDP B   6       5.883 -10.435  21.8290  0.00  0.00     0.000 C
ATOM     87  O5  BDP B   6       4.643 -10.803  22.5130  0.00  0.00     0.000 O
ATOM     88   O  BDP B   6       4.869 -14.384  22.1870  0.00  0.00     0.000 O
ATOM     90  HD  BDP B   6       5.317 -15.113  22.0530  0.00  0.00     0.000 HD
ATOM     90   O  BDP B   6       5.998 -13.512  19.6580  0.00  0.00     0.000 O
ATOM     92  HD  BDP B   6       6.446 -14.241  19.5240  0.00  0.00     0.000 HD
BRANCH 86 92
ATOM     92   C  BDP B   6       5.711  -8.963  21.5400  0.00  0.00     0.000 C
ATOM     93   O  BDP B   6       6.663  -8.163  21.7890  0.00  0.00     0.000 OA
ATOM     94   O  BDP B   6       4.609  -8.591  21.0300  0.00  0.00     0.000 OA
ENDBRANCH 86 92
BRANCH 82 95
ATOM     95  O3  NAG B   7       3.334 -12.424  23.5200  0.00  0.00     0.000 O
BRANCH 95 98
ATOM     96  C1  NAG B   7       2.215 -12.809  26.9750  0.00  0.00     0.000 C
ATOM     97  C2  NAG B   7       2.399 -13.210  25.5180  0.00  0.00     0.000 C
ATOM     98  C3  NAG B   7       3.106 -12.021  24.8690  0.00  0.00     0.000 C
ATOM     99  C4  NAG B   7       2.241 -10.770  24.9990  0.00  0.00     0.000 C
ATOM    100  C5  NAG B   7       1.857 -10.520  26.4590  0.00  0.00     0.000 C
ATOM    101  O5  NAG B   7       1.298 -11.709  26.9970  0.00  0.00     0.000 O
BRANCH 97 104
ATOM    102   N  NAG B   7       3.264 -14.377  25.2980  0.00  0.00     0.000 N
ATOM    104  HD  NAG B   7       3.929 -14.880  25.0610  0.00  0.00     0.000 HD
ATOM    104   O  NAG B   7       3.871 -16.386  24.4450  0.00  0.00     0.000 OA
ATOM    105   C  NAG B   7       3.009 -15.497  24.5950  0.00  0.00     0.000 C
ATOM    106   C  NAG B   7       1.668 -15.670  23.9690  0.00  0.00     0.000 C
ENDBRANCH 97 104
ATOM    107   O  NAG B   7       0.820  -8.994  27.9070  0.00  0.00     0.000 O
ATOM    109  HD  NAG B   7       1.479  -9.549  27.8160  0.00  0.00     0.000 HD
ATOM    109   O  NAG B   7       0.820  -8.994  27.9070  0.00  0.00     0.000 O
ATOM    111  HD  NAG B   7       1.479  -9.549  27.8160  0.00  0.00     0.000 HD
ENDBRANCH 95 98
ENDBRANCH 82 95
ENDBRANCH 81 85
ENDBRANCH 65 81
ENDBRANCH 64 67
ENDBRANCH 51 64
ENDBRANCH 50 54
ENDBRANCH 34 50
ENDBRANCH 33 36
ENDBRANCH 20 33
ENDBRANCH 19 23
ENDBRANCH 1 19
TORSDOF 19
ENDMDL
MODEL 61
REMARK VINA RESULT:      -6.0     26.325     33.022
ROOT
ATOM      1  C1  NAG B   1      -9.628   9.936   5.2650  0.00  0.00     0.000 C
ATOM      2  C2  NAG B   1      -9.050   8.660   5.8700  0.00  0.00     0.000 C
ATOM      3  C3  NAG B   1      -8.389   8.919   7.2090  0.00  0.00     0.000 C
ATOM      4  C4  NAG B   1      -7.318   9.971   6.9370  0.00  0.00     0.000 C
ATOM      5  C5  NAG B   1      -7.992  11.263   6.4590  0.00  0.00     0.000 C
ATOM      6  O5  NAG B   1      -8.719  11.047   5.2300  0.00  0.00     0.000 O
ATOM      7   O  NAG B   1      -7.805   7.722   7.7700  0.00  0.00     0.000 O
ATOM      9  HD  NAG B   1      -8.509   7.416   7.3680  0.00  0.00     0.000 HD
ATOM      9   O  NAG B   1      -6.575  10.226   8.1170  0.00  0.00     0.000 O
ATOM     11  HD  NAG B   1      -7.278   9.920   7.7160  0.00  0.00     0.000 HD
ATOM     11   C  NAG B   1      -6.947  12.376   6.3120  0.00  0.00     0.000 C
ATOM     12   O  NAG B   1      -7.329  13.316   5.3090  0.00  0.00     0.000 O
ATOM     14  HD  NAG B   1      -8.032  13.010   4.9080  0.00  0.00     0.000 HD
ENDROOT
BRANCH 2 16
ATOM     14   N  NAG B   1     -10.184   7.724   5.7650  0.00  0.00     0.000 N
ATOM     16  HD  NAG B   1     -10.764   7.404   5.2070  0.00  0.00     0.000 HD
ATOM     16   C  NAG B   1     -10.069   6.484   5.2580  0.00  0.00     0.000 C
ATOM     17   C  NAG B   1      -8.739   6.005   4.7390  0.00  0.00     0.000 C
ATOM     18   O  NAG B   1     -11.028   5.714   5.2320  0.00  0.00     0.000 OA
ENDBRANCH 2 16
BRANCH 1 19
ATOM     19  O4  BDP B   2      -9.858   9.575   3.9090  0.00  0.00     0.000 O
BRANCH 19 23
ATOM     20  C1  BDP B   2      -8.631  10.968   0.2350  0.00  0.00     0.000 C
ATOM     21  C2  BDP B   2      -7.584  10.262   1.0720  0.00  0.00     0.000 C
ATOM     22  C3  BDP B   2      -8.221   9.444   2.1720  0.00  0.00     0.000 C
ATOM     23  C4  BDP B   2      -9.153  10.352   2.9700  0.00  0.00     0.000 C
ATOM     24  C5  BDP B   2     -10.160  10.990   2.0330  0.00  0.00     0.000 C
ATOM     25  O5  BDP B   2      -9.479  11.756   1.0580  0.00  0.00     0.000 O
ATOM     26   O  BDP B   2      -6.788   9.427   0.2580  0.00  0.00     0.000 O
ATOM     28  HD  BDP B   2      -7.210   9.881  -0.3470  0.00  0.00     0.000 HD
ATOM     28   O  BDP B   2      -7.191   8.872   2.9930  0.00  0.00     0.000 O
ATOM     30  HD  BDP B   2      -7.613   9.326   2.3880  0.00  0.00     0.000 HD
BRANCH 24 30
ATOM     30   C  BDP B   2     -11.095  11.898   2.7480  0.00  0.00     0.000 C
ATOM     31   O  BDP B   2     -12.153  11.398   3.1930  0.00  0.00     0.000 OA
ATOM     32   O  BDP B   2     -10.780  13.117   2.8600  0.00  0.00     0.000 OA
ENDBRANCH 24 30
BRANCH 20 33
ATOM     33  O3  NAG B   3      -7.883  11.814  -0.6030  0.00  0.00     0.000 O
BRANCH 33 36
ATOM     34  C1  NAG B   3      -9.707  12.489  -3.8240  0.00  0.00     0.000 C
ATOM     35  C2  NAG B   3      -9.000  11.686  -2.7480  0.00  0.00     0.000 C
ATOM     36  C3  NAG B   3      -8.722  12.543  -1.5030  0.00  0.00     0.000 C
ATOM     37  C4  NAG B   3      -8.004  13.824  -1.9210  0.00  0.00     0.000 C
ATOM     38  C5  NAG B   3      -8.754  14.503  -3.0630  0.00  0.00     0.000 C
ATOM     39  O5  NAG B   3      -8.893  13.605  -4.1520  0.00  0.00     0.000 O
ATOM     40   O  NAG B   3      -7.915  14.724  -0.8060  0.00  0.00     0.000 O
ATOM     42  HD  NAG B   3      -8.291  15.263  -1.3700  0.00  0.00     0.000 HD
ATOM     42   C  NAG B   3      -8.037  15.724  -3.6330  0.00  0.00     0.000 C
ATOM     43   O  NAG B   3      -6.814  15.313  -4.2570  0.00  0.00     0.000 O
ATOM     45  HD  NAG B   3      -7.190  15.852  -4.8210  0.00  0.00     0.000 HD
BRANCH 35 47
ATOM     45   N  NAG B   3      -8.537  10.305  -2.7760  0.00  0.00     0.000 N
ATOM     47  HD  NAG B   3      -7.905  10.865  -2.5820  0.00  0.00     0.000 HD
ATOM     47   C  NAG B   3      -9.262   9.296  -2.3350  0.00  0.00     0.000 C
ATOM     48   C  NAG B   3      -8.627   7.940  -2.4170  0.00  0.00     0.000 C
ATOM     49   O  NAG B   3     -10.383   9.459  -1.8580  0.00  0.00     0.000 OA
ENDBRANCH 35 47
BRANCH 34 50
ATOM     50  O4  BDP B   4      -9.779  11.595  -4.9140  0.00  0.00     0.000 O
BRANCH 50 54
ATOM     51  C1  BDP B   4     -12.054  10.452  -8.0870  0.00  0.00     0.000 C
ATOM     52  C2  BDP B   4     -11.152  11.651  -8.3560  0.00  0.00     0.000 C
ATOM     53  C3  BDP B   4     -10.123  11.730  -7.2710  0.00  0.00     0.000 C
ATOM     54  C4  BDP B   4     -10.826  11.772  -5.8830  0.00  0.00     0.000 C
ATOM     55  C5  BDP B   4     -11.868  10.673  -5.7280  0.00  0.00     0.000 C
ATOM     56  O5  BDP B   4     -12.733  10.643  -6.8600  0.00  0.00     0.000 O
ATOM     57   O  BDP B   4     -10.506  11.509  -9.6030  0.00  0.00     0.000 O
ATOM     59  HD  BDP B   4     -10.938  12.039 -10.1350  0.00  0.00     0.000 HD
ATOM     59   O  BDP B   4      -9.418  12.975  -7.4500  0.00  0.00     0.000 O
ATOM     61  HD  BDP B   4      -9.850  13.506  -7.9810  0.00  0.00     0.000 HD
BRANCH 55 61
ATOM     61   C  BDP B   4     -12.690  10.934  -4.4780  0.00  0.00     0.000 C
ATOM     62   O  BDP B   4     -12.842   9.987  -3.6630  0.00  0.00     0.000 OA
ATOM     63   O  BDP B   4     -13.181  12.092  -4.3140  0.00  0.00     0.000 OA
ENDBRANCH 55 61
BRANCH 51 64
ATOM     64  O3  NAG B   5     -12.989  10.367  -9.1800  0.00  0.00     0.000 O
BRANCH 64 67
ATOM     65  C1  NAG B   5     -14.041   7.115 -10.5620  0.00  0.00     0.000 C
ATOM     66  C2  NAG B   5     -13.170   8.338 -10.3330  0.00  0.00     0.000 C
ATOM     67  C3  NAG B   5     -13.724   9.159  -9.1750  0.00  0.00     0.000 C
ATOM     68  C4  NAG B   5     -15.214   9.466  -9.3810  0.00  0.00     0.000 C
ATOM     69  C5  NAG B   5     -15.986   8.195  -9.6950  0.00  0.00     0.000 C
ATOM     70  O5  NAG B   5     -15.373   7.511 -10.7980  0.00  0.00     0.000 O
ATOM     71   O  NAG B   5     -15.710  10.092  -8.2170  0.00  0.00     0.000 O
ATOM     73  HD  NAG B   5     -16.108  10.592  -8.8020  0.00  0.00     0.000 HD
ATOM     73   C  NAG B   5     -17.464   8.423 -10.0420  0.00  0.00     0.000 C
ATOM     74   O  NAG B   5     -17.563   9.195 -11.2560  0.00  0.00     0.000 O
ATOM     76  HD  NAG B   5     -17.961   9.695 -11.8410  0.00  0.00     0.000 HD
BRANCH 66 78
ATOM     76   N  NAG B   5     -11.945   8.436 -11.1490  0.00  0.00     0.000 N
ATOM     78  HD  NAG B   5     -12.147   8.364 -10.3100  0.00  0.00     0.000 HD
ATOM     78   C  NAG B   5     -10.691   8.223 -10.7190  0.00  0.00     0.000 C
ATOM     79   C  NAG B   5      -9.653   8.381 -11.7960  0.00  0.00     0.000 C
ATOM     80   O  NAG B   5     -10.405   7.922  -9.5050  0.00  0.00     0.000 OA
ENDBRANCH 66 78
BRANCH 65 81
ATOM     81  O4  BDP B   6     -13.551   6.363 -11.6800  0.00  0.00     0.000 O
BRANCH 81 85
ATOM     82  C1  BDP B   6     -12.847   2.235 -12.5890  0.00  0.00     0.000 C
ATOM     83  C2  BDP B   6     -14.044   2.909 -13.2530  0.00  0.00     0.000 C
ATOM     84  C3  BDP B   6     -13.973   4.438 -13.1970  0.00  0.00     0.000 C
ATOM     85  C4  BDP B   6     -13.719   4.947 -11.7770  0.00  0.00     0.000 C
ATOM     86  C5  BDP B   6     -12.511   4.169 -11.2020  0.00  0.00     0.000 C
ATOM     87  O5  BDP B   6     -12.717   2.721 -11.2610  0.00  0.00     0.000 O
ATOM     88   O  BDP B   6     -14.017   2.480 -14.6120  0.00  0.00     0.000 O
ATOM     90  HD  BDP B   6     -14.131   2.791 -15.4120  0.00  0.00     0.000 HD
ATOM     90   O  BDP B   6     -15.177   4.994 -13.7330  0.00  0.00     0.000 O
ATOM     92  HD  BDP B   6     -15.291   5.304 -14.5330  0.00  0.00     0.000 HD
BRANCH 86 92
ATOM     92   C  BDP B   6     -12.354   4.450  -9.7270  0.00  0.00     0.000 C
ATOM     93   O  BDP B   6     -11.309   5.037  -9.3110  0.00  0.00     0.000 OA
ATOM     94   O  BDP B   6     -13.303   4.099  -8.9590  0.00  0.00     0.000 OA
ENDBRANCH 86 92
BRANCH 82 95
ATOM     95  O3  NAG B   7     -13.104   0.819 -12.5190  0.00  0.00     0.000 O
BRANCH 95 98
ATOM     96  C1  NAG B   7     -11.255  -2.313 -12.8500  0.00  0.00     0.000 C
ATOM     97  C2  NAG B   7     -12.446  -1.377 -12.9990  0.00  0.00     0.000 C
ATOM     98  C3  NAG B   7     -12.012  -0.078 -12.3240  0.00  0.00     0.000 C
ATOM     99  C4  NAG B   7     -11.687  -0.339 -10.8550  0.00  0.00     0.000 C
ATOM    100  C5  NAG B   7     -10.660  -1.464 -10.7150  0.00  0.00     0.000 C
ATOM    101  O5  NAG B   7     -11.109  -2.591 -11.4530  0.00  0.00     0.000 O
BRANCH 97 104
ATOM    102   N  NAG B   7     -13.425  -1.113 -14.0630  0.00  0.00     0.000 N
ATOM    104  HD  NAG B   7     -14.086  -1.197 -14.6160  0.00  0.00     0.000 HD
ATOM    104   O  NAG B   7     -14.149  -0.727 -16.1740  0.00  0.00     0.000 OA
ATOM    105   C  NAG B   7     -13.207  -0.876 -15.3710  0.00  0.00     0.000 C
ATOM    106   C  NAG B   7     -11.805  -0.805 -15.8710  0.00  0.00     0.000 C
ENDBRANCH 97 104
ATOM    107   O  NAG B   7      -9.304  -2.607  -9.1800  0.00  0.00     0.000 O
ATOM    109  HD  NAG B   7      -9.347  -2.280  -9.9800  0.00  0.00     0.000 HD
ATOM    109   O  NAG B   7      -9.304  -2.607  -9.1800  0.00  0.00     0.000 O
ATOM    111  HD  NAG B   7      -9.347  -2.280  -9.9800  0.00  0.00     0.000 HD
ENDBRANCH 95 98
ENDBRANCH 82 95
ENDBRANCH 81 85
ENDBRANCH 65 81
ENDBRANCH 64 67
ENDBRANCH 51 64
ENDBRANCH 50 54
ENDBRANCH 34 50
ENDBRANCH 33 36
ENDBRANCH 20 33
ENDBRANCH 19 23
ENDBRANCH 1 19
TORSDOF 19
ENDMDL
MODEL 62
REMARK VINA RESULT:      -6.0     26.361     31.570
ROOT
ATOM      1  C1  NAG B   1     -10.126   9.156   6.2620  0.00  0.00     0.000 C
ATOM      2  C2  NAG B   1      -9.871   7.734   6.7540  0.00  0.00     0.000 C
ATOM      3  C3  NAG B   1      -9.281   7.717   8.1490  0.00  0.00     0.000 C
ATOM      4  C4  NAG B   1      -8.000   8.540   8.0600  0.00  0.00     0.000 C
ATOM      5  C5  NAG B   1      -8.355   9.985   7.6900  0.00  0.00     0.000 C
ATOM      6  O5  NAG B   1      -9.009  10.048   6.4050  0.00  0.00     0.000 O
ATOM      7   O  NAG B   1      -9.001   6.374   8.6060  0.00  0.00     0.000 O
ATOM      9  HD  NAG B   1      -9.718   6.265   8.1330  0.00  0.00     0.000 HD
ATOM      9   O  NAG B   1      -7.317   8.516   9.3020  0.00  0.00     0.000 O
ATOM     11  HD  NAG B   1      -8.034   8.406   8.8290  0.00  0.00     0.000 HD
ATOM     11   C  NAG B   1      -7.095  10.860   7.7290  0.00  0.00     0.000 C
ATOM     12   O  NAG B   1      -7.195  11.953   6.8180  0.00  0.00     0.000 O
ATOM     14  HD  NAG B   1      -7.912  11.843   6.3440  0.00  0.00     0.000 HD
ENDROOT
BRANCH 2 16
ATOM     14   N  NAG B   1     -10.122   6.609   5.8350  0.00  0.00     0.000 N
ATOM     16  HD  NAG B   1     -10.117   5.744   5.7870  0.00  0.00     0.000 HD
ATOM     16   C  NAG B   1     -11.260   5.893   5.8440  0.00  0.00     0.000 C
ATOM     17   C  NAG B   1     -12.341   6.212   6.8430  0.00  0.00     0.000 C
ATOM     18   O  NAG B   1     -11.454   4.993   5.0280  0.00  0.00     0.000 OA
ENDBRANCH 2 16
BRANCH 1 19
ATOM     19  O4  BDP B   2     -10.314   8.986   4.8630  0.00  0.00     0.000 O
BRANCH 19 23
ATOM     20  C1  BDP B   2      -9.020  10.898   1.4550  0.00  0.00     0.000 C
ATOM     21  C2  BDP B   2      -7.985  10.085   2.2060  0.00  0.00     0.000 C
ATOM     22  C3  BDP B   2      -8.639   9.115   3.1630  0.00  0.00     0.000 C
ATOM     23  C4  BDP B   2      -9.596   9.893   4.0610  0.00  0.00     0.000 C
ATOM     24  C5  BDP B   2     -10.588  10.653   3.2030  0.00  0.00     0.000 C
ATOM     25  O5  BDP B   2      -9.893  11.555   2.3630  0.00  0.00     0.000 O
ATOM     26   O  BDP B   2      -7.165   9.380   1.2990  0.00  0.00     0.000 O
ATOM     28  HD  BDP B   2      -7.577   9.914   0.7560  0.00  0.00     0.000 HD
ATOM     28   O  BDP B   2      -7.622   8.436   3.9170  0.00  0.00     0.000 O
ATOM     30  HD  BDP B   2      -8.034   8.970   3.3740  0.00  0.00     0.000 HD
BRANCH 24 30
ATOM     30   C  BDP B   2     -11.546  11.444   4.0190  0.00  0.00     0.000 C
ATOM     31   O  BDP B   2     -12.734  11.048   4.0550  0.00  0.00     0.000 OA
ATOM     32   O  BDP B   2     -11.119  12.471   4.6200  0.00  0.00     0.000 OA
ENDBRANCH 24 30
BRANCH 20 33
ATOM     33  O3  NAG B   3      -8.262  11.860   0.7640  0.00  0.00     0.000 O
BRANCH 33 36
ATOM     34  C1  NAG B   3      -9.128  12.809  -2.7710  0.00  0.00     0.000 C
ATOM     35  C2  NAG B   3      -8.501  12.017  -1.6400  0.00  0.00     0.000 C
ATOM     36  C3  NAG B   3      -9.021  12.486  -0.2730  0.00  0.00     0.000 C
ATOM     37  C4  NAG B   3      -8.855  14.000  -0.1620  0.00  0.00     0.000 C
ATOM     38  C5  NAG B   3      -9.445  14.689  -1.3900  0.00  0.00     0.000 C
ATOM     39  O5  NAG B   3      -8.836  14.184  -2.5660  0.00  0.00     0.000 O
ATOM     40   O  NAG B   3      -9.516  14.481   1.0190  0.00  0.00     0.000 O
ATOM     42  HD  NAG B   3      -9.902  14.999   0.4420  0.00  0.00     0.000 HD
ATOM     42   C  NAG B   3      -9.208  16.196  -1.4250  0.00  0.00     0.000 C
ATOM     43   O  NAG B   3      -7.805  16.458  -1.5580  0.00  0.00     0.000 O
ATOM     45  HD  NAG B   3      -8.191  16.976  -2.1340  0.00  0.00     0.000 HD
BRANCH 35 47
ATOM     45   N  NAG B   3      -8.740  10.593  -1.8410  0.00  0.00     0.000 N
ATOM     47  HD  NAG B   3      -9.197  11.088  -2.3850  0.00  0.00     0.000 HD
ATOM     47   C  NAG B   3      -7.789   9.686  -1.7430  0.00  0.00     0.000 C
ATOM     48   C  NAG B   3      -8.200   8.267  -2.0010  0.00  0.00     0.000 C
ATOM     49   O  NAG B   3      -6.626   9.986  -1.4830  0.00  0.00     0.000 OA
ENDBRANCH 35 47
BRANCH 34 50
ATOM     50  O4  BDP B   4      -8.464  12.332  -3.9220  0.00  0.00     0.000 O
BRANCH 50 54
ATOM     51  C1  BDP B   4      -8.767  11.779  -7.9420  0.00  0.00     0.000 C
ATOM     52  C2  BDP B   4      -8.663  13.237  -7.5110  0.00  0.00     0.000 C
ATOM     53  C3  BDP B   4      -8.187  13.285  -6.0910  0.00  0.00     0.000 C
ATOM     54  C4  BDP B   4      -9.128  12.431  -5.1930  0.00  0.00     0.000 C
ATOM     55  C5  BDP B   4      -9.369  11.040  -5.7640  0.00  0.00     0.000 C
ATOM     56  O5  BDP B   4      -9.732  11.122  -7.1390  0.00  0.00     0.000 O
ATOM     57   O  BDP B   4      -7.747  13.927  -8.3340  0.00  0.00     0.000 O
ATOM     59  HD  BDP B   4      -8.243  14.389  -8.8730  0.00  0.00     0.000 HD
ATOM     59   O  BDP B   4      -8.287  14.658  -5.6610  0.00  0.00     0.000 O
ATOM     61  HD  BDP B   4      -8.783  15.120  -6.2000  0.00  0.00     0.000 HD
BRANCH 55 61
ATOM     61   C  BDP B   4     -10.490  10.369  -4.9910  0.00  0.00     0.000 C
ATOM     62   O  BDP B   4     -10.216   9.329  -4.3360  0.00  0.00     0.000 OA
ATOM     63   O  BDP B   4     -11.647  10.887  -5.0390  0.00  0.00     0.000 OA
ENDBRANCH 55 61
BRANCH 51 64
ATOM     64  O3  NAG B   5      -9.164  11.770  -9.3270  0.00  0.00     0.000 O
BRANCH 64 67
ATOM     65  C1  NAG B   5      -7.418   9.506 -11.6540  0.00  0.00     0.000 C
ATOM     66  C2  NAG B   5      -7.645  10.711 -10.7590  0.00  0.00     0.000 C
ATOM     67  C3  NAG B   5      -8.924  10.525  -9.9530  0.00  0.00     0.000 C
ATOM     68  C4  NAG B   5     -10.107  10.178 -10.8690  0.00  0.00     0.000 C
ATOM     69  C5  NAG B   5      -9.752   9.022 -11.7900  0.00  0.00     0.000 C
ATOM     70  O5  NAG B   5      -8.534   9.311 -12.4920  0.00  0.00     0.000 O
ATOM     71   O  NAG B   5     -11.225   9.868 -10.0650  0.00  0.00     0.000 O
ATOM     73  HD  NAG B   5     -11.634  10.343 -10.6620  0.00  0.00     0.000 HD
ATOM     73   C  NAG B   5     -10.831   8.687 -12.8290  0.00  0.00     0.000 C
ATOM     74   O  NAG B   5     -10.999   9.804 -13.7280  0.00  0.00     0.000 O
ATOM     76  HD  NAG B   5     -11.408  10.278 -14.3250  0.00  0.00     0.000 HD
BRANCH 66 78
ATOM     76   N  NAG B   5      -6.471  10.846  -9.8760  0.00  0.00     0.000 N
ATOM     78  HD  NAG B   5      -6.831  11.288 -10.5280  0.00  0.00     0.000 HD
ATOM     78   C  NAG B   5      -5.694  11.935  -9.7550  0.00  0.00     0.000 C
ATOM     79   C  NAG B   5      -4.581  11.770  -8.7560  0.00  0.00     0.000 C
ATOM     80   O  NAG B   5      -5.879  13.008 -10.4330  0.00  0.00     0.000 OA
ENDBRANCH 66 78
BRANCH 65 81
ATOM     81  O4  BDP B   6      -6.240   9.696 -12.4490  0.00  0.00     0.000 O
BRANCH 81 85
ATOM     82  C1  BDP B   6      -3.115   7.419 -14.2960  0.00  0.00     0.000 C
ATOM     83  C2  BDP B   6      -4.555   6.998 -14.5760  0.00  0.00     0.000 C
ATOM     84  C3  BDP B   6      -5.573   8.086 -14.2230  0.00  0.00     0.000 C
ATOM     85  C4  BDP B   6      -5.376   8.613 -12.8000  0.00  0.00     0.000 C
ATOM     86  C5  BDP B   6      -3.881   8.971 -12.6280  0.00  0.00     0.000 C
ATOM     87  O5  BDP B   6      -3.008   7.839 -12.9430  0.00  0.00     0.000 O
ATOM     88   O  BDP B   6      -4.608   6.731 -15.9750  0.00  0.00     0.000 O
ATOM     90  HD  BDP B   6      -5.122   6.861 -16.6600  0.00  0.00     0.000 HD
ATOM     90   O  BDP B   6      -6.898   7.580 -14.4030  0.00  0.00     0.000 O
ATOM     92  HD  BDP B   6      -7.412   7.710 -15.0880  0.00  0.00     0.000 HD
BRANCH 86 92
ATOM     92   C  BDP B   6      -3.571   9.272 -11.1820  0.00  0.00     0.000 C
ATOM     93   O  BDP B   6      -2.666  10.115 -10.8990  0.00  0.00     0.000 OA
ATOM     94   O  BDP B   6      -4.259   8.673 -10.2980  0.00  0.00     0.000 OA
ENDBRANCH 86 92
BRANCH 82 95
ATOM     95  O3  NAG B   7      -2.264   6.269 -14.4710  0.00  0.00     0.000 O
BRANCH 95 98
ATOM     96  C1  NAG B   7       0.404   5.210 -16.7280  0.00  0.00     0.000 C
ATOM     97  C2  NAG B   7      -0.849   5.045 -15.8790  0.00  0.00     0.000 C
ATOM     98  C3  NAG B   7      -1.055   6.406 -15.2160  0.00  0.00     0.000 C
ATOM     99  C4  NAG B   7       0.159   6.755 -14.3590  0.00  0.00     0.000 C
ATOM    100  C5  NAG B   7       1.448   6.673 -15.1780  0.00  0.00     0.000 C
ATOM    101  O5  NAG B   7       1.500   5.412 -15.8280  0.00  0.00     0.000 O
BRANCH 97 104
ATOM    102   N  NAG B   7      -2.112   4.797 -16.5870  0.00  0.00     0.000 N
ATOM    104  HD  NAG B   7      -2.925   4.871 -16.8760  0.00  0.00     0.000 HD
ATOM    104   O  NAG B   7      -4.004   3.680 -17.1380  0.00  0.00     0.000 OA
ATOM    105   C  NAG B   7      -2.923   3.725 -16.5170  0.00  0.00     0.000 C
ATOM    106   C  NAG B   7      -2.524   2.568 -15.6660  0.00  0.00     0.000 C
ENDBRANCH 97 104
ATOM    107   O  NAG B   7       3.753   7.102 -15.1250  0.00  0.00     0.000 O
ATOM    109  HD  NAG B   7       3.038   7.132 -15.6130  0.00  0.00     0.000 HD
ATOM    109   O  NAG B   7       3.753   7.102 -15.1250  0.00  0.00     0.000 O
ATOM    111  HD  NAG B   7       3.038   7.132 -15.6130  0.00  0.00     0.000 HD
ENDBRANCH 95 98
ENDBRANCH 82 95
ENDBRANCH 81 85
ENDBRANCH 65 81
ENDBRANCH 64 67
ENDBRANCH 51 64
ENDBRANCH 50 54
ENDBRANCH 34 50
ENDBRANCH 33 36
ENDBRANCH 20 33
ENDBRANCH 19 23
ENDBRANCH 1 19
TORSDOF 19
ENDMDL
MODEL 63
REMARK VINA RESULT:      -6.0      8.351     16.853
ROOT
ATOM      1  C1  NAG B   1      10.334   6.364  14.8600  0.00  0.00     0.000 C
ATOM      2  C2  NAG B   1       9.737   7.330  13.8410  0.00  0.00     0.000 C
ATOM      3  C3  NAG B   1       9.421   8.677  14.4580  0.00  0.00     0.000 C
ATOM      4  C4  NAG B   1       8.466   8.384  15.6110  0.00  0.00     0.000 C
ATOM      5  C5  NAG B   1       9.186   7.518  16.6530  0.00  0.00     0.000 C
ATOM      6  O5  NAG B   1       9.595   6.254  16.0870  0.00  0.00     0.000 O
ATOM      7   O  NAG B   1       8.818   9.584  13.5080  0.00  0.00     0.000 O
ATOM      9  HD  NAG B   1       9.372   9.137  13.0140  0.00  0.00     0.000 HD
ATOM      9   O  NAG B   1       8.035   9.595  16.2080  0.00  0.00     0.000 O
ATOM     11  HD  NAG B   1       8.589   9.148  15.7140  0.00  0.00     0.000 HD
ATOM     11   C  NAG B   1       8.290   7.326  17.8830  0.00  0.00     0.000 C
ATOM     12   O  NAG B   1       8.568   6.089  18.5380  0.00  0.00     0.000 O
ATOM     14  HD  NAG B   1       9.121   5.642  18.0440  0.00  0.00     0.000 HD
ENDROOT
BRANCH 2 16
ATOM     14   N  NAG B   1       9.668   6.613  12.5550  0.00  0.00     0.000 N
ATOM     16  HD  NAG B   1       9.277   6.620  11.7820  0.00  0.00     0.000 HD
ATOM     16   C  NAG B   1      10.301   7.032  11.4460  0.00  0.00     0.000 C
ATOM     17   C  NAG B   1      11.108   8.303  11.4750  0.00  0.00     0.000 C
ATOM     18   O  NAG B   1      10.261   6.380  10.4030  0.00  0.00     0.000 OA
ENDBRANCH 2 16
BRANCH 1 19
ATOM     19  O4  BDP B   2      10.216   5.101  14.2180  0.00  0.00     0.000 O
BRANCH 19 23
ATOM     20  C1  BDP B   2      12.223   1.515  14.4490  0.00  0.00     0.000 C
ATOM     21  C2  BDP B   2      11.126   1.739  15.4690  0.00  0.00     0.000 C
ATOM     22  C3  BDP B   2      10.202   2.858  15.0430  0.00  0.00     0.000 C
ATOM     23  C4  BDP B   2      11.045   4.095  14.7480  0.00  0.00     0.000 C
ATOM     24  C5  BDP B   2      12.096   3.753  13.7100  0.00  0.00     0.000 C
ATOM     25  O5  BDP B   2      12.931   2.722  14.2020  0.00  0.00     0.000 O
ATOM     26   O  BDP B   2      10.384   0.554  15.6580  0.00  0.00     0.000 O
ATOM     28  HD  BDP B   2      11.055   0.249  15.2030  0.00  0.00     0.000 HD
ATOM     28   O  BDP B   2       9.239   3.096  16.0810  0.00  0.00     0.000 O
ATOM     30  HD  BDP B   2       9.910   2.791  15.6270  0.00  0.00     0.000 HD
BRANCH 24 30
ATOM     30   C  BDP B   2      12.962   4.916  13.3830  0.00  0.00     0.000 C
ATOM     31   O  BDP B   2      12.863   5.401  12.2330  0.00  0.00     0.000 OA
ATOM     32   O  BDP B   2      13.752   5.346  14.2720  0.00  0.00     0.000 OA
ENDBRANCH 24 30
BRANCH 20 33
ATOM     33  O3  NAG B   3      13.085   0.594  15.0720  0.00  0.00     0.000 O
BRANCH 33 36
ATOM     34  C1  NAG B   3      14.715  -2.305  13.3140  0.00  0.00     0.000 C
ATOM     35  C2  NAG B   3      13.684  -1.559  14.1390  0.00  0.00     0.000 C
ATOM     36  C3  NAG B   3      13.948  -0.045  14.1280  0.00  0.00     0.000 C
ATOM     37  C4  NAG B   3      15.398   0.218  14.5270  0.00  0.00     0.000 C
ATOM     38  C5  NAG B   3      16.341  -0.645  13.6930  0.00  0.00     0.000 C
ATOM     39  O5  NAG B   3      16.001  -2.014  13.8410  0.00  0.00     0.000 O
ATOM     40   O  NAG B   3      15.717   1.604  14.3280  0.00  0.00     0.000 O
ATOM     42  HD  NAG B   3      16.361   1.261  13.8610  0.00  0.00     0.000 HD
ATOM     42   C  NAG B   3      17.805  -0.543  14.1140  0.00  0.00     0.000 C
ATOM     43   O  NAG B   3      17.963  -1.081  15.4320  0.00  0.00     0.000 O
ATOM     45  HD  NAG B   3      18.607  -1.425  14.9650  0.00  0.00     0.000 HD
BRANCH 35 47
ATOM     45   N  NAG B   3      12.619  -2.281  14.8240  0.00  0.00     0.000 N
ATOM     47  HD  NAG B   3      13.220  -1.977  15.3690  0.00  0.00     0.000 HD
ATOM     47   C  NAG B   3      11.355  -2.212  14.4590  0.00  0.00     0.000 C
ATOM     48   C  NAG B   3      10.384  -3.002  15.2840  0.00  0.00     0.000 C
ATOM     49   O  NAG B   3      10.988  -1.519  13.5120  0.00  0.00     0.000 OA
ENDBRANCH 35 47
BRANCH 34 50
ATOM     50  O4  BDP B   4      14.393  -3.664  13.5260  0.00  0.00     0.000 O
BRANCH 50 54
ATOM     51  C1  BDP B   4      14.781  -7.437  12.0550  0.00  0.00     0.000 C
ATOM     52  C2  BDP B   4      16.092  -6.790  12.4890  0.00  0.00     0.000 C
ATOM     53  C3  BDP B   4      15.779  -5.595  13.3370  0.00  0.00     0.000 C
ATOM     54  C4  BDP B   4      14.832  -4.635  12.5610  0.00  0.00     0.000 C
ATOM     55  C5  BDP B   4      13.630  -5.359  11.9700  0.00  0.00     0.000 C
ATOM     56  O5  BDP B   4      14.049  -6.521  11.2600  0.00  0.00     0.000 O
ATOM     57   O  BDP B   4      16.865  -7.704  13.2370  0.00  0.00     0.000 O
ATOM     59  HD  BDP B   4      17.477  -7.973  12.6860  0.00  0.00     0.000 HD
ATOM     59   O  BDP B   4      17.024  -4.904  13.5640  0.00  0.00     0.000 O
ATOM     61  HD  BDP B   4      17.636  -5.173  13.0140  0.00  0.00     0.000 HD
BRANCH 55 61
ATOM     61   C  BDP B   4      12.904  -4.427  11.0160  0.00  0.00     0.000 C
ATOM     62   O  BDP B   4      11.913  -3.786  11.4560  0.00  0.00     0.000 OA
ATOM     63   O  BDP B   4      13.329  -4.337   9.8240  0.00  0.00     0.000 OA
ENDBRANCH 55 61
BRANCH 51 64
ATOM     64  O3  NAG B   5      15.117  -8.616  11.2980  0.00  0.00     0.000 O
BRANCH 64 67
ATOM     65  C1  NAG B   5      13.543 -11.893  11.9090  0.00  0.00     0.000 C
ATOM     66  C2  NAG B   5      14.511 -10.735  12.0840  0.00  0.00     0.000 C
ATOM     67  C3  NAG B   5      14.056  -9.548  11.2440  0.00  0.00     0.000 C
ATOM     68  C4  NAG B   5      13.815  -9.965   9.7860  0.00  0.00     0.000 C
ATOM     69  C5  NAG B   5      12.911 -11.185   9.7180  0.00  0.00     0.000 C
ATOM     70  O5  NAG B   5      13.440 -12.232  10.5450  0.00  0.00     0.000 O
ATOM     71   O  NAG B   5      13.253  -8.872   9.0910  0.00  0.00     0.000 O
ATOM     73  HD  NAG B   5      13.808  -9.132   8.4790  0.00  0.00     0.000 HD
ATOM     73   C  NAG B   5      12.718 -11.751   8.3040  0.00  0.00     0.000 C
ATOM     74   O  NAG B   5      13.981 -12.229   7.7970  0.00  0.00     0.000 O
ATOM     76  HD  NAG B   5      14.536 -12.489   7.1850  0.00  0.00     0.000 HD
BRANCH 66 78
ATOM     76   N  NAG B   5      15.628 -10.844  13.0410  0.00  0.00     0.000 N
ATOM     78  HD  NAG B   5      14.884 -10.406  12.9780  0.00  0.00     0.000 HD
ATOM     78   C  NAG B   5      15.649 -10.351  14.2900  0.00  0.00     0.000 C
ATOM     79   C  NAG B   5      16.927 -10.642  15.0280  0.00  0.00     0.000 C
ATOM     80   O  NAG B   5      14.676  -9.688  14.8000  0.00  0.00     0.000 OA
ENDBRANCH 66 78
BRANCH 65 81
ATOM     81  O4  BDP B   6      13.992 -13.028  12.6610  0.00  0.00     0.000 O
BRANCH 81 85
ATOM     82  C1  BDP B   6      12.370 -16.702  14.1550  0.00  0.00     0.000 C
ATOM     83  C2  BDP B   6      13.152 -16.757  12.8460  0.00  0.00     0.000 C
ATOM     84  C3  BDP B   6      14.017 -15.515  12.6170  0.00  0.00     0.000 C
ATOM     85  C4  BDP B   6      13.214 -14.222  12.7730  0.00  0.00     0.000 C
ATOM     86  C5  BDP B   6      12.442 -14.300  14.1110  0.00  0.00     0.000 C
ATOM     87  O5  BDP B   6      11.611 -15.502  14.1930  0.00  0.00     0.000 O
ATOM     88   O  BDP B   6      13.988 -17.907  12.9510  0.00  0.00     0.000 O
ATOM     90  HD  BDP B   6      14.797 -18.162  12.7750  0.00  0.00     0.000 HD
ATOM     90   O  BDP B   6      14.628 -15.586  11.3260  0.00  0.00     0.000 O
ATOM     92  HD  BDP B   6      15.436 -15.842  11.1510  0.00  0.00     0.000 HD
BRANCH 86 92
ATOM     92   C  BDP B   6      11.448 -13.168  14.2170  0.00  0.00     0.000 C
ATOM     93   O  BDP B   6      11.658 -12.228  15.0420  0.00  0.00     0.000 OA
ATOM     94   O  BDP B   6      10.441 -13.199  13.4440  0.00  0.00     0.000 OA
ENDBRANCH 86 92
BRANCH 82 95
ATOM     95  O3  NAG B   7      11.448 -17.810  14.1790  0.00  0.00     0.000 O
BRANCH 95 98
ATOM     96  C1  NAG B   7       9.291 -19.252  16.7500  0.00  0.00     0.000 C
ATOM     97  C2  NAG B   7      10.365 -19.255  15.6690  0.00  0.00     0.000 C
ATOM     98  C3  NAG B   7      10.399 -17.821  15.1460  0.00  0.00     0.000 C
ATOM     99  C4  NAG B   7       9.034 -17.442  14.5770  0.00  0.00     0.000 C
ATOM    100  C5  NAG B   7       7.928 -17.683  15.6060  0.00  0.00     0.000 C
ATOM    101  O5  NAG B   7       8.039 -19.009  16.0990  0.00  0.00     0.000 O
BRANCH 97 104
ATOM    102   N  NAG B   7      11.737 -19.531  16.1160  0.00  0.00     0.000 N
ATOM    104  HD  NAG B   7      12.582 -19.450  16.2860  0.00  0.00     0.000 HD
ATOM    104   O  NAG B   7      13.742 -20.585  16.1490  0.00  0.00     0.000 OA
ATOM    105   C  NAG B   7      12.573 -20.510  15.7210  0.00  0.00     0.000 C
ATOM    106   C  NAG B   7      12.092 -21.520  14.7350  0.00  0.00     0.000 C
ENDBRANCH 97 104
ATOM    107   O  NAG B   7       5.642 -17.372  16.0330  0.00  0.00     0.000 O
ATOM    109  HD  NAG B   7       6.436 -17.359  16.3790  0.00  0.00     0.000 HD
ATOM    109   O  NAG B   7       5.642 -17.372  16.0330  0.00  0.00     0.000 O
ATOM    111  HD  NAG B   7       6.436 -17.359  16.3790  0.00  0.00     0.000 HD
ENDBRANCH 95 98
ENDBRANCH 82 95
ENDBRANCH 81 85
ENDBRANCH 65 81
ENDBRANCH 64 67
ENDBRANCH 51 64
ENDBRANCH 50 54
ENDBRANCH 34 50
ENDBRANCH 33 36
ENDBRANCH 20 33
ENDBRANCH 19 23
ENDBRANCH 1 19
TORSDOF 19
ENDMDL
MODEL 64
REMARK VINA RESULT:      -6.0     31.656     34.606
ROOT
ATOM      1  C1  NAG B   1      -2.100  20.095  11.6750  0.00  0.00     0.000 C
ATOM      2  C2  NAG B   1      -1.111  19.981  12.8320  0.00  0.00     0.000 C
ATOM      3  C3  NAG B   1      -1.703  19.232  14.0080  0.00  0.00     0.000 C
ATOM      4  C4  NAG B   1      -2.962  20.004  14.3920  0.00  0.00     0.000 C
ATOM      5  C5  NAG B   1      -3.956  19.958  13.2240  0.00  0.00     0.000 C
ATOM      6  O5  NAG B   1      -3.401  20.578  12.0440  0.00  0.00     0.000 O
ATOM      7   O  NAG B   1      -0.786  19.154  15.1230  0.00  0.00     0.000 O
ATOM      9  HD  NAG B   1      -0.255  19.108  14.4400  0.00  0.00     0.000 HD
ATOM      9   O  NAG B   1      -3.552  19.432  15.5470  0.00  0.00     0.000 O
ATOM     11  HD  NAG B   1      -3.020  19.385  14.8650  0.00  0.00     0.000 HD
ATOM     11   C  NAG B   1      -5.281  20.611  13.6390  0.00  0.00     0.000 C
ATOM     12   O  NAG B   1      -5.952  21.179  12.5160  0.00  0.00     0.000 O
ATOM     14  HD  NAG B   1      -5.421  21.132  11.8330  0.00  0.00     0.000 HD
ENDROOT
BRANCH 2 16
ATOM     14   N  NAG B   1       0.119  19.421  12.2440  0.00  0.00     0.000 N
ATOM     16  HD  NAG B   1       0.648  19.485  11.5620  0.00  0.00     0.000 HD
ATOM     16   C  NAG B   1       1.316  20.025  12.3320  0.00  0.00     0.000 C
ATOM     17   C  NAG B   1       1.439  21.352  13.0330  0.00  0.00     0.000 C
ATOM     18   O  NAG B   1       2.330  19.502  11.8710  0.00  0.00     0.000 OA
ENDBRANCH 2 16
BRANCH 1 19
ATOM     19  O4  BDP B   2      -1.526  21.106  10.8560  0.00  0.00     0.000 O
BRANCH 19 23
ATOM     20  C1  BDP B   2      -0.970  20.833   6.7870  0.00  0.00     0.000 C
ATOM     21  C2  BDP B   2      -1.594  19.630   7.4630  0.00  0.00     0.000 C
ATOM     22  C3  BDP B   2      -2.128  19.986   8.8320  0.00  0.00     0.000 C
ATOM     23  C4  BDP B   2      -1.007  20.643   9.6320  0.00  0.00     0.000 C
ATOM     24  C5  BDP B   2      -0.472  21.836   8.8650  0.00  0.00     0.000 C
ATOM     25  O5  BDP B   2       0.033  21.407   7.6140  0.00  0.00     0.000 O
ATOM     26   O  BDP B   2      -2.635  19.106   6.6670  0.00  0.00     0.000 O
ATOM     28  HD  BDP B   2      -2.269  19.654   6.1060  0.00  0.00     0.000 HD
ATOM     28   O  BDP B   2      -2.624  18.799   9.4710  0.00  0.00     0.000 O
ATOM     30  HD  BDP B   2      -2.257  19.347   8.9090  0.00  0.00     0.000 HD
BRANCH 24 30
ATOM     30   C  BDP B   2       0.635  22.517   9.5860  0.00  0.00     0.000 C
ATOM     31   O  BDP B   2       1.776  22.007   9.5010  0.00  0.00     0.000 OA
ATOM     32   O  BDP B   2       0.369  23.560  10.2480  0.00  0.00     0.000 OA
ENDBRANCH 24 30
BRANCH 20 33
ATOM     33  O3  NAG B   3      -0.367  20.300   5.6330  0.00  0.00     0.000 O
BRANCH 33 36
ATOM     34  C1  NAG B   3      -0.490  21.435   2.0490  0.00  0.00     0.000 C
ATOM     35  C2  NAG B   3      -0.697  20.525   3.2450  0.00  0.00     0.000 C
ATOM     36  C3  NAG B   3      -0.355  21.244   4.5590  0.00  0.00     0.000 C
ATOM     37  C4  NAG B   3       1.041  21.853   4.4530  0.00  0.00     0.000 C
ATOM     38  C5  NAG B   3       1.164  22.676   3.1740  0.00  0.00     0.000 C
ATOM     39  O5  NAG B   3       0.862  21.868   2.0490  0.00  0.00     0.000 O
ATOM     40   O  NAG B   3       1.297  22.695   5.5890  0.00  0.00     0.000 O
ATOM     42  HD  NAG B   3       1.468  23.272   4.9660  0.00  0.00     0.000 HD
ATOM     42   C  NAG B   3       2.568  23.217   2.9200  0.00  0.00     0.000 C
ATOM     43   O  NAG B   3       3.466  22.126   2.6830  0.00  0.00     0.000 O
ATOM     45  HD  NAG B   3       3.637  22.704   2.0600  0.00  0.00     0.000 HD
BRANCH 35 47
ATOM     45   N  NAG B   3      -1.146  19.147   3.0970  0.00  0.00     0.000 N
ATOM     47  HD  NAG B   3      -0.321  19.203   3.3540  0.00  0.00     0.000 HD
ATOM     47   C  NAG B   3      -2.358  18.748   3.4270  0.00  0.00     0.000 C
ATOM     48   C  NAG B   3      -2.651  17.290   3.2300  0.00  0.00     0.000 C
ATOM     49   O  NAG B   3      -3.193  19.520   3.8950  0.00  0.00     0.000 OA
ENDBRANCH 35 47
BRANCH 34 50
ATOM     50  O4  BDP B   4      -0.737  20.592   0.9420  0.00  0.00     0.000 O
BRANCH 50 54
ATOM     51  C1  BDP B   4      -0.352  20.992  -3.0880  0.00  0.00     0.000 C
ATOM     52  C2  BDP B   4       0.181  22.171  -2.2830  0.00  0.00     0.000 C
ATOM     53  C3  BDP B   4       0.325  21.749  -0.8530  0.00  0.00     0.000 C
ATOM     54  C4  BDP B   4      -1.031  21.194  -0.3300  0.00  0.00     0.000 C
ATOM     55  C5  BDP B   4      -1.633  20.157  -1.2680  0.00  0.00     0.000 C
ATOM     56  O5  BDP B   4      -1.637  20.641  -2.6080  0.00  0.00     0.000 O
ATOM     57   O  BDP B   4       1.439  22.575  -2.7800  0.00  0.00     0.000 O
ATOM     59  HD  BDP B   4       1.273  23.292  -3.2370  0.00  0.00     0.000 HD
ATOM     59   O  BDP B   4       0.643  22.934  -0.0950  0.00  0.00     0.000 O
ATOM     61  HD  BDP B   4       0.477  23.651  -0.5520  0.00  0.00     0.000 HD
BRANCH 55 61
ATOM     61   C  BDP B   4      -3.059  19.862  -0.8400  0.00  0.00     0.000 C
ATOM     62   O  BDP B   4      -3.745  20.810  -0.3760  0.00  0.00     0.000 OA
ATOM     63   O  BDP B   4      -3.493  18.677  -0.9700  0.00  0.00     0.000 OA
ENDBRANCH 55 61
BRANCH 51 64
ATOM     64  O3  NAG B   5      -0.417  21.410  -4.4650  0.00  0.00     0.000 O
BRANCH 64 67
ATOM     65  C1  NAG B   5       0.985  19.434  -7.2440  0.00  0.00     0.000 C
ATOM     66  C2  NAG B   5       0.946  20.422  -6.0910  0.00  0.00     0.000 C
ATOM     67  C3  NAG B   5      -0.390  20.320  -5.3670  0.00  0.00     0.000 C
ATOM     68  C4  NAG B   5      -1.561  20.442  -6.3510  0.00  0.00     0.000 C
ATOM     69  C5  NAG B   5      -1.386  19.481  -7.5160  0.00  0.00     0.000 C
ATOM     70  O5  NAG B   5      -0.096  19.670  -8.1160  0.00  0.00     0.000 O
ATOM     71   O  NAG B   5      -2.763  20.190  -5.6560  0.00  0.00     0.000 O
ATOM     73  HD  NAG B   5      -3.036  20.862  -6.1280  0.00  0.00     0.000 HD
ATOM     73   C  NAG B   5      -2.447  19.622  -8.6170  0.00  0.00     0.000 C
ATOM     74   O  NAG B   5      -2.340  20.925  -9.2270  0.00  0.00     0.000 O
ATOM     76  HD  NAG B   5      -2.613  21.598  -9.6990  0.00  0.00     0.000 HD
BRANCH 66 78
ATOM     76   N  NAG B   5       2.201  21.157  -5.8370  0.00  0.00     0.000 N
ATOM     78  HD  NAG B   5       1.689  20.603  -5.4100  0.00  0.00     0.000 HD
ATOM     78   C  NAG B   5       3.036  20.957  -4.8050  0.00  0.00     0.000 C
ATOM     79   C  NAG B   5       4.245  21.853  -4.8310  0.00  0.00     0.000 C
ATOM     80   O  NAG B   5       2.820  20.093  -3.8820  0.00  0.00     0.000 OA
ENDBRANCH 66 78
BRANCH 65 81
ATOM     81  O4  BDP B   6       2.222  19.558  -7.9580  0.00  0.00     0.000 O
BRANCH 81 85
ATOM     82  C1  BDP B   6       5.139  17.123  -9.9410  0.00  0.00     0.000 C
ATOM     83  C2  BDP B   6       3.805  17.344 -10.6490  0.00  0.00     0.000 C
ATOM     84  C3  BDP B   6       3.016  18.525 -10.0770  0.00  0.00     0.000 C
ATOM     85  C4  BDP B   6       2.871  18.434  -8.5570  0.00  0.00     0.000 C
ATOM     86  C5  BDP B   6       4.275  18.176  -7.9600  0.00  0.00     0.000 C
ATOM     87  O5  BDP B   6       4.908  16.993  -8.5450  0.00  0.00     0.000 O
ATOM     88   O  BDP B   6       4.136  17.607 -12.0100  0.00  0.00     0.000 O
ATOM     90  HD  BDP B   6       3.912  18.130 -12.6630  0.00  0.00     0.000 HD
ATOM     90   O  BDP B   6       1.736  18.598 -10.7100  0.00  0.00     0.000 O
ATOM     92  HD  BDP B   6       1.511  19.122 -11.3630  0.00  0.00     0.000 HD
BRANCH 86 92
ATOM     92   C  BDP B   6       4.173  17.839  -6.4920  0.00  0.00     0.000 C
ATOM     93   O  BDP B   6       3.276  17.035  -6.0970  0.00  0.00     0.000 OA
ATOM     94   O  BDP B   6       5.021  18.370  -5.7090  0.00  0.00     0.000 OA
ENDBRANCH 86 92
BRANCH 82 95
ATOM     95  O3  NAG B   7       5.704  15.885 -10.4140  0.00  0.00     0.000 O
BRANCH 95 98
ATOM     96  C1  NAG B   7       8.706  14.656 -12.0920  0.00  0.00     0.000 C
ATOM     97  C2  NAG B   7       7.231  14.674 -11.7120  0.00  0.00     0.000 C
ATOM     98  C3  NAG B   7       7.096  15.829 -10.7210  0.00  0.00     0.000 C
ATOM     99  C4  NAG B   7       7.984  15.576  -9.5050  0.00  0.00     0.000 C
ATOM    100  C5  NAG B   7       9.429  15.312  -9.9300  0.00  0.00     0.000 C
ATOM    101  O5  NAG B   7       9.440  14.293 -10.9170  0.00  0.00     0.000 O
BRANCH 97 104
ATOM    102   N  NAG B   7       6.323  14.945 -12.8350  0.00  0.00     0.000 N
ATOM    104  HD  NAG B   7       5.766  15.335 -13.3700  0.00  0.00     0.000 HD
ATOM    104   O  NAG B   7       4.495  14.674 -14.1440  0.00  0.00     0.000 OA
ATOM    105   C  NAG B   7       5.203  14.289 -13.1930  0.00  0.00     0.000 C
ATOM    106   C  NAG B   7       4.794  13.080 -12.4220  0.00  0.00     0.000 C
ENDBRANCH 97 104
ATOM    107   O  NAG B   7      11.610  14.999  -9.1240  0.00  0.00     0.000 O
ATOM    109  HD  NAG B   7      11.131  15.361  -9.7470  0.00  0.00     0.000 HD
ATOM    109   O  NAG B   7      11.610  14.999  -9.1240  0.00  0.00     0.000 O
ATOM    111  HD  NAG B   7      11.131  15.361  -9.7470  0.00  0.00     0.000 HD
ENDBRANCH 95 98
ENDBRANCH 82 95
ENDBRANCH 81 85
ENDBRANCH 65 81
ENDBRANCH 64 67
ENDBRANCH 51 64
ENDBRANCH 50 54
ENDBRANCH 34 50
ENDBRANCH 33 36
ENDBRANCH 20 33
ENDBRANCH 19 23
ENDBRANCH 1 19
TORSDOF 19
ENDMDL
MODEL 65
REMARK VINA RESULT:      -5.9     24.553     30.338
ROOT
ATOM      1  C1  NAG B   1      -9.010  20.046  23.4370  0.00  0.00     0.000 C
ATOM      2  C2  NAG B   1      -9.128  19.784  24.9360  0.00  0.00     0.000 C
ATOM      3  C3  NAG B   1      -8.483  20.883  25.7540  0.00  0.00     0.000 C
ATOM      4  C4  NAG B   1      -7.032  20.942  25.2860  0.00  0.00     0.000 C
ATOM      5  C5  NAG B   1      -6.996  21.340  23.8050  0.00  0.00     0.000 C
ATOM      6  O5  NAG B   1      -7.685  20.369  22.9880  0.00  0.00     0.000 O
ATOM      7   O  NAG B   1      -8.556  20.622  27.1740  0.00  0.00     0.000 O
ATOM      9  HD  NAG B   1      -9.302  20.291  26.8840  0.00  0.00     0.000 HD
ATOM      9   O  NAG B   1      -6.309  21.888  26.0550  0.00  0.00     0.000 O
ATOM     11  HD  NAG B   1      -7.055  21.558  25.7660  0.00  0.00     0.000 HD
ATOM     11   C  NAG B   1      -5.545  21.538  23.3510  0.00  0.00     0.000 C
ATOM     12   O  NAG B   1      -5.395  21.258  21.9600  0.00  0.00     0.000 O
ATOM     14  HD  NAG B   1      -6.141  20.927  21.6700  0.00  0.00     0.000 HD
ENDROOT
BRANCH 2 16
ATOM     14   N  NAG B   1      -9.725  18.529  25.4280  0.00  0.00     0.000 N
ATOM     16  HD  NAG B   1      -9.977  18.123  26.1500  0.00  0.00     0.000 HD
ATOM     16   C  NAG B   1     -11.023  18.413  25.7580  0.00  0.00     0.000 C
ATOM     17   C  NAG B   1     -11.934  19.607  25.6570  0.00  0.00     0.000 C
ATOM     18   O  NAG B   1     -11.495  17.335  26.1180  0.00  0.00     0.000 OA
ENDBRANCH 2 16
BRANCH 1 19
ATOM     19  O4  BDP B   2      -9.322  18.785  22.8620  0.00  0.00     0.000 O
BRANCH 19 23
ATOM     20  C1  BDP B   2      -7.602  16.312  20.0570  0.00  0.00     0.000 C
ATOM     21  C2  BDP B   2      -6.892  16.412  21.3910  0.00  0.00     0.000 C
ATOM     22  C3  BDP B   2      -7.802  16.985  22.4540  0.00  0.00     0.000 C
ATOM     23  C4  BDP B   2      -8.367  18.308  21.9440  0.00  0.00     0.000 C
ATOM     24  C5  BDP B   2      -9.061  18.081  20.6150  0.00  0.00     0.000 C
ATOM     25  O5  BDP B   2      -8.131  17.574  19.6760  0.00  0.00     0.000 O
ATOM     26   O  BDP B   2      -6.429  15.142  21.7960  0.00  0.00     0.000 O
ATOM     28  HD  BDP B   2      -6.648  14.975  20.9750  0.00  0.00     0.000 HD
ATOM     28   O  BDP B   2      -7.061  17.149  23.6730  0.00  0.00     0.000 O
ATOM     30  HD  BDP B   2      -7.280  16.982  22.8520  0.00  0.00     0.000 HD
BRANCH 24 30
ATOM     30   C  BDP B   2      -9.626  19.337  20.0550  0.00  0.00     0.000 C
ATOM     31   O  BDP B   2      -8.820  20.249  19.7600  0.00  0.00     0.000 OA
ATOM     32   O  BDP B   2     -10.880  19.421  19.9140  0.00  0.00     0.000 OA
ENDBRANCH 24 30
BRANCH 20 33
ATOM     33  O3  NAG B   3      -6.584  15.948  19.1570  0.00  0.00     0.000 O
BRANCH 33 36
ATOM     34  C1  NAG B   3      -7.272  13.738  16.1910  0.00  0.00     0.000 C
ATOM     35  C2  NAG B   3      -6.925  14.107  17.6210  0.00  0.00     0.000 C
ATOM     36  C3  NAG B   3      -7.110  15.612  17.8700  0.00  0.00     0.000 C
ATOM     37  C4  NAG B   3      -6.351  16.398  16.8050  0.00  0.00     0.000 C
ATOM     38  C5  NAG B   3      -6.713  15.888  15.4120  0.00  0.00     0.000 C
ATOM     39  O5  NAG B   3      -6.445  14.499  15.3220  0.00  0.00     0.000 O
ATOM     40   O  NAG B   3      -6.675  17.794  16.9010  0.00  0.00     0.000 O
ATOM     42  HD  NAG B   3      -6.867  17.680  16.0640  0.00  0.00     0.000 HD
ATOM     42   C  NAG B   3      -5.902  16.531  14.2900  0.00  0.00     0.000 C
ATOM     43   O  NAG B   3      -4.525  16.156  14.4180  0.00  0.00     0.000 O
ATOM     45  HD  NAG B   3      -4.717  16.042  13.5810  0.00  0.00     0.000 HD
BRANCH 35 47
ATOM     45   N  NAG B   3      -6.444  13.151  18.6100  0.00  0.00     0.000 N
ATOM     47  HD  NAG B   3      -5.846  13.740  18.3970  0.00  0.00     0.000 HD
ATOM     47   C  NAG B   3      -7.203  12.680  19.5800  0.00  0.00     0.000 C
ATOM     48   C  NAG B   3      -6.546  11.719  20.5250  0.00  0.00     0.000 C
ATOM     49   O  NAG B   3      -8.373  13.028  19.7180  0.00  0.00     0.000 OA
ENDBRANCH 35 47
BRANCH 34 50
ATOM     50  O4  BDP B   4      -6.941  12.367  16.1100  0.00  0.00     0.000 O
BRANCH 50 54
ATOM     51  C1  BDP B   4      -7.885   8.845  14.3060  0.00  0.00     0.000 C
ATOM     52  C2  BDP B   4      -7.623   9.998  13.3430  0.00  0.00     0.000 C
ATOM     53  C3  BDP B   4      -6.936  11.100  14.0900  0.00  0.00     0.000 C
ATOM     54  C4  BDP B   4      -7.783  11.500  15.3320  0.00  0.00     0.000 C
ATOM     55  C5  BDP B   4      -8.195  10.294  16.1650  0.00  0.00     0.000 C
ATOM     56  O5  BDP B   4      -8.757   9.282  15.3320  0.00  0.00     0.000 O
ATOM     57   O  BDP B   4      -6.800   9.570  12.2790  0.00  0.00     0.000 O
ATOM     59  HD  BDP B   4      -7.342   9.472  11.6100  0.00  0.00     0.000 HD
ATOM     59   O  BDP B   4      -6.881  12.237  13.2040  0.00  0.00     0.000 O
ATOM     61  HD  BDP B   4      -7.422  12.139  12.5350  0.00  0.00     0.000 HD
BRANCH 55 61
ATOM     61   C  BDP B   4      -9.227  10.724  17.1920  0.00  0.00     0.000 C
ATOM     62   O  BDP B   4      -9.264  10.105  18.2880  0.00  0.00     0.000 OA
ATOM     63   O  BDP B   4     -10.001  11.686  16.9000  0.00  0.00     0.000 OA
ENDBRANCH 55 61
BRANCH 51 64
ATOM     64  O3  NAG B   5      -8.486   7.781  13.5430  0.00  0.00     0.000 O
BRANCH 64 67
ATOM     65  C1  NAG B   5      -7.413   4.444  14.6880  0.00  0.00     0.000 C
ATOM     66  C2  NAG B   5      -7.298   5.847  14.1160  0.00  0.00     0.000 C
ATOM     67  C3  NAG B   5      -8.619   6.586  14.2890  0.00  0.00     0.000 C
ATOM     68  C4  NAG B   5      -9.788   5.763  13.7300  0.00  0.00     0.000 C
ATOM     69  C5  NAG B   5      -9.765   4.349  14.2880  0.00  0.00     0.000 C
ATOM     70  O5  NAG B   5      -8.475   3.758  14.0680  0.00  0.00     0.000 O
ATOM     71   O  NAG B   5     -10.996   6.419  14.0500  0.00  0.00     0.000 O
ATOM     73  HD  NAG B   5     -11.192   6.197  13.2360  0.00  0.00     0.000 HD
ATOM     73   C  NAG B   5     -10.824   3.414  13.6870  0.00  0.00     0.000 C
ATOM     74   O  NAG B   5     -10.566   3.233  12.2790  0.00  0.00     0.000 O
ATOM     76  HD  NAG B   5     -10.761   3.011  11.4650  0.00  0.00     0.000 HD
BRANCH 66 78
ATOM     76   N  NAG B   5      -6.094   6.350  14.8050  0.00  0.00     0.000 N
ATOM     78  HD  NAG B   5      -6.386   6.295  13.9920  0.00  0.00     0.000 HD
ATOM     78   C  NAG B   5      -5.128   7.103  14.2560  0.00  0.00     0.000 C
ATOM     79   C  NAG B   5      -4.035   7.474  15.2220  0.00  0.00     0.000 C
ATOM     80   O  NAG B   5      -5.132   7.465  13.0260  0.00  0.00     0.000 OA
ENDBRANCH 66 78
BRANCH 65 81
ATOM     81  O4  BDP B   6      -6.187   3.729  14.4870  0.00  0.00     0.000 O
BRANCH 81 85
ATOM     82  C1  BDP B   6      -4.054   0.401  16.1410  0.00  0.00     0.000 C
ATOM     83  C2  BDP B   6      -5.094   0.107  15.0640  0.00  0.00     0.000 C
ATOM     84  C3  BDP B   6      -5.491   1.351  14.2650  0.00  0.00     0.000 C
ATOM     85  C4  BDP B   6      -5.895   2.512  15.1770  0.00  0.00     0.000 C
ATOM     86  C5  BDP B   6      -4.786   2.688  16.2410  0.00  0.00     0.000 C
ATOM     87  O5  BDP B   6      -4.531   1.447  16.9750  0.00  0.00     0.000 O
ATOM     88   O  BDP B   6      -4.483  -0.843  14.1940  0.00  0.00     0.000 O
ATOM     90  HD  BDP B   6      -4.402  -1.020  13.3500  0.00  0.00     0.000 HD
ATOM     90   O  BDP B   6      -6.546   1.022  13.3570  0.00  0.00     0.000 O
ATOM     92  HD  BDP B   6      -6.465   0.845  12.5130  0.00  0.00     0.000 HD
BRANCH 86 92
ATOM     92   C  BDP B   6      -5.229   3.655  17.3130  0.00  0.00     0.000 C
ATOM     93   O  BDP B   6      -4.779   4.840  17.3080  0.00  0.00     0.000 OA
ATOM     94   O  BDP B   6      -6.064   3.234  18.1720  0.00  0.00     0.000 OA
ENDBRANCH 86 92
BRANCH 82 95
ATOM     95  O3  NAG B   7      -3.899  -0.778  16.9560  0.00  0.00     0.000 O
BRANCH 95 98
ATOM     96  C1  NAG B   7      -1.285  -2.953  18.2890  0.00  0.00     0.000 C
ATOM     97  C2  NAG B   7      -2.682  -2.591  17.8000  0.00  0.00     0.000 C
ATOM     98  C3  NAG B   7      -2.610  -1.101  17.4730  0.00  0.00     0.000 C
ATOM     99  C4  NAG B   7      -2.234  -0.313  18.7250  0.00  0.00     0.000 C
ATOM    100  C5  NAG B   7      -0.947  -0.856  19.3470  0.00  0.00     0.000 C
ATOM    101  O5  NAG B   7      -1.078  -2.258  19.5240  0.00  0.00     0.000 O
BRANCH 97 104
ATOM    102   N  NAG B   7      -3.209  -3.124  16.5370  0.00  0.00     0.000 N
ATOM    104  HD  NAG B   7      -3.608  -3.191  15.7710  0.00  0.00     0.000 HD
ATOM    104   O  NAG B   7      -4.480  -4.444  15.2050  0.00  0.00     0.000 OA
ATOM    105   C  NAG B   7      -4.072  -4.140  16.3430  0.00  0.00     0.000 C
ATOM    106   C  NAG B   7      -4.562  -4.909  17.5220  0.00  0.00     0.000 C
ENDBRANCH 97 104
ATOM    107   O  NAG B   7       0.656  -0.472  21.0170  0.00  0.00     0.000 O
ATOM    109  HD  NAG B   7       0.532  -0.735  20.2010  0.00  0.00     0.000 HD
ATOM    109   O  NAG B   7       0.656  -0.472  21.0170  0.00  0.00     0.000 O
ATOM    111  HD  NAG B   7       0.532  -0.735  20.2010  0.00  0.00     0.000 HD
ENDBRANCH 95 98
ENDBRANCH 82 95
ENDBRANCH 81 85
ENDBRANCH 65 81
ENDBRANCH 64 67
ENDBRANCH 51 64
ENDBRANCH 50 54
ENDBRANCH 34 50
ENDBRANCH 33 36
ENDBRANCH 20 33
ENDBRANCH 19 23
ENDBRANCH 1 19
TORSDOF 19
ENDMDL
MODEL 66
REMARK VINA RESULT:      -5.9     10.617     15.269
ROOT
ATOM      1  C1  NAG B   1       7.064 -19.955  -0.4880  0.00  0.00     0.000 C
ATOM      2  C2  NAG B   1       6.333 -21.288  -0.6220  0.00  0.00     0.000 C
ATOM      3  C3  NAG B   1       6.063 -21.641  -2.0710  0.00  0.00     0.000 C
ATOM      4  C4  NAG B   1       5.254 -20.475  -2.6300  0.00  0.00     0.000 C
ATOM      5  C5  NAG B   1       6.106 -19.201  -2.5810  0.00  0.00     0.000 C
ATOM      6  O5  NAG B   1       6.473 -18.872  -1.2240  0.00  0.00     0.000 O
ATOM      7   O  NAG B   1       5.337 -22.884  -2.2040  0.00  0.00     0.000 O
ATOM      9  HD  NAG B   1       5.839 -23.034  -1.5140  0.00  0.00     0.000 HD
ATOM      9   O  NAG B   1       4.870 -20.745  -3.9680  0.00  0.00     0.000 O
ATOM     11  HD  NAG B   1       5.372 -20.895  -3.2780  0.00  0.00     0.000 HD
ATOM     11   C  NAG B   1       5.362 -18.047  -3.2640  0.00  0.00     0.000 C
ATOM     12   O  NAG B   1       5.739 -16.788  -2.7080  0.00  0.00     0.000 O
ATOM     14  HD  NAG B   1       6.240 -16.937  -2.0180  0.00  0.00     0.000 HD
ENDROOT
BRANCH 2 16
ATOM     14   N  NAG B   1       7.143 -22.214   0.1900  0.00  0.00     0.000 N
ATOM     16  HD  NAG B   1       7.528 -22.299   0.9610  0.00  0.00     0.000 HD
ATOM     16   C  NAG B   1       6.624 -22.989   1.1580  0.00  0.00     0.000 C
ATOM     17   C  NAG B   1       5.153 -22.914   1.4730  0.00  0.00     0.000 C
ATOM     18   O  NAG B   1       7.324 -23.787   1.7810  0.00  0.00     0.000 OA
ENDBRANCH 2 16
BRANCH 1 19
ATOM     19  O4  BDP B   2       6.897 -19.632   0.8860  0.00  0.00     0.000 O
BRANCH 19 23
ATOM     20  C1  BDP B   2       9.922 -16.845   1.0430  0.00  0.00     0.000 C
ATOM     21  C2  BDP B   2      10.325 -18.289   1.2590  0.00  0.00     0.000 C
ATOM     22  C3  BDP B   2       9.252 -19.236   0.7730  0.00  0.00     0.000 C
ATOM     23  C4  BDP B   2       7.932 -18.849   1.4320  0.00  0.00     0.000 C
ATOM     24  C5  BDP B   2       7.629 -17.393   1.1390  0.00  0.00     0.000 C
ATOM     25  O5  BDP B   2       8.667 -16.580   1.6520  0.00  0.00     0.000 O
ATOM     26   O  BDP B   2      11.539 -18.563   0.5920  0.00  0.00     0.000 O
ATOM     28  HD  BDP B   2      11.519 -17.699   0.5340  0.00  0.00     0.000 HD
ATOM     28   O  BDP B   2       9.635 -20.585   1.0820  0.00  0.00     0.000 O
ATOM     30  HD  BDP B   2       9.616 -19.721   1.0240  0.00  0.00     0.000 HD
BRANCH 24 30
ATOM     30   C  BDP B   2       6.356 -16.946   1.7640  0.00  0.00     0.000 C
ATOM     31   O  BDP B   2       5.296 -17.463   1.3420  0.00  0.00     0.000 OA
ATOM     32   O  BDP B   2       6.409 -16.072   2.6750  0.00  0.00     0.000 OA
ENDBRANCH 24 30
BRANCH 20 33
ATOM     33  O3  NAG B   3      10.922 -16.110   1.7050  0.00  0.00     0.000 O
BRANCH 33 36
ATOM     34  C1  NAG B   3      11.315 -12.413   1.1310  0.00  0.00     0.000 C
ATOM     35  C2  NAG B   3      11.496 -13.901   0.8970  0.00  0.00     0.000 C
ATOM     36  C3  NAG B   3      10.578 -14.726   1.8120  0.00  0.00     0.000 C
ATOM     37  C4  NAG B   3      10.772 -14.278   3.2580  0.00  0.00     0.000 C
ATOM     38  C5  NAG B   3      10.654 -12.760   3.3630  0.00  0.00     0.000 C
ATOM     39  O5  NAG B   3      11.590 -12.142   2.4970  0.00  0.00     0.000 O
ATOM     40   O  NAG B   3       9.784 -14.894   4.0990  0.00  0.00     0.000 O
ATOM     42  HD  NAG B   3       9.635 -14.069   4.3180  0.00  0.00     0.000 HD
ATOM     42   C  NAG B   3      10.963 -12.211   4.7540  0.00  0.00     0.000 C
ATOM     43   O  NAG B   3      12.342 -12.445   5.0650  0.00  0.00     0.000 O
ATOM     45  HD  NAG B   3      12.194 -11.620   5.2830  0.00  0.00     0.000 HD
BRANCH 35 47
ATOM     45   N  NAG B   3      12.209 -14.883   0.0900  0.00  0.00     0.000 N
ATOM     47  HD  NAG B   3      11.944 -15.204   0.8490  0.00  0.00     0.000 HD
ATOM     47   C  NAG B   3      12.087 -14.959  -1.2200  0.00  0.00     0.000 C
ATOM     48   C  NAG B   3      12.876 -16.042  -1.8950  0.00  0.00     0.000 C
ATOM     49   O  NAG B   3      11.348 -14.206  -1.8510  0.00  0.00     0.000 OA
ENDBRANCH 35 47
BRANCH 34 50
ATOM     50  O4  BDP B   4      12.297 -11.823   0.3040  0.00  0.00     0.000 O
BRANCH 50 54
ATOM     51  C1  BDP B   4      12.544  -7.864  -0.5980  0.00  0.00     0.000 C
ATOM     52  C2  BDP B   4      11.197  -8.300  -0.0320  0.00  0.00     0.000 C
ATOM     53  C3  BDP B   4      11.355  -9.651   0.5940  0.00  0.00     0.000 C
ATOM     54  C4  BDP B   4      11.952 -10.645  -0.4430  0.00  0.00     0.000 C
ATOM     55  C5  BDP B   4      13.189 -10.088  -1.1340  0.00  0.00     0.000 C
ATOM     56  O5  BDP B   4      12.940  -8.768  -1.6120  0.00  0.00     0.000 O
ATOM     57   O  BDP B   4      10.753  -7.381   0.9430  0.00  0.00     0.000 O
ATOM     59  HD  BDP B   4      10.145  -6.914   0.5420  0.00  0.00     0.000 HD
ATOM     59   O  BDP B   4      10.033 -10.111   0.9410  0.00  0.00     0.000 O
ATOM     61  HD  BDP B   4       9.424  -9.644   0.5400  0.00  0.00     0.000 HD
BRANCH 55 61
ATOM     61   C  BDP B   4      13.554 -10.982  -2.3060  0.00  0.00     0.000 C
ATOM     62   O  BDP B   4      14.693 -11.518  -2.3070  0.00  0.00     0.000 OA
ATOM     63   O  BDP B   4      12.696 -11.148  -3.2250  0.00  0.00     0.000 OA
ENDBRANCH 55 61
BRANCH 51 64
ATOM     64  O3  NAG B   5      12.372  -6.538  -1.1340  0.00  0.00     0.000 O
BRANCH 64 67
ATOM     65  C1  NAG B   5      14.704  -3.727  -0.6300  0.00  0.00     0.000 C
ATOM     66  C2  NAG B   5      13.532  -4.656  -0.3650  0.00  0.00     0.000 C
ATOM     67  C3  NAG B   5      13.599  -5.856  -1.3010  0.00  0.00     0.000 C
ATOM     68  C4  NAG B   5      13.739  -5.407  -2.7620  0.00  0.00     0.000 C
ATOM     69  C5  NAG B   5      14.877  -4.409  -2.9120  0.00  0.00     0.000 C
ATOM     70  O5  NAG B   5      14.706  -3.329  -1.9820  0.00  0.00     0.000 O
ATOM     71   O  NAG B   5      13.950  -6.547  -3.5670  0.00  0.00     0.000 O
ATOM     73  HD  NAG B   5      13.393  -6.134  -4.0870  0.00  0.00     0.000 HD
ATOM     73   C  NAG B   5      15.011  -3.808  -4.3180  0.00  0.00     0.000 C
ATOM     74   O  NAG B   5      13.832  -3.035  -4.6270  0.00  0.00     0.000 O
ATOM     76  HD  NAG B   5      13.276  -2.622  -5.1460  0.00  0.00     0.000 HD
BRANCH 66 78
ATOM     76   N  NAG B   5      13.610  -5.050   1.0550  0.00  0.00     0.000 N
ATOM     78  HD  NAG B   5      13.072  -4.599   0.5480  0.00  0.00     0.000 HD
ATOM     78   C  NAG B   5      12.628  -4.928   1.9630  0.00  0.00     0.000 C
ATOM     79   C  NAG B   5      13.006  -5.437   3.3270  0.00  0.00     0.000 C
ATOM     80   O  NAG B   5      11.482  -4.419   1.6950  0.00  0.00     0.000 OA
ENDBRANCH 66 78
BRANCH 65 81
ATOM     81  O4  BDP B   6      14.620  -2.573   0.2170  0.00  0.00     0.000 O
BRANCH 81 85
ATOM     82  C1  BDP B   6      17.030   0.687   1.6060  0.00  0.00     0.000 C
ATOM     83  C2  BDP B   6      16.717   0.627   0.1130  0.00  0.00     0.000 C
ATOM     84  C3  BDP B   6      15.546  -0.305  -0.2120  0.00  0.00     0.000 C
ATOM     85  C4  BDP B   6      15.728  -1.690   0.4110  0.00  0.00     0.000 C
ATOM     86  C5  BDP B   6      16.073  -1.498   1.9070  0.00  0.00     0.000 C
ATOM     87  O5  BDP B   6      17.239  -0.632   2.0900  0.00  0.00     0.000 O
ATOM     88   O  BDP B   6      16.381   1.961  -0.2590  0.00  0.00     0.000 O
ATOM     90  HD  BDP B   6      15.810   2.395  -0.7440  0.00  0.00     0.000 HD
ATOM     90   O  BDP B   6      15.387  -0.398  -1.6300  0.00  0.00     0.000 O
ATOM     92  HD  BDP B   6      14.816   0.036  -2.1150  0.00  0.00     0.000 HD
BRANCH 86 92
ATOM     92   C  BDP B   6      16.497  -2.808   2.5260  0.00  0.00     0.000 C
ATOM     93   O  BDP B   6      15.636  -3.527   3.1160  0.00  0.00     0.000 OA
ATOM     94   O  BDP B   6      17.716  -3.146   2.4050  0.00  0.00     0.000 OA
ENDBRANCH 86 92
BRANCH 82 95
ATOM     95  O3  NAG B   7      18.256   1.423   1.7830  0.00  0.00     0.000 O
BRANCH 95 98
ATOM     96  C1  NAG B   7      19.503   4.375   3.5350  0.00  0.00     0.000 C
ATOM     97  C2  NAG B   7      19.441   3.340   2.4200  0.00  0.00     0.000 C
ATOM     98  C3  NAG B   7      18.357   2.357   2.8570  0.00  0.00     0.000 C
ATOM     99  C4  NAG B   7      18.740   1.720   4.1910  0.00  0.00     0.000 C
ATOM    100  C5  NAG B   7      19.042   2.791   5.2400  0.00  0.00     0.000 C
ATOM    101  O5  NAG B   7      19.986   3.706   4.7060  0.00  0.00     0.000 O
BRANCH 97 104
ATOM    102   N  NAG B   7      19.358   3.319   0.9540  0.00  0.00     0.000 N
ATOM    104  HD  NAG B   7      19.557   3.220   0.1160  0.00  0.00     0.000 HD
ATOM    104   O  NAG B   7      19.132   4.178  -1.1300  0.00  0.00     0.000 OA
ATOM    105   C  NAG B   7      19.113   4.337   0.1060  0.00  0.00     0.000 C
ATOM    106   C  NAG B   7      18.826   5.689   0.6630  0.00  0.00     0.000 C
ENDBRANCH 97 104
ATOM    107   O  NAG B   7      19.518   3.131   7.5120  0.00  0.00     0.000 O
ATOM    109  HD  NAG B   7      19.088   3.437   6.8250  0.00  0.00     0.000 HD
ATOM    109   O  NAG B   7      19.518   3.131   7.5120  0.00  0.00     0.000 O
ATOM    111  HD  NAG B   7      19.088   3.437   6.8250  0.00  0.00     0.000 HD
ENDBRANCH 95 98
ENDBRANCH 82 95
ENDBRANCH 81 85
ENDBRANCH 65 81
ENDBRANCH 64 67
ENDBRANCH 51 64
ENDBRANCH 50 54
ENDBRANCH 34 50
ENDBRANCH 33 36
ENDBRANCH 20 33
ENDBRANCH 19 23
ENDBRANCH 1 19
TORSDOF 19
ENDMDL
MODEL 67
REMARK VINA RESULT:      -5.8      9.176     17.805
ROOT
ATOM      1  C1  NAG B   1      10.547   7.221  14.7400  0.00  0.00     0.000 C
ATOM      2  C2  NAG B   1      10.547   7.912  13.3790  0.00  0.00     0.000 C
ATOM      3  C3  NAG B   1      10.326   9.406  13.5040  0.00  0.00     0.000 C
ATOM      4  C4  NAG B   1       8.996   9.561  14.2350  0.00  0.00     0.000 C
ATOM      5  C5  NAG B   1       9.121   8.959  15.6400  0.00  0.00     0.000 C
ATOM      6  O5  NAG B   1       9.427   7.550  15.5770  0.00  0.00     0.000 O
ATOM      7   O  NAG B   1      10.287  10.061  12.2160  0.00  0.00     0.000 O
ATOM      9  HD  NAG B   1      10.870   9.434  12.0890  0.00  0.00     0.000 HD
ATOM      9   O  NAG B   1       8.649  10.933  14.3280  0.00  0.00     0.000 O
ATOM     11  HD  NAG B   1       9.232  10.305  14.2010  0.00  0.00     0.000 HD
ATOM     11   C  NAG B   1       7.840   9.227  16.4400  0.00  0.00     0.000 C
ATOM     12   O  NAG B   1       7.614   8.209  17.4130  0.00  0.00     0.000 O
ATOM     14  HD  NAG B   1       8.197   7.581  17.2850  0.00  0.00     0.000 HD
ENDROOT
BRANCH 2 16
ATOM     14   N  NAG B   1      11.796   7.559  12.6800  0.00  0.00     0.000 N
ATOM     16  HD  NAG B   1      12.350   6.907  12.5460  0.00  0.00     0.000 HD
ATOM     16   C  NAG B   1      11.822   6.879  11.5210  0.00  0.00     0.000 C
ATOM     17   C  NAG B   1      10.534   6.417  10.8910  0.00  0.00     0.000 C
ATOM     18   O  NAG B   1      12.882   6.645  10.9410  0.00  0.00     0.000 OA
ENDBRANCH 2 16
BRANCH 1 19
ATOM     19  O4  BDP B   2      10.396   5.848  14.4060  0.00  0.00     0.000 O
BRANCH 19 23
ATOM     20  C1  BDP B   2      11.277   2.255  16.2100  0.00  0.00     0.000 C
ATOM     21  C2  BDP B   2      10.320   3.165  16.9530  0.00  0.00     0.000 C
ATOM     22  C3  BDP B   2       9.751   4.225  16.0390  0.00  0.00     0.000 C
ATOM     23  C4  BDP B   2      10.910   4.953  15.3630  0.00  0.00     0.000 C
ATOM     24  C5  BDP B   2      11.788   3.947  14.6460  0.00  0.00     0.000 C
ATOM     25  O5  BDP B   2      12.298   3.014  15.5790  0.00  0.00     0.000 O
ATOM     26   O  BDP B   2       9.269   2.412  17.5200  0.00  0.00     0.000 O
ATOM     28  HD  BDP B   2       9.810   1.777  17.2870  0.00  0.00     0.000 HD
ATOM     28   O  BDP B   2       8.926   5.118  16.8040  0.00  0.00     0.000 O
ATOM     30  HD  BDP B   2       9.467   4.483  16.5710  0.00  0.00     0.000 HD
BRANCH 24 30
ATOM     30   C  BDP B   2      12.946   4.591  13.9730  0.00  0.00     0.000 C
ATOM     31   O  BDP B   2      13.270   4.155  12.8440  0.00  0.00     0.000 OA
ATOM     32   O  BDP B   2      13.544   5.529  14.5730  0.00  0.00     0.000 OA
ENDBRANCH 24 30
BRANCH 20 33
ATOM     33  O3  NAG B   3      11.848   1.463  17.2230  0.00  0.00     0.000 O
BRANCH 33 36
ATOM     34  C1  NAG B   3      12.735  -2.110  16.4470  0.00  0.00     0.000 C
ATOM     35  C2  NAG B   3      11.863  -0.923  16.8110  0.00  0.00     0.000 C
ATOM     36  C3  NAG B   3      12.635   0.399  16.6810  0.00  0.00     0.000 C
ATOM     37  C4  NAG B   3      13.941   0.301  17.4660  0.00  0.00     0.000 C
ATOM     38  C5  NAG B   3      14.694  -0.970  17.0820  0.00  0.00     0.000 C
ATOM     39  O5  NAG B   3      13.871  -2.104  17.2990  0.00  0.00     0.000 O
ATOM     40   O  NAG B   3      14.764   1.445  17.1930  0.00  0.00     0.000 O
ATOM     42  HD  NAG B   3      15.340   0.829  16.9950  0.00  0.00     0.000 HD
ATOM     42   C  NAG B   3      15.951  -1.216  17.9130  0.00  0.00     0.000 C
ATOM     43   O  NAG B   3      15.584  -1.464  19.2760  0.00  0.00     0.000 O
ATOM     45  HD  NAG B   3      16.159  -2.080  19.0780  0.00  0.00     0.000 HD
BRANCH 35 47
ATOM     45   N  NAG B   3      10.483  -0.977  17.2770  0.00  0.00     0.000 N
ATOM     47  HD  NAG B   3      11.018  -0.625  17.8590  0.00  0.00     0.000 HD
ATOM     47   C  NAG B   3       9.450  -0.761  16.4860  0.00  0.00     0.000 C
ATOM     48   C  NAG B   3       8.098  -0.835  17.1310  0.00  0.00     0.000 C
ATOM     49   O  NAG B   3       9.587  -0.490  15.2950  0.00  0.00     0.000 OA
ENDBRANCH 35 47
BRANCH 34 50
ATOM     50  O4  BDP B   4      11.916  -3.225  16.7280  0.00  0.00     0.000 O
BRANCH 50 54
ATOM     51  C1  BDP B   4      11.228  -7.120  15.7750  0.00  0.00     0.000 C
ATOM     52  C2  BDP B   4      12.308  -6.909  16.8300  0.00  0.00     0.000 C
ATOM     53  C3  BDP B   4      12.201  -5.509  17.3520  0.00  0.00     0.000 C
ATOM     54  C4  BDP B   4      12.273  -4.501  16.1700  0.00  0.00     0.000 C
ATOM     55  C5  BDP B   4      11.316  -4.861  15.0420  0.00  0.00     0.000 C
ATOM     56  O5  BDP B   4      11.452  -6.236  14.6930  0.00  0.00     0.000 O
ATOM     57   O  BDP B   4      12.137  -7.820  17.8950  0.00  0.00     0.000 O
ATOM     59  HD  BDP B   4      12.743  -8.424  17.7650  0.00  0.00     0.000 HD
ATOM     59   O  BDP B   4      13.349  -5.287  18.1970  0.00  0.00     0.000 O
ATOM     61  HD  BDP B   4      13.955  -5.892  18.0660  0.00  0.00     0.000 HD
BRANCH 55 61
ATOM     61   C  BDP B   4      11.628  -4.004  13.8280  0.00  0.00     0.000 C
ATOM     62   O  BDP B   4      12.567  -4.368  13.0730  0.00  0.00     0.000 OA
ATOM     63   O  BDP B   4      10.927  -2.965  13.6290  0.00  0.00     0.000 OA
ENDBRANCH 55 61
BRANCH 51 64
ATOM     64  O3  NAG B   5      11.317  -8.491  15.3420  0.00  0.00     0.000 O
BRANCH 64 67
ATOM     65  C1  NAG B   5       9.106 -11.442  15.3240  0.00  0.00     0.000 C
ATOM     66  C2  NAG B   5      10.365 -10.620  15.5430  0.00  0.00     0.000 C
ATOM     67  C3  NAG B   5      10.061  -9.142  15.3350  0.00  0.00     0.000 C
ATOM     68  C4  NAG B   5       9.371  -8.906  13.9840  0.00  0.00     0.000 C
ATOM     69  C5  NAG B   5       8.180  -9.837  13.8190  0.00  0.00     0.000 C
ATOM     70  O5  NAG B   5       8.588 -11.195  14.0370  0.00  0.00     0.000 O
ATOM     71   O  NAG B   5       8.977  -7.553  13.9090  0.00  0.00     0.000 O
ATOM     73  HD  NAG B   5       9.275  -7.636  13.1000  0.00  0.00     0.000 HD
ATOM     73   C  NAG B   5       7.504  -9.760  12.4430  0.00  0.00     0.000 C
ATOM     74   O  NAG B   5       8.428 -10.199  11.4250  0.00  0.00     0.000 O
ATOM     76  HD  NAG B   5       8.726 -10.282  10.6160  0.00  0.00     0.000 HD
BRANCH 66 78
ATOM     76   N  NAG B   5      10.904 -10.740  16.9110  0.00  0.00     0.000 N
ATOM     78  HD  NAG B   5      11.078 -11.065  16.1270  0.00  0.00     0.000 HD
ATOM     78   C  NAG B   5      12.062 -11.326  17.2540  0.00  0.00     0.000 C
ATOM     79   C  NAG B   5      12.348 -11.272  18.7300  0.00  0.00     0.000 C
ATOM     80   O  NAG B   5      12.846 -11.886  16.4060  0.00  0.00     0.000 OA
ENDBRANCH 66 78
BRANCH 65 81
ATOM     81  O4  BDP B   6       9.397 -12.838  15.4730  0.00  0.00     0.000 O
BRANCH 81 85
ATOM     82  C1  BDP B   6       7.282 -16.554  15.7560  0.00  0.00     0.000 C
ATOM     83  C2  BDP B   6       7.741 -16.107  14.3700  0.00  0.00     0.000 C
ATOM     84  C3  BDP B   6       8.813 -15.015  14.4220  0.00  0.00     0.000 C
ATOM     85  C4  BDP B   6       8.395 -13.845  15.3140  0.00  0.00     0.000 C
ATOM     86  C5  BDP B   6       7.920 -14.424  16.6680  0.00  0.00     0.000 C
ATOM     87  O5  BDP B   6       6.859 -15.417  16.4950  0.00  0.00     0.000 O
ATOM     88   O  BDP B   6       8.278 -17.274  13.7530  0.00  0.00     0.000 O
ATOM     90  HD  BDP B   6       8.947 -17.521  13.2620  0.00  0.00     0.000 HD
ATOM     90   O  BDP B   6       9.108 -14.569  13.0960  0.00  0.00     0.000 O
ATOM     92  HD  BDP B   6       9.777 -14.817  12.6050  0.00  0.00     0.000 HD
BRANCH 86 92
ATOM     92   C  BDP B   6       7.272 -13.349  17.5060  0.00  0.00     0.000 C
ATOM     93   O  BDP B   6       6.160 -12.859  17.1430  0.00  0.00     0.000 OA
ATOM     94   O  BDP B   6       7.871 -12.994  18.5690  0.00  0.00     0.000 OA
ENDBRANCH 86 92
BRANCH 82 95
ATOM     95  O3  NAG B   7       6.146 -17.427  15.5970  0.00  0.00     0.000 O
BRANCH 95 98
ATOM     96  C1  NAG B   7       5.193 -20.424  17.4540  0.00  0.00     0.000 C
ATOM     97  C2  NAG B   7       5.626 -19.619  16.2360  0.00  0.00     0.000 C
ATOM     98  C3  NAG B   7       5.680 -18.172  16.7210  0.00  0.00     0.000 C
ATOM     99  C4  NAG B   7       4.303 -17.739  17.2180  0.00  0.00     0.000 C
ATOM    100  C5  NAG B   7       3.773 -18.710  18.2740  0.00  0.00     0.000 C
ATOM    101  O5  NAG B   7       3.851 -20.032  17.7640  0.00  0.00     0.000 O
BRANCH 97 104
ATOM    102   N  NAG B   7       6.571 -19.855  15.1360  0.00  0.00     0.000 N
ATOM    104  HD  NAG B   7       6.947 -20.175  14.4250  0.00  0.00     0.000 HD
ATOM    104   O  NAG B   7       8.532 -20.445  14.1690  0.00  0.00     0.000 OA
ATOM    105   C  NAG B   7       7.865 -20.222  15.1980  0.00  0.00     0.000 C
ATOM    106   C  NAG B   7       8.510 -20.379  16.5330  0.00  0.00     0.000 C
ENDBRANCH 97 104
ATOM    107   O  NAG B   7       2.043 -19.065  19.8180  0.00  0.00     0.000 O
ATOM    109  HD  NAG B   7       2.894 -19.142  19.6770  0.00  0.00     0.000 HD
ATOM    109   O  NAG B   7       2.043 -19.065  19.8180  0.00  0.00     0.000 O
ATOM    111  HD  NAG B   7       2.894 -19.142  19.6770  0.00  0.00     0.000 HD
ENDBRANCH 95 98
ENDBRANCH 82 95
ENDBRANCH 81 85
ENDBRANCH 65 81
ENDBRANCH 64 67
ENDBRANCH 51 64
ENDBRANCH 50 54
ENDBRANCH 34 50
ENDBRANCH 33 36
ENDBRANCH 20 33
ENDBRANCH 19 23
ENDBRANCH 1 19
TORSDOF 19
ENDMDL
MODEL 68
REMARK VINA RESULT:      -5.8      9.059     16.326
ROOT
ATOM      1  C1  NAG B   1       7.920   3.138  21.1000  0.00  0.00     0.000 C
ATOM      2  C2  NAG B   1       7.945   3.209  22.6240  0.00  0.00     0.000 C
ATOM      3  C3  NAG B   1       8.438   4.554  23.1180  0.00  0.00     0.000 C
ATOM      4  C4  NAG B   1       9.824   4.730  22.5060  0.00  0.00     0.000 C
ATOM      5  C5  NAG B   1       9.696   4.780  20.9780  0.00  0.00     0.000 C
ATOM      6  O5  NAG B   1       9.138   3.553  20.4620  0.00  0.00     0.000 O
ATOM      7   O  NAG B   1       8.501   4.615  24.5610  0.00  0.00     0.000 O
ATOM      9  HD  NAG B   1       7.807   4.114  24.4260  0.00  0.00     0.000 HD
ATOM      9   O  NAG B   1      10.417   5.928  22.9780  0.00  0.00     0.000 O
ATOM     11  HD  NAG B   1       9.723   5.428  22.8420  0.00  0.00     0.000 HD
ATOM     11   C  NAG B   1      11.059   5.094  20.3480  0.00  0.00     0.000 C
ATOM     12   O  NAG B   1      11.168   4.530  19.0430  0.00  0.00     0.000 O
ATOM     14  HD  NAG B   1      10.474   4.030  18.9070  0.00  0.00     0.000 HD
ENDROOT
BRANCH 2 16
ATOM     14   N  NAG B   1       6.597   2.807  23.0650  0.00  0.00     0.000 N
ATOM     16  HD  NAG B   1       5.969   2.227  22.9220  0.00  0.00     0.000 HD
ATOM     16   C  NAG B   1       6.375   1.783  23.9070  0.00  0.00     0.000 C
ATOM     17   C  NAG B   1       7.532   0.970  24.4240  0.00  0.00     0.000 C
ATOM     18   O  NAG B   1       5.238   1.508  24.2920  0.00  0.00     0.000 OA
ENDBRANCH 2 16
BRANCH 1 19
ATOM     19  O4  BDP B   2       7.798   1.745  20.8430  0.00  0.00     0.000 O
BRANCH 19 23
ATOM     20  C1  BDP B   2       9.870  -1.041  18.6320  0.00  0.00     0.000 C
ATOM     21  C2  BDP B   2      10.549  -0.541  19.8900  0.00  0.00     0.000 C
ATOM     22  C3  BDP B   2       9.559   0.129  20.8170  0.00  0.00     0.000 C
ATOM     23  C4  BDP B   2       8.817   1.208  20.0340  0.00  0.00     0.000 C
ATOM     24  C5  BDP B   2       8.173   0.589  18.8090  0.00  0.00     0.000 C
ATOM     25  O5  BDP B   2       9.171   0.014  17.9880  0.00  0.00     0.000 O
ATOM     26   O  BDP B   2      11.183  -1.607  20.5620  0.00  0.00     0.000 O
ATOM     28  HD  BDP B   2      10.995  -1.987  19.8060  0.00  0.00     0.000 HD
ATOM     28   O  BDP B   2      10.261   0.669  21.9480  0.00  0.00     0.000 O
ATOM     30  HD  BDP B   2      10.073   0.289  21.1930  0.00  0.00     0.000 HD
BRANCH 24 30
ATOM     30   C  BDP B   2       7.440   1.592  17.9930  0.00  0.00     0.000 C
ATOM     31   O  BDP B   2       8.121   2.474  17.4190  0.00  0.00     0.000 OA
ATOM     32   O  BDP B   2       6.181   1.510  17.9260  0.00  0.00     0.000 OA
ENDBRANCH 24 30
BRANCH 20 33
ATOM     33  O3  NAG B   3      10.936  -1.457  17.8130  0.00  0.00     0.000 O
BRANCH 33 36
ATOM     34  C1  NAG B   3      10.258  -4.156  15.2810  0.00  0.00     0.000 C
ATOM     35  C2  NAG B   3      10.538  -3.536  16.6370  0.00  0.00     0.000 C
ATOM     36  C3  NAG B   3      10.470  -2.002  16.5760  0.00  0.00     0.000 C
ATOM     37  C4  NAG B   3      11.367  -1.501  15.4470  0.00  0.00     0.000 C
ATOM     38  C5  NAG B   3      11.058  -2.250  14.1530  0.00  0.00     0.000 C
ATOM     39  O5  NAG B   3      11.207  -3.645  14.3550  0.00  0.00     0.000 O
ATOM     40   O  NAG B   3      11.162  -0.094  15.2450  0.00  0.00     0.000 O
ATOM     42  HD  NAG B   3      11.019  -0.358  14.4330  0.00  0.00     0.000 HD
ATOM     42   C  NAG B   3      11.997  -1.905  13.0010  0.00  0.00     0.000 C
ATOM     43   O  NAG B   3      13.323  -2.347  13.3140  0.00  0.00     0.000 O
ATOM     45  HD  NAG B   3      13.180  -2.611  12.5020  0.00  0.00     0.000 HD
BRANCH 35 47
ATOM     45   N  NAG B   3       9.633  -4.168  17.5880  0.00  0.00     0.000 N
ATOM     47  HD  NAG B   3       9.507  -4.441  16.7760  0.00  0.00     0.000 HD
ATOM     47   C  NAG B   3      10.002  -4.521  18.8040  0.00  0.00     0.000 C
ATOM     48   C  NAG B   3       8.951  -5.179  19.6480  0.00  0.00     0.000 C
ATOM     49   O  NAG B   3      11.147  -4.346  19.2140  0.00  0.00     0.000 OA
ENDBRANCH 35 47
BRANCH 34 50
ATOM     50  O4  BDP B   4      10.471  -5.535  15.4940  0.00  0.00     0.000 O
BRANCH 50 54
ATOM     51  C1  BDP B   4       9.674  -9.272  14.0950  0.00  0.00     0.000 C
ATOM     52  C2  BDP B   4      10.597  -8.447  13.2050  0.00  0.00     0.000 C
ATOM     53  C3  BDP B   4      11.102  -7.277  13.9910  0.00  0.00     0.000 C
ATOM     54  C4  BDP B   4       9.900  -6.472  14.5650  0.00  0.00     0.000 C
ATOM     55  C5  BDP B   4       8.894  -7.364  15.2790  0.00  0.00     0.000 C
ATOM     56  O5  BDP B   4       8.557  -8.485  14.4660  0.00  0.00     0.000 O
ATOM     57   O  BDP B   4      11.692  -9.229  12.7760  0.00  0.00     0.000 O
ATOM     59  HD  BDP B   4      11.505  -9.434  11.9550  0.00  0.00     0.000 HD
ATOM     59   O  BDP B   4      11.808  -6.423  13.0670  0.00  0.00     0.000 O
ATOM     61  HD  BDP B   4      11.621  -6.628  12.2470  0.00  0.00     0.000 HD
BRANCH 55 61
ATOM     61   C  BDP B   4       7.637  -6.565  15.5730  0.00  0.00     0.000 C
ATOM     62   O  BDP B   4       6.926  -6.202  14.5990  0.00  0.00     0.000 OA
ATOM     63   O  BDP B   4       7.361  -6.304  16.7830  0.00  0.00     0.000 OA
ENDBRANCH 55 61
BRANCH 51 64
ATOM     64  O3  NAG B   5       9.259 -10.421  13.3320  0.00  0.00     0.000 O
BRANCH 64 67
ATOM     65  C1  NAG B   5       9.192 -13.924  14.4800  0.00  0.00     0.000 C
ATOM     66  C2  NAG B   5       9.725 -12.661  13.8260  0.00  0.00     0.000 C
ATOM     67  C3  NAG B   5       8.812 -11.485  14.1490  0.00  0.00     0.000 C
ATOM     68  C4  NAG B   5       7.351 -11.811  13.8100  0.00  0.00     0.000 C
ATOM     69  C5  NAG B   5       6.938 -13.136  14.4320  0.00  0.00     0.000 C
ATOM     70  O5  NAG B   5       7.868 -14.162  14.0580  0.00  0.00     0.000 O
ATOM     71   O  NAG B   5       6.535 -10.754  14.2680  0.00  0.00     0.000 O
ATOM     73  HD  NAG B   5       6.148 -10.883  13.5040  0.00  0.00     0.000 HD
ATOM     73   C  NAG B   5       5.530 -13.606  14.0410  0.00  0.00     0.000 C
ATOM     74   O  NAG B   5       5.483 -13.862  12.6210  0.00  0.00     0.000 O
ATOM     76  HD  NAG B   5       5.096 -13.991  11.8570  0.00  0.00     0.000 HD
BRANCH 66 78
ATOM     76   N  NAG B   5      11.032 -12.813  13.1580  0.00  0.00     0.000 N
ATOM     78  HD  NAG B   5      10.696 -12.338  13.8000  0.00  0.00     0.000 HD
ATOM     78   C  NAG B   5      12.199 -12.303  13.5830  0.00  0.00     0.000 C
ATOM     79   C  NAG B   5      13.363 -12.648  12.6940  0.00  0.00     0.000 C
ATOM     80   O  NAG B   5      12.309 -11.583  14.6390  0.00  0.00     0.000 OA
ENDBRANCH 66 78
BRANCH 65 81
ATOM     81  O4  BDP B   6      10.021 -15.043  14.1400  0.00  0.00     0.000 O
BRANCH 81 85
ATOM     82  C1  BDP B   6      11.413 -18.739  15.8030  0.00  0.00     0.000 C
ATOM     83  C2  BDP B   6       9.950 -18.664  15.3760  0.00  0.00     0.000 C
ATOM     84  C3  BDP B   6       9.662 -17.485  14.4430  0.00  0.00     0.000 C
ATOM     85  C4  BDP B   6      10.180 -16.164  15.0130  0.00  0.00     0.000 C
ATOM     86  C5  BDP B   6      11.653 -16.375  15.4390  0.00  0.00     0.000 C
ATOM     87  O5  BDP B   6      11.796 -17.494  16.3710  0.00  0.00     0.000 O
ATOM     88   O  BDP B   6       9.690 -19.888  14.6940  0.00  0.00     0.000 O
ATOM     90  HD  BDP B   6       9.280 -20.186  13.9910  0.00  0.00     0.000 HD
ATOM     90   O  BDP B   6       8.258 -17.414  14.1790  0.00  0.00     0.000 O
ATOM     92  HD  BDP B   6       7.848 -17.712  13.4770  0.00  0.00     0.000 HD
BRANCH 86 92
ATOM     92   C  BDP B   6      12.152 -15.187  16.2250  0.00  0.00     0.000 C
ATOM     93   O  BDP B   6      13.224 -14.609  15.8690  0.00  0.00     0.000 OA
ATOM     94   O  BDP B   6      11.451 -14.799  17.2110  0.00  0.00     0.000 OA
ENDBRANCH 86 92
BRANCH 82 95
ATOM     95  O3  NAG B   7      11.537 -19.748  16.8250  0.00  0.00     0.000 O
BRANCH 95 98
ATOM     96  C1  NAG B   7      14.163 -22.219  17.4050  0.00  0.00     0.000 C
ATOM     97  C2  NAG B   7      12.759 -21.729  17.0770  0.00  0.00     0.000 C
ATOM     98  C3  NAG B   7      12.836 -20.209  17.1930  0.00  0.00     0.000 C
ATOM     99  C4  NAG B   7      13.248 -19.816  18.6090  0.00  0.00     0.000 C
ATOM    100  C5  NAG B   7      14.545 -20.518  19.0150  0.00  0.00     0.000 C
ATOM    101  O5  NAG B   7      14.406 -21.911  18.7820  0.00  0.00     0.000 O
BRANCH 97 104
ATOM    102   N  NAG B   7      12.188 -21.866  15.7300  0.00  0.00     0.000 N
ATOM    104  HD  NAG B   7      11.759 -21.706  14.9950  0.00  0.00     0.000 HD
ATOM    104   O  NAG B   7      10.883 -22.750  14.1040  0.00  0.00     0.000 OA
ATOM    105   C  NAG B   7      11.332 -22.796  15.2660  0.00  0.00     0.000 C
ATOM    106   C  NAG B   7      10.901 -23.900  16.1700  0.00  0.00     0.000 C
ENDBRANCH 97 104
ATOM    107   O  NAG B   7      16.191 -20.635  20.6830  0.00  0.00     0.000 O
ATOM    109  HD  NAG B   7      16.045 -20.651  19.8290  0.00  0.00     0.000 HD
ATOM    109   O  NAG B   7      16.191 -20.635  20.6830  0.00  0.00     0.000 O
ATOM    111  HD  NAG B   7      16.045 -20.651  19.8290  0.00  0.00     0.000 HD
ENDBRANCH 95 98
ENDBRANCH 82 95
ENDBRANCH 81 85
ENDBRANCH 65 81
ENDBRANCH 64 67
ENDBRANCH 51 64
ENDBRANCH 50 54
ENDBRANCH 34 50
ENDBRANCH 33 36
ENDBRANCH 20 33
ENDBRANCH 19 23
ENDBRANCH 1 19
TORSDOF 19
ENDMDL
MODEL 69
REMARK VINA RESULT:      -5.8     26.543     32.012
ROOT
ATOM      1  C1  NAG B   1     -10.404   9.104   6.2100  0.00  0.00     0.000 C
ATOM      2  C2  NAG B   1     -10.032   7.699   6.6740  0.00  0.00     0.000 C
ATOM      3  C3  NAG B   1      -9.470   7.700   8.0810  0.00  0.00     0.000 C
ATOM      4  C4  NAG B   1      -8.266   8.635   8.0380  0.00  0.00     0.000 C
ATOM      5  C5  NAG B   1      -8.742  10.052   7.6940  0.00  0.00     0.000 C
ATOM      6  O5  NAG B   1      -9.375  10.088   6.3970  0.00  0.00     0.000 O
ATOM      7   O  NAG B   1      -9.079   6.376   8.5130  0.00  0.00     0.000 O
ATOM      9  HD  NAG B   1      -9.774   6.215   8.0220  0.00  0.00     0.000 HD
ATOM      9   O  NAG B   1      -7.608   8.641   9.2940  0.00  0.00     0.000 O
ATOM     11  HD  NAG B   1      -8.302   8.480   8.8030  0.00  0.00     0.000 HD
ATOM     11   C  NAG B   1      -7.567  11.034   7.7810  0.00  0.00     0.000 C
ATOM     12   O  NAG B   1      -7.747  12.136   6.8930  0.00  0.00     0.000 O
ATOM     14  HD  NAG B   1      -8.442  11.975   6.4020  0.00  0.00     0.000 HD
ENDROOT
BRANCH 2 16
ATOM     14   N  NAG B   1     -10.109   6.488   5.8380  0.00  0.00     0.000 N
ATOM     16  HD  NAG B   1     -10.102   5.623   5.8750  0.00  0.00     0.000 HD
ATOM     16   C  NAG B   1     -11.233   5.765   5.6930  0.00  0.00     0.000 C
ATOM     17   C  NAG B   1     -12.485   6.167   6.4270  0.00  0.00     0.000 C
ATOM     18   O  NAG B   1     -11.272   4.787   4.9460  0.00  0.00     0.000 OA
ENDBRANCH 2 16
BRANCH 1 19
ATOM     19  O4  BDP B   2     -10.550   8.953   4.8050  0.00  0.00     0.000 O
BRANCH 19 23
ATOM     20  C1  BDP B   2      -9.027  10.808   1.4600  0.00  0.00     0.000 C
ATOM     21  C2  BDP B   2      -8.061   9.954   2.2550  0.00  0.00     0.000 C
ATOM     22  C3  BDP B   2      -8.796   9.011   3.1810  0.00  0.00     0.000 C
ATOM     23  C4  BDP B   2      -9.760   9.829   4.0370  0.00  0.00     0.000 C
ATOM     24  C5  BDP B   2     -10.680  10.629   3.1360  0.00  0.00     0.000 C
ATOM     25  O5  BDP B   2      -9.912  11.501   2.3290  0.00  0.00     0.000 O
ATOM     26   O  BDP B   2      -7.231   9.215   1.3850  0.00  0.00     0.000 O
ATOM     28  HD  BDP B   2      -7.596   9.765   0.8250  0.00  0.00     0.000 HD
ATOM     28   O  BDP B   2      -7.843   8.292   3.9790  0.00  0.00     0.000 O
ATOM     30  HD  BDP B   2      -8.208   8.842   3.4180  0.00  0.00     0.000 HD
BRANCH 24 30
ATOM     30   C  BDP B   2     -11.641  11.459   3.9090  0.00  0.00     0.000 C
ATOM     31   O  BDP B   2     -11.166  12.380   4.6130  0.00  0.00     0.000 OA
ATOM     32   O  BDP B   2     -12.873  11.191   3.8220  0.00  0.00     0.000 OA
ENDBRANCH 24 30
BRANCH 20 33
ATOM     33  O3  NAG B   3      -8.200  11.738   0.8050  0.00  0.00     0.000 O
BRANCH 33 36
ATOM     34  C1  NAG B   3      -8.998  13.031  -2.6370  0.00  0.00     0.000 C
ATOM     35  C2  NAG B   3      -8.417  12.113  -1.5770  0.00  0.00     0.000 C
ATOM     36  C3  NAG B   3      -8.921  12.488  -0.1750  0.00  0.00     0.000 C
ATOM     37  C4  NAG B   3      -8.681  13.977   0.0670  0.00  0.00     0.000 C
ATOM     38  C5  NAG B   3      -9.228  14.797  -1.0980  0.00  0.00     0.000 C
ATOM     39  O5  NAG B   3      -8.639  14.366  -2.3130  0.00  0.00     0.000 O
ATOM     40   O  NAG B   3      -9.323  14.386   1.2840  0.00  0.00     0.000 O
ATOM     42  HD  NAG B   3      -9.679  14.971   0.7540  0.00  0.00     0.000 HD
ATOM     42   C  NAG B   3      -8.916  16.289  -1.0020  0.00  0.00     0.000 C
ATOM     43   O  NAG B   3      -7.501  16.490  -1.1100  0.00  0.00     0.000 O
ATOM     45  HD  NAG B   3      -7.857  17.075  -1.6400  0.00  0.00     0.000 HD
BRANCH 35 47
ATOM     45   N  NAG B   3      -8.711  10.737  -1.9550  0.00  0.00     0.000 N
ATOM     47  HD  NAG B   3      -9.092  11.314  -2.4760  0.00  0.00     0.000 HD
ATOM     47   C  NAG B   3      -7.821   9.767  -1.8810  0.00  0.00     0.000 C
ATOM     48   C  NAG B   3      -8.282   8.411  -2.3280  0.00  0.00     0.000 C
ATOM     49   O  NAG B   3      -6.672   9.966  -1.4930  0.00  0.00     0.000 OA
ENDBRANCH 35 47
BRANCH 34 50
ATOM     50  O4  BDP B   4      -8.351  12.622  -3.8240  0.00  0.00     0.000 O
BRANCH 50 54
ATOM     51  C1  BDP B   4      -8.342  12.944  -7.8790  0.00  0.00     0.000 C
ATOM     52  C2  BDP B   4      -7.940  14.217  -7.1430  0.00  0.00     0.000 C
ATOM     53  C3  BDP B   4      -7.623  13.869  -5.7220  0.00  0.00     0.000 C
ATOM     54  C4  BDP B   4      -8.832  13.129  -5.0800  0.00  0.00     0.000 C
ATOM     55  C5  BDP B   4      -9.334  11.981  -5.9460  0.00  0.00     0.000 C
ATOM     56  O5  BDP B   4      -9.516  12.415  -7.2910  0.00  0.00     0.000 O
ATOM     57   O  BDP B   4      -6.802  14.794  -7.7480  0.00  0.00     0.000 O
ATOM     59  HD  BDP B   4      -7.113  15.462  -8.2050  0.00  0.00     0.000 HD
ATOM     59   O  BDP B   4      -7.438  15.113  -5.0160  0.00  0.00     0.000 O
ATOM     61  HD  BDP B   4      -7.748  15.781  -5.4720  0.00  0.00     0.000 HD
BRANCH 55 61
ATOM     61   C  BDP B   4     -10.659  11.484  -5.3980  0.00  0.00     0.000 C
ATOM     62   O  BDP B   4     -11.712  12.053  -5.7900  0.00  0.00     0.000 OA
ATOM     63   O  BDP B   4     -10.645  10.519  -4.5740  0.00  0.00     0.000 OA
ENDBRANCH 55 61
BRANCH 51 64
ATOM     64  O3  NAG B   5      -8.577  13.302  -9.2550  0.00  0.00     0.000 O
BRANCH 64 67
ATOM     65  C1  NAG B   5      -7.771  10.929 -11.9590  0.00  0.00     0.000 C
ATOM     66  C2  NAG B   5      -7.542  11.972 -10.8790  0.00  0.00     0.000 C
ATOM     67  C3  NAG B   5      -8.820  12.177 -10.0760  0.00  0.00     0.000 C
ATOM     68  C4  NAG B   5     -10.011  12.466 -11.0000  0.00  0.00     0.000 C
ATOM     69  C5  NAG B   5     -10.103  11.422 -12.1010  0.00  0.00     0.000 C
ATOM     70  O5  NAG B   5      -8.845  11.319 -12.7840  0.00  0.00     0.000 O
ATOM     71   O  NAG B   5     -11.189  12.495 -10.2230  0.00  0.00     0.000 O
ATOM     73  HD  NAG B   5     -11.360  13.179 -10.7260  0.00  0.00     0.000 HD
ATOM     73   C  NAG B   5     -11.190  11.702 -13.1490  0.00  0.00     0.000 C
ATOM     74   O  NAG B   5     -10.878  12.920 -13.8550  0.00  0.00     0.000 O
ATOM     76  HD  NAG B   5     -11.049  13.604 -14.3590  0.00  0.00     0.000 HD
BRANCH 66 78
ATOM     76   N  NAG B   5      -6.322  11.438 -10.2440  0.00  0.00     0.000 N
ATOM     78  HD  NAG B   5      -6.604  12.201 -10.5400  0.00  0.00     0.000 HD
ATOM     78   C  NAG B   5      -5.305  12.164  -9.7530  0.00  0.00     0.000 C
ATOM     79   C  NAG B   5      -4.209  11.329  -9.1490  0.00  0.00     0.000 C
ATOM     80   O  NAG B   5      -5.268  13.445  -9.8020  0.00  0.00     0.000 OA
ENDBRANCH 66 78
BRANCH 65 81
ATOM     81  O4  BDP B   6      -6.585  10.766 -12.7480  0.00  0.00     0.000 O
BRANCH 81 85
ATOM     82  C1  BDP B   6      -4.788   7.616 -15.0310  0.00  0.00     0.000 C
ATOM     83  C2  BDP B   6      -5.404   8.782 -15.8000  0.00  0.00     0.000 C
ATOM     84  C3  BDP B   6      -5.641  10.014 -14.9230  0.00  0.00     0.000 C
ATOM     85  C4  BDP B   6      -6.416   9.670 -13.6490  0.00  0.00     0.000 C
ATOM     86  C5  BDP B   6      -5.720   8.459 -12.9820  0.00  0.00     0.000 C
ATOM     87  O5  BDP B   6      -5.597   7.326 -13.9000  0.00  0.00     0.000 O
ATOM     88   O  BDP B   6      -4.466   9.100 -16.8240  0.00  0.00     0.000 O
ATOM     90  HD  BDP B   6      -4.107   9.786 -17.2110  0.00  0.00     0.000 HD
ATOM     90   O  BDP B   6      -6.321  11.019 -15.6800  0.00  0.00     0.000 O
ATOM     92  HD  BDP B   6      -5.962  11.705 -16.0670  0.00  0.00     0.000 HD
BRANCH 86 92
ATOM     92   C  BDP B   6      -6.564   7.918 -11.8540  0.00  0.00     0.000 C
ATOM     93   O  BDP B   6      -7.729   7.480 -12.1000  0.00  0.00     0.000 OA
ATOM     94   O  BDP B   6      -6.052   7.906 -10.6920  0.00  0.00     0.000 OA
ENDBRANCH 86 92
BRANCH 82 95
ATOM     95  O3  NAG B   7      -4.791   6.457 -15.8860  0.00  0.00     0.000 O
BRANCH 95 98
ATOM     96  C1  NAG B   7      -3.125   3.223 -15.5610  0.00  0.00     0.000 C
ATOM     97  C2  NAG B   7      -3.449   4.564 -16.2050  0.00  0.00     0.000 C
ATOM     98  C3  NAG B   7      -4.533   5.173 -15.3190  0.00  0.00     0.000 C
ATOM     99  C4  NAG B   7      -5.755   4.258 -15.2890  0.00  0.00     0.000 C
ATOM    100  C5  NAG B   7      -5.364   2.839 -14.8750  0.00  0.00     0.000 C
ATOM    101  O5  NAG B   7      -4.290   2.400 -15.6920  0.00  0.00     0.000 O
BRANCH 97 104
ATOM    102   N  NAG B   7      -2.391   5.583 -16.2160  0.00  0.00     0.000 N
ATOM    104  HD  NAG B   7      -1.954   6.321 -16.0970  0.00  0.00     0.000 HD
ATOM    104   O  NAG B   7      -0.924   7.049 -17.1260  0.00  0.00     0.000 OA
ATOM    105   C  NAG B   7      -1.769   6.145 -17.2710  0.00  0.00     0.000 C
ATOM    106   C  NAG B   7      -2.113   5.681 -18.6450  0.00  0.00     0.000 C
ENDBRANCH 97 104
ATOM    107   O  NAG B   7      -6.222   0.729 -14.3130  0.00  0.00     0.000 O
ATOM    109  HD  NAG B   7      -5.615   1.319 -14.1280  0.00  0.00     0.000 HD
ATOM    109   O  NAG B   7      -6.222   0.729 -14.3130  0.00  0.00     0.000 O
ATOM    111  HD  NAG B   7      -5.615   1.319 -14.1280  0.00  0.00     0.000 HD
ENDBRANCH 95 98
ENDBRANCH 82 95
ENDBRANCH 81 85
ENDBRANCH 65 81
ENDBRANCH 64 67
ENDBRANCH 51 64
ENDBRANCH 50 54
ENDBRANCH 34 50
ENDBRANCH 33 36
ENDBRANCH 20 33
ENDBRANCH 19 23
ENDBRANCH 1 19
TORSDOF 19
ENDMDL
MODEL 70
REMARK VINA RESULT:      -5.8     30.311     35.431
ROOT
ATOM      1  C1  NAG B   1      16.524   5.264 -14.6940  0.00  0.00     0.000 C
ATOM      2  C2  NAG B   1      17.992   5.210 -14.2790  0.00  0.00     0.000 C
ATOM      3  C3  NAG B   1      18.555   6.592 -14.0160  0.00  0.00     0.000 C
ATOM      4  C4  NAG B   1      18.345   7.371 -15.3100  0.00  0.00     0.000 C
ATOM      5  C5  NAG B   1      16.841   7.494 -15.5840  0.00  0.00     0.000 C
ATOM      6  O5  NAG B   1      16.234   6.194 -15.7490  0.00  0.00     0.000 O
ATOM      7   O  NAG B   1      19.956   6.551 -13.6600  0.00  0.00     0.000 O
ATOM      9  HD  NAG B   1      19.651   5.824 -13.3020  0.00  0.00     0.000 HD
ATOM      9   O  NAG B   1      18.920   8.663 -15.2000  0.00  0.00     0.000 O
ATOM     11  HD  NAG B   1      18.615   7.936 -14.8420  0.00  0.00     0.000 HD
ATOM     11   C  NAG B   1      16.603   8.390 -16.8060  0.00  0.00     0.000 C
ATOM     12   O  NAG B   1      15.399   8.033 -17.4840  0.00  0.00     0.000 O
ATOM     14  HD  NAG B   1      15.095   7.306 -17.1250  0.00  0.00     0.000 HD
ENDROOT
BRANCH 2 16
ATOM     14   N  NAG B   1      17.984   4.198 -13.2070  0.00  0.00     0.000 N
ATOM     16  HD  NAG B   1      17.719   3.396 -13.0190  0.00  0.00     0.000 HD
ATOM     16   C  NAG B   1      18.840   3.163 -13.1680  0.00  0.00     0.000 C
ATOM     17   C  NAG B   1      19.852   2.982 -14.2680  0.00  0.00     0.000 C
ATOM     18   O  NAG B   1      18.835   2.366 -12.2300  0.00  0.00     0.000 OA
ENDBRANCH 2 16
BRANCH 1 19
ATOM     19  O4  BDP B   2      16.293   3.971 -15.2370  0.00  0.00     0.000 O
BRANCH 19 23
ATOM     20  C1  BDP B   2      12.186   4.235 -15.1690  0.00  0.00     0.000 C
ATOM     21  C2  BDP B   2      12.848   3.708 -13.9120  0.00  0.00     0.000 C
ATOM     22  C3  BDP B   2      14.322   4.044 -13.8870  0.00  0.00     0.000 C
ATOM     23  C4  BDP B   2      14.953   3.545 -15.1840  0.00  0.00     0.000 C
ATOM     24  C5  BDP B   2      14.218   4.145 -16.3660  0.00  0.00     0.000 C
ATOM     25  O5  BDP B   2      12.858   3.757 -16.3260  0.00  0.00     0.000 O
ATOM     26   O  BDP B   2      12.219   4.242 -12.7670  0.00  0.00     0.000 O
ATOM     28  HD  BDP B   2      11.654   4.477 -13.3810  0.00  0.00     0.000 HD
ATOM     28   O  BDP B   2      14.924   3.445 -12.7280  0.00  0.00     0.000 O
ATOM     30  HD  BDP B   2      14.359   3.680 -13.3420  0.00  0.00     0.000 HD
BRANCH 24 30
ATOM     30   C  BDP B   2      14.778   3.689 -17.6660  0.00  0.00     0.000 C
ATOM     31   O  BDP B   2      15.394   4.535 -18.3540  0.00  0.00     0.000 OA
ATOM     32   O  BDP B   2      14.597   2.486 -18.0090  0.00  0.00     0.000 OA
ENDBRANCH 24 30
BRANCH 20 33
ATOM     33  O3  NAG B   3      10.891   3.687 -15.1270  0.00  0.00     0.000 O
BRANCH 33 36
ATOM     34  C1  NAG B   3       7.998   5.603 -16.5780  0.00  0.00     0.000 C
ATOM     35  C2  NAG B   3       9.035   5.181 -15.5550  0.00  0.00     0.000 C
ATOM     36  C3  NAG B   3      10.060   4.213 -16.1650  0.00  0.00     0.000 C
ATOM     37  C4  NAG B   3       9.326   3.059 -16.8430  0.00  0.00     0.000 C
ATOM     38  C5  NAG B   3       8.251   3.596 -17.7840  0.00  0.00     0.000 C
ATOM     39  O5  NAG B   3       7.358   4.434 -17.0700  0.00  0.00     0.000 O
ATOM     40   O  NAG B   3      10.254   2.256 -17.5870  0.00  0.00     0.000 O
ATOM     42  HD  NAG B   3       9.693   2.419 -18.2260  0.00  0.00     0.000 HD
ATOM     42   C  NAG B   3       7.378   2.510 -18.4070  0.00  0.00     0.000 C
ATOM     43   O  NAG B   3       6.610   1.866 -17.3830  0.00  0.00     0.000 O
ATOM     45  HD  NAG B   3       6.049   2.030 -18.0220  0.00  0.00     0.000 HD
BRANCH 35 47
ATOM     45   N  NAG B   3       9.629   6.385 -14.9880  0.00  0.00     0.000 N
ATOM     47  HD  NAG B   3       9.086   6.556 -15.6410  0.00  0.00     0.000 HD
ATOM     47   C  NAG B   3       9.851   6.535 -13.6970  0.00  0.00     0.000 C
ATOM     48   C  NAG B   3      10.450   7.845 -13.2780  0.00  0.00     0.000 C
ATOM     49   O  NAG B   3       9.560   5.664 -12.8800  0.00  0.00     0.000 OA
ENDBRANCH 35 47
BRANCH 34 50
ATOM     50  O4  BDP B   4       7.089   6.384 -15.8310  0.00  0.00     0.000 O
BRANCH 50 54
ATOM     51  C1  BDP B   4       4.751   9.709 -15.9860  0.00  0.00     0.000 C
ATOM     52  C2  BDP B   4       4.059   8.429 -16.4390  0.00  0.00     0.000 C
ATOM     53  C3  BDP B   4       4.875   7.257 -15.9870  0.00  0.00     0.000 C
ATOM     54  C4  BDP B   4       6.334   7.401 -16.5100  0.00  0.00     0.000 C
ATOM     55  C5  BDP B   4       6.923   8.773 -16.2120  0.00  0.00     0.000 C
ATOM     56  O5  BDP B   4       6.020   9.800 -16.6070  0.00  0.00     0.000 O
ATOM     57   O  BDP B   4       2.767   8.344 -15.8750  0.00  0.00     0.000 O
ATOM     59  HD  BDP B   4       2.232   8.558 -16.5210  0.00  0.00     0.000 HD
ATOM     59   O  BDP B   4       4.298   6.084 -16.5960  0.00  0.00     0.000 O
ATOM     61  HD  BDP B   4       3.763   6.298 -17.2420  0.00  0.00     0.000 HD
BRANCH 55 61
ATOM     61   C  BDP B   4       8.227   8.934 -16.9730  0.00  0.00     0.000 C
ATOM     62   O  BDP B   4       9.267   9.200 -16.3150  0.00  0.00     0.000 OA
ATOM     63   O  BDP B   4       8.208   8.790 -18.2340  0.00  0.00     0.000 OA
ENDBRANCH 55 61
BRANCH 51 64
ATOM     64  O3  NAG B   5       3.909  10.811 -16.3780  0.00  0.00     0.000 O
BRANCH 64 67
ATOM     65  C1  NAG B   5       3.669  13.742 -14.1530  0.00  0.00     0.000 C
ATOM     66  C2  NAG B   5       3.435  12.329 -14.6600  0.00  0.00     0.000 C
ATOM     67  C3  NAG B   5       4.348  12.046 -15.8470  0.00  0.00     0.000 C
ATOM     68  C4  NAG B   5       4.214  13.139 -16.9170  0.00  0.00     0.000 C
ATOM     69  C5  NAG B   5       4.371  14.519 -16.2990  0.00  0.00     0.000 C
ATOM     70  O5  NAG B   5       3.465  14.667 -15.1960  0.00  0.00     0.000 O
ATOM     71   O  NAG B   5       5.184  12.912 -17.9170  0.00  0.00     0.000 O
ATOM     73  HD  NAG B   5       4.522  13.116 -18.4360  0.00  0.00     0.000 HD
ATOM     73   C  NAG B   5       4.126  15.680 -17.2730  0.00  0.00     0.000 C
ATOM     74   O  NAG B   5       2.754  15.656 -17.7180  0.00  0.00     0.000 O
ATOM     76  HD  NAG B   5       2.092  15.860 -18.2370  0.00  0.00     0.000 HD
BRANCH 66 78
ATOM     76   N  NAG B   5       2.506  11.431 -13.9470  0.00  0.00     0.000 N
ATOM     78  HD  NAG B   5       3.361  11.495 -14.0710  0.00  0.00     0.000 HD
ATOM     78   C  NAG B   5       2.849  10.485 -13.0590  0.00  0.00     0.000 C
ATOM     79   C  NAG B   5       1.670   9.744 -12.4870  0.00  0.00     0.000 C
ATOM     80   O  NAG B   5       4.064  10.231 -12.7360  0.00  0.00     0.000 OA
ENDBRANCH 66 78
BRANCH 65 81
ATOM     81  O4  BDP B   6       2.781  14.029 -13.0660  0.00  0.00     0.000 O
BRANCH 81 85
ATOM     82  C1  BDP B   6       2.945  16.408  -9.5060  0.00  0.00     0.000 C
ATOM     83  C2  BDP B   6       2.009  16.870 -10.6200  0.00  0.00     0.000 C
ATOM     84  C3  BDP B   6       1.716  15.770 -11.6440  0.00  0.00     0.000 C
ATOM     85  C4  BDP B   6       2.998  15.125 -12.1750  0.00  0.00     0.000 C
ATOM     86  C5  BDP B   6       3.873  14.735 -10.9600  0.00  0.00     0.000 C
ATOM     87  O5  BDP B   6       4.129  15.878 -10.0820  0.00  0.00     0.000 O
ATOM     88   O  BDP B   6       0.800  17.250  -9.9690  0.00  0.00     0.000 O
ATOM     90  HD  BDP B   6      -0.058  17.183 -10.0630  0.00  0.00     0.000 HD
ATOM     90   O  BDP B   6       0.931  16.306 -12.7120  0.00  0.00     0.000 O
ATOM     92  HD  BDP B   6       0.073  16.239 -12.8060  0.00  0.00     0.000 HD
BRANCH 86 92
ATOM     92   C  BDP B   6       5.250  14.313 -11.4130  0.00  0.00     0.000 C
ATOM     93   O  BDP B   6       5.572  13.087 -11.3710  0.00  0.00     0.000 OA
ATOM     94   O  BDP B   6       6.028  15.219 -11.8430  0.00  0.00     0.000 OA
ENDBRANCH 86 92
BRANCH 82 95
ATOM     95  O3  NAG B   7       3.312  17.557  -8.7170  0.00  0.00     0.000 O
BRANCH 95 98
ATOM     96  C1  NAG B   7       4.757  17.962  -5.3870  0.00  0.00     0.000 C
ATOM     97  C2  NAG B   7       3.736  18.172  -6.4980  0.00  0.00     0.000 C
ATOM     98  C3  NAG B   7       4.300  17.413  -7.6970  0.00  0.00     0.000 C
ATOM     99  C4  NAG B   7       5.664  17.984  -8.0770  0.00  0.00     0.000 C
ATOM    100  C5  NAG B   7       6.606  17.994  -6.8730  0.00  0.00     0.000 C
ATOM    101  O5  NAG B   7       5.957  18.634  -5.7860  0.00  0.00     0.000 O
BRANCH 97 104
ATOM    102   N  NAG B   7       2.407  17.622  -6.1940  0.00  0.00     0.000 N
ATOM    104  HD  NAG B   7       1.704  17.116  -6.1890  0.00  0.00     0.000 HD
ATOM    104   O  NAG B   7       0.144  17.576  -6.1080  0.00  0.00     0.000 OA
ATOM    105   C  NAG B   7       1.199  18.193  -6.3570  0.00  0.00     0.000 C
ATOM    106   C  NAG B   7       1.122  19.593  -6.8630  0.00  0.00     0.000 C
ENDBRANCH 97 104
ATOM    107   O  NAG B   7       8.819  18.397  -6.2070  0.00  0.00     0.000 O
ATOM    109  HD  NAG B   7       8.128  17.887  -6.0970  0.00  0.00     0.000 HD
ATOM    109   O  NAG B   7       8.819  18.397  -6.2070  0.00  0.00     0.000 O
ATOM    111  HD  NAG B   7       8.128  17.887  -6.0970  0.00  0.00     0.000 HD
ENDBRANCH 95 98
ENDBRANCH 82 95
ENDBRANCH 81 85
ENDBRANCH 65 81
ENDBRANCH 64 67
ENDBRANCH 51 64
ENDBRANCH 50 54
ENDBRANCH 34 50
ENDBRANCH 33 36
ENDBRANCH 20 33
ENDBRANCH 19 23
ENDBRANCH 1 19
TORSDOF 19
ENDMDL
MODEL 71
REMARK VINA RESULT:      -5.8     29.045     34.653
ROOT
ATOM      1  C1  NAG B   1      16.145   7.304 -16.3110  0.00  0.00     0.000 C
ATOM      2  C2  NAG B   1      17.275   8.285 -16.0090  0.00  0.00     0.000 C
ATOM      3  C3  NAG B   1      17.043   9.632 -16.6620  0.00  0.00     0.000 C
ATOM      4  C4  NAG B   1      16.907   9.344 -18.1540  0.00  0.00     0.000 C
ATOM      5  C5  NAG B   1      15.674   8.461 -18.3860  0.00  0.00     0.000 C
ATOM      6  O5  NAG B   1      15.803   7.196 -17.7020  0.00  0.00     0.000 O
ATOM      7   O  NAG B   1      18.128  10.554 -16.4120  0.00  0.00     0.000 O
ATOM      9  HD  NAG B   1      18.092  10.103 -15.6740  0.00  0.00     0.000 HD
ATOM      9   O  NAG B   1      16.772  10.557 -18.8750  0.00  0.00     0.000 O
ATOM     11  HD  NAG B   1      16.736  10.106 -18.1370  0.00  0.00     0.000 HD
ATOM     11   C  NAG B   1      15.440   8.273 -19.8900  0.00  0.00     0.000 C
ATOM     12   O  NAG B   1      14.798   7.028 -20.1620  0.00  0.00     0.000 O
ATOM     14  HD  NAG B   1      14.762   6.577 -19.4240  0.00  0.00     0.000 HD
ENDROOT
BRANCH 2 16
ATOM     14   N  NAG B   1      18.325   7.650 -15.1920  0.00  0.00     0.000 N
ATOM     16  HD  NAG B   1      19.132   7.762 -14.9000  0.00  0.00     0.000 HD
ATOM     16   C  NAG B   1      18.574   7.996 -13.9170  0.00  0.00     0.000 C
ATOM     17   C  NAG B   1      17.779   9.098 -13.2690  0.00  0.00     0.000 C
ATOM     18   O  NAG B   1      19.426   7.409 -13.2520  0.00  0.00     0.000 OA
ENDBRANCH 2 16
BRANCH 1 19
ATOM     19  O4  BDP B   2      16.701   6.048 -15.9470  0.00  0.00     0.000 O
BRANCH 19 23
ATOM     20  C1  BDP B   2      13.097   4.236 -15.1290  0.00  0.00     0.000 C
ATOM     21  C2  BDP B   2      13.752   4.981 -13.9840  0.00  0.00     0.000 C
ATOM     22  C3  BDP B   2      14.814   5.933 -14.4850  0.00  0.00     0.000 C
ATOM     23  C4  BDP B   2      15.788   5.151 -15.3610  0.00  0.00     0.000 C
ATOM     24  C5  BDP B   2      15.023   4.461 -16.4740  0.00  0.00     0.000 C
ATOM     25  O5  BDP B   2      14.075   3.571 -15.9160  0.00  0.00     0.000 O
ATOM     26   O  BDP B   2      12.782   5.695 -13.2470  0.00  0.00     0.000 O
ATOM     28  HD  BDP B   2      12.271   5.198 -13.7390  0.00  0.00     0.000 HD
ATOM     28   O  BDP B   2      15.469   6.545 -13.3630  0.00  0.00     0.000 O
ATOM     30  HD  BDP B   2      14.958   6.048 -13.8550  0.00  0.00     0.000 HD
BRANCH 24 30
ATOM     30   C  BDP B   2      15.915   3.670 -17.3620  0.00  0.00     0.000 C
ATOM     31   O  BDP B   2      15.911   3.954 -18.5810  0.00  0.00     0.000 OA
ATOM     32   O  BDP B   2      16.618   2.754 -16.8460  0.00  0.00     0.000 OA
ENDBRANCH 24 30
BRANCH 20 33
ATOM     33  O3  NAG B   3      12.287   3.278 -14.4930  0.00  0.00     0.000 O
BRANCH 33 36
ATOM     34  C1  NAG B   3       8.835   2.450 -15.7390  0.00  0.00     0.000 C
ATOM     35  C2  NAG B   3       9.912   3.175 -14.9530  0.00  0.00     0.000 C
ATOM     36  C3  NAG B   3      11.317   2.728 -15.3870  0.00  0.00     0.000 C
ATOM     37  C4  NAG B   3      11.402   1.204 -15.3330  0.00  0.00     0.000 C
ATOM     38  C5  NAG B   3      10.226   0.582 -16.0810  0.00  0.00     0.000 C
ATOM     39  O5  NAG B   3       9.004   1.054 -15.5400  0.00  0.00     0.000 O
ATOM     40   O  NAG B   3      12.633   0.760 -15.9230  0.00  0.00     0.000 O
ATOM     42  HD  NAG B   3      12.089   0.282 -16.3980  0.00  0.00     0.000 HD
ATOM     42   C  NAG B   3      10.159  -0.939 -15.9680  0.00  0.00     0.000 C
ATOM     43   O  NAG B   3       9.901  -1.308 -14.6080  0.00  0.00     0.000 O
ATOM     45  HD  NAG B   3       9.357  -1.786 -15.0820  0.00  0.00     0.000 HD
BRANCH 35 47
ATOM     45   N  NAG B   3       9.622   4.144 -13.9040  0.00  0.00     0.000 N
ATOM     47  HD  NAG B   3       9.990   3.422 -13.5990  0.00  0.00     0.000 HD
ATOM     47   C  NAG B   3       9.763   5.444 -14.0700  0.00  0.00     0.000 C
ATOM     48   C  NAG B   3       9.441   6.300 -12.8820  0.00  0.00     0.000 C
ATOM     49   O  NAG B   3      10.161   5.926 -15.1280  0.00  0.00     0.000 OA
ENDBRANCH 35 47
BRANCH 34 50
ATOM     50  O4  BDP B   4       7.634   2.890 -15.1420  0.00  0.00     0.000 O
BRANCH 50 54
ATOM     51  C1  BDP B   4       3.693   3.652 -15.8110  0.00  0.00     0.000 C
ATOM     52  C2  BDP B   4       4.034   2.174 -15.6560  0.00  0.00     0.000 C
ATOM     53  C3  BDP B   4       5.400   2.057 -15.0540  0.00  0.00     0.000 C
ATOM     54  C4  BDP B   4       6.424   2.849 -15.9170  0.00  0.00     0.000 C
ATOM     55  C5  BDP B   4       5.953   4.266 -16.2200  0.00  0.00     0.000 C
ATOM     56  O5  BDP B   4       4.613   4.252 -16.7050  0.00  0.00     0.000 O
ATOM     57   O  BDP B   4       3.095   1.541 -14.8120  0.00  0.00     0.000 O
ATOM     59  HD  BDP B   4       2.579   1.102 -15.3500  0.00  0.00     0.000 HD
ATOM     59   O  BDP B   4       5.763   0.662 -15.1020  0.00  0.00     0.000 O
ATOM     61  HD  BDP B   4       5.246   0.223 -15.6410  0.00  0.00     0.000 HD
BRANCH 55 61
ATOM     61   C  BDP B   4       6.858   4.880 -17.2730  0.00  0.00     0.000 C
ATOM     62   O  BDP B   4       7.377   6.000 -17.0250  0.00  0.00     0.000 OA
ATOM     63   O  BDP B   4       7.051   4.236 -18.3490  0.00  0.00     0.000 OA
ENDBRANCH 55 61
BRANCH 51 64
ATOM     64  O3  NAG B   5       2.352   3.729 -16.3300  0.00  0.00     0.000 O
BRANCH 64 67
ATOM     65  C1  NAG B   5       0.169   6.510 -15.2840  0.00  0.00     0.000 C
ATOM     66  C2  NAG B   5       0.925   5.196 -15.1940  0.00  0.00     0.000 C
ATOM     67  C3  NAG B   5       1.865   5.055 -16.3850  0.00  0.00     0.000 C
ATOM     68  C4  NAG B   5       1.115   5.271 -17.7070  0.00  0.00     0.000 C
ATOM     69  C5  NAG B   5       0.316   6.563 -17.6670  0.00  0.00     0.000 C
ATOM     70  O5  NAG B   5      -0.529   6.580 -16.5060  0.00  0.00     0.000 O
ATOM     71   O  NAG B   5       2.053   5.282 -18.7610  0.00  0.00     0.000 O
ATOM     73  HD  NAG B   5       1.443   4.805 -19.1480  0.00  0.00     0.000 HD
ATOM     73   C  NAG B   5      -0.568   6.799 -18.9000  0.00  0.00     0.000 C
ATOM     74   O  NAG B   5      -1.578   5.771 -18.9740  0.00  0.00     0.000 O
ATOM     76  HD  NAG B   5      -2.189   5.294 -19.3610  0.00  0.00     0.000 HD
BRANCH 66 78
ATOM     76   N  NAG B   5       1.463   5.278 -13.8220  0.00  0.00     0.000 N
ATOM     78  HD  NAG B   5       1.035   4.700 -14.3050  0.00  0.00     0.000 HD
ATOM     78   C  NAG B   5       1.581   4.258 -12.9580  0.00  0.00     0.000 C
ATOM     79   C  NAG B   5       2.185   4.656 -11.6390  0.00  0.00     0.000 C
ATOM     80   O  NAG B   5       1.207   3.061 -13.2280  0.00  0.00     0.000 OA
ENDBRANCH 66 78
BRANCH 65 81
ATOM     81  O4  BDP B   6      -0.751   6.626 -14.1910  0.00  0.00     0.000 O
BRANCH 81 85
ATOM     82  C1  BDP B   6      -2.755   9.731 -12.0220  0.00  0.00     0.000 C
ATOM     83  C2  BDP B   6      -3.529   9.039 -13.1400  0.00  0.00     0.000 C
ATOM     84  C3  BDP B   6      -2.900   7.709 -13.5640  0.00  0.00     0.000 C
ATOM     85  C4  BDP B   6      -1.410   7.855 -13.8780  0.00  0.00     0.000 C
ATOM     86  C5  BDP B   6      -0.745   8.597 -12.6940  0.00  0.00     0.000 C
ATOM     87  O5  BDP B   6      -1.398   9.877 -12.4170  0.00  0.00     0.000 O
ATOM     88   O  BDP B   6      -4.831   8.804 -12.6120  0.00  0.00     0.000 O
ATOM     90  HD  BDP B   6      -5.443   8.192 -12.5930  0.00  0.00     0.000 HD
ATOM     90   O  BDP B   6      -3.611   7.179 -14.6860  0.00  0.00     0.000 O
ATOM     92  HD  BDP B   6      -4.223   6.567 -14.6680  0.00  0.00     0.000 HD
BRANCH 86 92
ATOM     92   C  BDP B   6       0.673   8.984 -13.0410  0.00  0.00     0.000 C
ATOM     93   O  BDP B   6       1.636   8.290 -12.5960  0.00  0.00     0.000 OA
ATOM     94   O  BDP B   6       0.837   9.993 -13.7940  0.00  0.00     0.000 OA
ENDBRANCH 86 92
BRANCH 82 95
ATOM     95  O3  NAG B   7      -3.306  11.050 -11.8370  0.00  0.00     0.000 O
BRANCH 95 98
ATOM     96  C1  NAG B   7      -3.791  13.056  -8.8230  0.00  0.00     0.000 C
ATOM     97  C2  NAG B   7      -4.213  12.292 -10.0720  0.00  0.00     0.000 C
ATOM     98  C3  NAG B   7      -2.906  11.818 -10.7030  0.00  0.00     0.000 C
ATOM     99  C4  NAG B   7      -2.032  13.019 -11.0510  0.00  0.00     0.000 C
ATOM    100  C5  NAG B   7      -1.821  13.914  -9.8290  0.00  0.00     0.000 C
ATOM    101  O5  NAG B   7      -3.085  14.222  -9.2610  0.00  0.00     0.000 O
BRANCH 97 104
ATOM    102   N  NAG B   7      -4.988  11.061  -9.8680  0.00  0.00     0.000 N
ATOM    104  HD  NAG B   7      -5.239  10.232  -9.8770  0.00  0.00     0.000 HD
ATOM    104   O  NAG B   7      -6.744   9.647 -10.0890  0.00  0.00     0.000 OA
ATOM    105   C  NAG B   7      -6.233  10.767 -10.2880  0.00  0.00     0.000 C
ATOM    106   C  NAG B   7      -7.014  11.803 -11.0220  0.00  0.00     0.000 C
ENDBRANCH 97 104
ATOM    107   O  NAG B   7      -0.649  15.785  -9.0340  0.00  0.00     0.000 O
ATOM    109  HD  NAG B   7      -0.942  14.995  -8.8340  0.00  0.00     0.000 HD
ATOM    109   O  NAG B   7      -0.649  15.785  -9.0340  0.00  0.00     0.000 O
ATOM    111  HD  NAG B   7      -0.942  14.995  -8.8340  0.00  0.00     0.000 HD
ENDBRANCH 95 98
ENDBRANCH 82 95
ENDBRANCH 81 85
ENDBRANCH 65 81
ENDBRANCH 64 67
ENDBRANCH 51 64
ENDBRANCH 50 54
ENDBRANCH 34 50
ENDBRANCH 33 36
ENDBRANCH 20 33
ENDBRANCH 19 23
ENDBRANCH 1 19
TORSDOF 19
ENDMDL
MODEL 72
REMARK VINA RESULT:      -5.7     26.010     31.839
ROOT
ATOM      1  C1  NAG B   1     -10.254   9.088   6.3700  0.00  0.00     0.000 C
ATOM      2  C2  NAG B   1      -9.979   7.655   6.8180  0.00  0.00     0.000 C
ATOM      3  C3  NAG B   1      -9.402   7.602   8.2180  0.00  0.00     0.000 C
ATOM      4  C4  NAG B   1      -8.134   8.448   8.1690  0.00  0.00     0.000 C
ATOM      5  C5  NAG B   1      -8.510   9.899   7.8430  0.00  0.00     0.000 C
ATOM      6  O5  NAG B   1      -9.154   9.994   6.5540  0.00  0.00     0.000 O
ATOM      7   O  NAG B   1      -9.103   6.250   8.6330  0.00  0.00     0.000 O
ATOM      9  HD  NAG B   1      -9.814   6.144   8.1490  0.00  0.00     0.000 HD
ATOM      9   O  NAG B   1      -7.463   8.395   9.4160  0.00  0.00     0.000 O
ATOM     11  HD  NAG B   1      -8.173   8.289   8.9320  0.00  0.00     0.000 HD
ATOM     11   C  NAG B   1      -7.267  10.793   7.9240  0.00  0.00     0.000 C
ATOM     12   O  NAG B   1      -7.377  11.914   7.0480  0.00  0.00     0.000 O
ATOM     14  HD  NAG B   1      -8.087  11.808   6.5640  0.00  0.00     0.000 HD
ENDROOT
BRANCH 2 16
ATOM     14   N  NAG B   1     -10.173   6.505   5.9180  0.00  0.00     0.000 N
ATOM     16  HD  NAG B   1     -10.191   5.639   5.8990  0.00  0.00     0.000 HD
ATOM     16   C  NAG B   1     -11.328   5.823   5.8340  0.00  0.00     0.000 C
ATOM     17   C  NAG B   1     -12.493   6.209   6.7060  0.00  0.00     0.000 C
ATOM     18   O  NAG B   1     -11.467   4.898   5.0340  0.00  0.00     0.000 OA
ENDBRANCH 2 16
BRANCH 1 19
ATOM     19  O4  BDP B   2     -10.426   8.962   4.9650  0.00  0.00     0.000 O
BRANCH 19 23
ATOM     20  C1  BDP B   2      -9.137  11.011   1.6360  0.00  0.00     0.000 C
ATOM     21  C2  BDP B   2      -8.095  10.187   2.3650  0.00  0.00     0.000 C
ATOM     22  C3  BDP B   2      -8.741   9.174   3.2830  0.00  0.00     0.000 C
ATOM     23  C4  BDP B   2      -9.716   9.906   4.2010  0.00  0.00     0.000 C
ATOM     24  C5  BDP B   2     -10.713  10.682   3.3630  0.00  0.00     0.000 C
ATOM     25  O5  BDP B   2     -10.026  11.623   2.5600  0.00  0.00     0.000 O
ATOM     26   O  BDP B   2      -7.259   9.527   1.4400  0.00  0.00     0.000 O
ATOM     28  HD  BDP B   2      -7.675  10.073   0.9130  0.00  0.00     0.000 HD
ATOM     28   O  BDP B   2      -7.720   8.484   4.0200  0.00  0.00     0.000 O
ATOM     30  HD  BDP B   2      -8.136   9.031   3.4930  0.00  0.00     0.000 HD
BRANCH 24 30
ATOM     30   C  BDP B   2     -11.688  11.430   4.1990  0.00  0.00     0.000 C
ATOM     31   O  BDP B   2     -11.227  12.266   5.0090  0.00  0.00     0.000 OA
ATOM     32   O  BDP B   2     -12.919  11.180   4.0550  0.00  0.00     0.000 OA
ENDBRANCH 24 30
BRANCH 20 33
ATOM     33  O3  NAG B   3      -8.388  12.007   0.9850  0.00  0.00     0.000 O
BRANCH 33 36
ATOM     34  C1  NAG B   3      -9.196  13.139  -2.5110  0.00  0.00     0.000 C
ATOM     35  C2  NAG B   3      -8.560  12.310  -1.4110  0.00  0.00     0.000 C
ATOM     36  C3  NAG B   3      -9.149  12.658  -0.0360  0.00  0.00     0.000 C
ATOM     37  C4  NAG B   3      -9.074  14.168   0.1780  0.00  0.00     0.000 C
ATOM     38  C5  NAG B   3      -9.663  14.903  -1.0230  0.00  0.00     0.000 C
ATOM     39  O5  NAG B   3      -8.990  14.511  -2.2070  0.00  0.00     0.000 O
ATOM     40   O  NAG B   3      -9.798  14.532   1.3640  0.00  0.00     0.000 O
ATOM     42  HD  NAG B   3     -10.195  15.066   0.8080  0.00  0.00     0.000 HD
ATOM     42   C  NAG B   3      -9.512  16.420  -0.9530  0.00  0.00     0.000 C
ATOM     43   O  NAG B   3      -8.123  16.767  -1.0190  0.00  0.00     0.000 O
ATOM     45  HD  NAG B   3      -8.520  17.300  -1.5740  0.00  0.00     0.000 HD
BRANCH 35 47
ATOM     45   N  NAG B   3      -8.714  10.888  -1.6940  0.00  0.00     0.000 N
ATOM     47  HD  NAG B   3      -9.197  11.386  -2.2140  0.00  0.00     0.000 HD
ATOM     47   C  NAG B   3      -7.712  10.033  -1.6390  0.00  0.00     0.000 C
ATOM     48   C  NAG B   3      -8.039   8.610  -1.9800  0.00  0.00     0.000 C
ATOM     49   O  NAG B   3      -6.571  10.386  -1.3520  0.00  0.00     0.000 OA
ENDBRANCH 35 47
BRANCH 34 50
ATOM     50  O4  BDP B   4      -8.469  12.776  -3.6660  0.00  0.00     0.000 O
BRANCH 50 54
ATOM     51  C1  BDP B   4      -8.528  12.684  -7.7330  0.00  0.00     0.000 C
ATOM     52  C2  BDP B   4      -8.480  14.085  -7.1330  0.00  0.00     0.000 C
ATOM     53  C3  BDP B   4      -8.088  13.976  -5.6920  0.00  0.00     0.000 C
ATOM     54  C4  BDP B   4      -9.061  13.012  -4.9550  0.00  0.00     0.000 C
ATOM     55  C5  BDP B   4      -9.239  11.692  -5.6930  0.00  0.00     0.000 C
ATOM     56  O5  BDP B   4      -9.523  11.926  -7.0700  0.00  0.00     0.000 O
ATOM     57   O  BDP B   4      -7.532  14.878  -7.8170  0.00  0.00     0.000 O
ATOM     59  HD  BDP B   4      -8.006  15.391  -8.3290  0.00  0.00     0.000 HD
ATOM     59   O  BDP B   4      -8.241  15.289  -5.1150  0.00  0.00     0.000 O
ATOM     61  HD  BDP B   4      -8.715  15.802  -5.6270  0.00  0.00     0.000 HD
BRANCH 55 61
ATOM     61   C  BDP B   4     -10.388  10.920  -5.0700  0.00  0.00     0.000 C
ATOM     62   O  BDP B   4     -11.562  11.251  -5.3850  0.00  0.00     0.000 OA
ATOM     63   O  BDP B   4     -10.114   9.979  -4.2650  0.00  0.00     0.000 OA
ENDBRANCH 55 61
BRANCH 51 64
ATOM     64  O3  NAG B   5      -8.843  12.829  -9.1310  0.00  0.00     0.000 O
BRANCH 64 67
ATOM     65  C1  NAG B   5      -6.972  10.933 -11.6800  0.00  0.00     0.000 C
ATOM     66  C2  NAG B   5      -7.270  12.023 -10.6660  0.00  0.00     0.000 C
ATOM     67  C3  NAG B   5      -8.528  11.673  -9.8820  0.00  0.00     0.000 C
ATOM     68  C4  NAG B   5      -9.692  11.345 -10.8280  0.00  0.00     0.000 C
ATOM     69  C5  NAG B   5      -9.270  10.314 -11.8620  0.00  0.00     0.000 C
ATOM     70  O5  NAG B   5      -8.079  10.753 -12.5320  0.00  0.00     0.000 O
ATOM     71   O  NAG B   5     -10.782  10.882 -10.0590  0.00  0.00     0.000 O
ATOM     73  HD  NAG B   5     -11.226  11.387 -10.6040  0.00  0.00     0.000 HD
ATOM     73   C  NAG B   5     -10.333  10.018 -12.9300  0.00  0.00     0.000 C
ATOM     74   O  NAG B   5     -10.580  11.207 -13.7090  0.00  0.00     0.000 O
ATOM     76  HD  NAG B   5     -11.023  11.713 -14.2550  0.00  0.00     0.000 HD
BRANCH 66 78
ATOM     76   N  NAG B   5      -6.074  12.135  -9.8080  0.00  0.00     0.000 N
ATOM     78  HD  NAG B   5      -6.502  12.633 -10.3720  0.00  0.00     0.000 HD
ATOM     78   C  NAG B   5      -5.395  13.262  -9.5430  0.00  0.00     0.000 C
ATOM     79   C  NAG B   5      -4.228  13.055  -8.6160  0.00  0.00     0.000 C
ATOM     80   O  NAG B   5      -5.705  14.403 -10.0400  0.00  0.00     0.000 OA
ENDBRANCH 66 78
BRANCH 65 81
ATOM     81  O4  BDP B   6      -5.814  11.280 -12.4510  0.00  0.00     0.000 O
BRANCH 81 85
ATOM     82  C1  BDP B   6      -2.561   9.343 -14.4580  0.00  0.00     0.000 C
ATOM     83  C2  BDP B   6      -3.836   9.591 -15.2580  0.00  0.00     0.000 C
ATOM     84  C3  BDP B   6      -4.757  10.625 -14.6050  0.00  0.00     0.000 C
ATOM     85  C4  BDP B   6      -5.034  10.298 -13.1370  0.00  0.00     0.000 C
ATOM     86  C5  BDP B   6      -3.676  10.034 -12.4440  0.00  0.00     0.000 C
ATOM     87  O5  BDP B   6      -2.908   8.991 -13.1260  0.00  0.00     0.000 O
ATOM     88   O  BDP B   6      -3.401  10.073 -16.5270  0.00  0.00     0.000 O
ATOM     90  HD  BDP B   6      -3.602  10.675 -17.1160  0.00  0.00     0.000 HD
ATOM     90   O  BDP B   6      -5.976  10.718 -15.3480  0.00  0.00     0.000 O
ATOM     92  HD  BDP B   6      -6.176  11.320 -15.9380  0.00  0.00     0.000 HD
BRANCH 86 92
ATOM     92   C  BDP B   6      -3.888   9.476 -11.0570  0.00  0.00     0.000 C
ATOM     93   O  BDP B   6      -4.362   8.307 -10.9210  0.00  0.00     0.000 OA
ATOM     94   O  BDP B   6      -3.555  10.207 -10.0740  0.00  0.00     0.000 OA
ENDBRANCH 86 92
BRANCH 82 95
ATOM     95  O3  NAG B   7      -1.867   8.224 -15.0440  0.00  0.00     0.000 O
BRANCH 95 98
ATOM     96  C1  NAG B   7       1.678   7.438 -15.4420  0.00  0.00     0.000 C
ATOM     97  C2  NAG B   7       0.247   7.692 -15.8990  0.00  0.00     0.000 C
ATOM     98  C3  NAG B   7      -0.541   7.925 -14.6110  0.00  0.00     0.000 C
ATOM     99  C4  NAG B   7      -0.450   6.691 -13.7170  0.00  0.00     0.000 C
ATOM    100  C5  NAG B   7       1.008   6.301 -13.4700  0.00  0.00     0.000 C
ATOM    101  O5  NAG B   7       1.676   6.202 -14.7180  0.00  0.00     0.000 O
BRANCH 97 104
ATOM    102   N  NAG B   7       0.040   8.898 -16.7120  0.00  0.00     0.000 N
ATOM    104  HD  NAG B   7      -0.226   9.677 -16.9810  0.00  0.00     0.000 HD
ATOM    104   O  NAG B   7      -0.671  10.115 -18.4840  0.00  0.00     0.000 OA
ATOM    105   C  NAG B   7      -0.505   9.007 -17.9380  0.00  0.00     0.000 C
ATOM    106   C  NAG B   7      -0.934   7.771 -18.6530  0.00  0.00     0.000 C
ENDBRANCH 97 104
ATOM    107   O  NAG B   7       2.400   4.863 -12.2470  0.00  0.00     0.000 O
ATOM    109  HD  NAG B   7       2.308   5.667 -12.5530  0.00  0.00     0.000 HD
ATOM    109   O  NAG B   7       2.400   4.863 -12.2470  0.00  0.00     0.000 O
ATOM    111  HD  NAG B   7       2.308   5.667 -12.5530  0.00  0.00     0.000 HD
ENDBRANCH 95 98
ENDBRANCH 82 95
ENDBRANCH 81 85
ENDBRANCH 65 81
ENDBRANCH 64 67
ENDBRANCH 51 64
ENDBRANCH 50 54
ENDBRANCH 34 50
ENDBRANCH 33 36
ENDBRANCH 20 33
ENDBRANCH 19 23
ENDBRANCH 1 19
TORSDOF 19
ENDMDL
MODEL 73
REMARK VINA RESULT:      -5.7     26.520     31.680
ROOT
ATOM      1  C1  NAG B   1     -10.394   8.832   6.2750  0.00  0.00     0.000 C
ATOM      2  C2  NAG B   1     -10.263   7.493   6.9970  0.00  0.00     0.000 C
ATOM      3  C3  NAG B   1      -9.600   7.645   8.3510  0.00  0.00     0.000 C
ATOM      4  C4  NAG B   1      -8.246   8.290   8.0730  0.00  0.00     0.000 C
ATOM      5  C5  NAG B   1      -8.468   9.684   7.4710  0.00  0.00     0.000 C
ATOM      6  O5  NAG B   1      -9.183   9.602   6.2200  0.00  0.00     0.000 O
ATOM      7   O  NAG B   1      -9.437   6.375   9.0240  0.00  0.00     0.000 O
ATOM      9  HD  NAG B   1     -10.187   6.269   8.6040  0.00  0.00     0.000 HD
ATOM      9   O  NAG B   1      -7.501   8.399   9.2740  0.00  0.00     0.000 O
ATOM     11  HD  NAG B   1      -8.251   8.293   8.8540  0.00  0.00     0.000 HD
ATOM     11   C  NAG B   1      -7.123  10.404   7.3110  0.00  0.00     0.000 C
ATOM     12   O  NAG B   1      -7.159  11.332   6.2270  0.00  0.00     0.000 O
ATOM     14  HD  NAG B   1      -7.909  11.226   5.8070  0.00  0.00     0.000 HD
ENDROOT
BRANCH 2 16
ATOM     14   N  NAG B   1     -10.695   6.284   6.2740  0.00  0.00     0.000 N
ATOM     16  HD  NAG B   1     -10.771   5.425   6.3520  0.00  0.00     0.000 HD
ATOM     16   C  NAG B   1     -11.887   5.695   6.4730  0.00  0.00     0.000 C
ATOM     17   C  NAG B   1     -12.841   6.256   7.4950  0.00  0.00     0.000 C
ATOM     18   O  NAG B   1     -12.232   4.715   5.8150  0.00  0.00     0.000 OA
ENDBRANCH 2 16
BRANCH 1 19
ATOM     19  O4  BDP B   2     -10.677   8.451   4.9360  0.00  0.00     0.000 O
BRANCH 19 23
ATOM     20  C1  BDP B   2     -10.391  10.228   1.2340  0.00  0.00     0.000 C
ATOM     21  C2  BDP B   2      -9.084   9.890   1.9220  0.00  0.00     0.000 C
ATOM     22  C3  BDP B   2      -9.294   8.891   3.0370  0.00  0.00     0.000 C
ATOM     23  C4  BDP B   2     -10.373   9.430   3.9720  0.00  0.00     0.000 C
ATOM     24  C5  BDP B   2     -11.631   9.718   3.1770  0.00  0.00     0.000 C
ATOM     25  O5  BDP B   2     -11.350  10.681   2.1790  0.00  0.00     0.000 O
ATOM     26   O  BDP B   2      -8.159   9.375   0.9890  0.00  0.00     0.000 O
ATOM     28  HD  BDP B   2      -8.771   9.676   0.4540  0.00  0.00     0.000 HD
ATOM     28   O  BDP B   2      -8.048   8.674   3.7180  0.00  0.00     0.000 O
ATOM     30  HD  BDP B   2      -8.660   8.975   3.1840  0.00  0.00     0.000 HD
BRANCH 24 30
ATOM     30   C  BDP B   2     -12.723  10.259   4.0290  0.00  0.00     0.000 C
ATOM     31   O  BDP B   2     -12.499  11.331   4.6380  0.00  0.00     0.000 OA
ATOM     32   O  BDP B   2     -13.806   9.612   4.1010  0.00  0.00     0.000 OA
ENDBRANCH 24 30
BRANCH 20 33
ATOM     33  O3  NAG B   3     -10.058  11.286   0.3690  0.00  0.00     0.000 O
BRANCH 33 36
ATOM     34  C1  NAG B   3     -10.715  11.492  -3.3290  0.00  0.00     0.000 C
ATOM     35  C2  NAG B   3      -9.925  11.299  -2.0480  0.00  0.00     0.000 C
ATOM     36  C3  NAG B   3     -10.849  11.266  -0.8210  0.00  0.00     0.000 C
ATOM     37  C4  NAG B   3     -11.752  12.497  -0.8350  0.00  0.00     0.000 C
ATOM     38  C5  NAG B   3     -12.429  12.641  -2.1950  0.00  0.00     0.000 C
ATOM     39  O5  NAG B   3     -11.450  12.703  -3.2180  0.00  0.00     0.000 O
ATOM     40   O  NAG B   3     -12.754  12.382   0.1870  0.00  0.00     0.000 O
ATOM     42  HD  NAG B   3     -13.281  12.522  -0.4860  0.00  0.00     0.000 HD
ATOM     42   C  NAG B   3     -13.251  13.919  -2.3430  0.00  0.00     0.000 C
ATOM     43   O  NAG B   3     -12.381  15.056  -2.3000  0.00  0.00     0.000 O
ATOM     45  HD  NAG B   3     -12.907  15.195  -2.9730  0.00  0.00     0.000 HD
BRANCH 35 47
ATOM     45   N  NAG B   3      -8.481  11.201  -1.8800  0.00  0.00     0.000 N
ATOM     47  HD  NAG B   3      -8.828  11.846  -1.4180  0.00  0.00     0.000 HD
ATOM     47   C  NAG B   3      -7.842  10.050  -1.8220  0.00  0.00     0.000 C
ATOM     48   C  NAG B   3      -6.357  10.128  -1.6250  0.00  0.00     0.000 C
ATOM     49   O  NAG B   3      -8.430   8.974  -1.8970  0.00  0.00     0.000 OA
ENDBRANCH 35 47
BRANCH 34 50
ATOM     50  O4  BDP B   4      -9.718  11.611  -4.3220  0.00  0.00     0.000 O
BRANCH 50 54
ATOM     51  C1  BDP B   4      -8.915  11.141  -8.2820  0.00  0.00     0.000 C
ATOM     52  C2  BDP B   4      -9.738  12.379  -7.9470  0.00  0.00     0.000 C
ATOM     53  C3  BDP B   4      -9.642  12.635  -6.4740  0.00  0.00     0.000 C
ATOM     54  C4  BDP B   4     -10.076  11.362  -5.6910  0.00  0.00     0.000 C
ATOM     55  C5  BDP B   4      -9.375  10.107  -6.1920  0.00  0.00     0.000 C
ATOM     56  O5  BDP B   4      -9.462  10.020  -7.6110  0.00  0.00     0.000 O
ATOM     57   O  BDP B   4      -9.244  13.500  -8.6490  0.00  0.00     0.000 O
ATOM     59  HD  BDP B   4      -9.806  13.616  -9.2980  0.00  0.00     0.000 HD
ATOM     59   O  BDP B   4     -10.580  13.687  -6.1690  0.00  0.00     0.000 O
ATOM     61  HD  BDP B   4     -11.142  13.803  -6.8170  0.00  0.00     0.000 HD
BRANCH 55 61
ATOM     61   C  BDP B   4     -10.034   8.886  -5.5760  0.00  0.00     0.000 C
ATOM     62   O  BDP B   4     -11.289   8.796  -5.6400  0.00  0.00     0.000 OA
ATOM     63   O  BDP B   4      -9.292   8.014  -5.0290  0.00  0.00     0.000 OA
ENDBRANCH 55 61
BRANCH 51 64
ATOM     64  O3  NAG B   5      -8.975  10.961  -9.7100  0.00  0.00     0.000 O
BRANCH 64 67
ATOM     65  C1  NAG B   5      -6.074   9.723 -11.6190  0.00  0.00     0.000 C
ATOM     66  C2  NAG B   5      -6.967  10.709 -10.8870  0.00  0.00     0.000 C
ATOM     67  C3  NAG B   5      -8.086   9.963 -10.1710  0.00  0.00     0.000 C
ATOM     68  C4  NAG B   5      -8.826   9.025 -11.1340  0.00  0.00     0.000 C
ATOM     69  C5  NAG B   5      -7.843   8.142 -11.8870  0.00  0.00     0.000 C
ATOM     70  O5  NAG B   5      -6.841   8.954 -12.5170  0.00  0.00     0.000 O
ATOM     71   O  NAG B   5      -9.745   8.250 -10.3940  0.00  0.00     0.000 O
ATOM     73  HD  NAG B   5     -10.254   8.425 -11.0720  0.00  0.00     0.000 HD
ATOM     73   C  NAG B   5      -8.485   7.259 -12.9670  0.00  0.00     0.000 C
ATOM     74   O  NAG B   5      -9.058   8.092 -13.9960  0.00  0.00     0.000 O
ATOM     76  HD  NAG B   5      -9.567   8.267 -14.6740  0.00  0.00     0.000 HD
BRANCH 66 78
ATOM     76   N  NAG B   5      -6.017  11.461 -10.0440  0.00  0.00     0.000 N
ATOM     78  HD  NAG B   5      -6.615  11.639 -10.6450  0.00  0.00     0.000 HD
ATOM     78   C  NAG B   5      -5.997  12.792  -9.8720  0.00  0.00     0.000 C
ATOM     79   C  NAG B   5      -4.917  13.259  -8.9350  0.00  0.00     0.000 C
ATOM     80   O  NAG B   5      -6.814  13.589 -10.4580  0.00  0.00     0.000 OA
ENDBRANCH 66 78
BRANCH 65 81
ATOM     81  O4  BDP B   6      -5.046  10.424 -12.3320  0.00  0.00     0.000 O
BRANCH 81 85
ATOM     82  C1  BDP B   6      -1.162   9.727 -14.0020  0.00  0.00     0.000 C
ATOM     83  C2  BDP B   6      -2.250   8.698 -14.2940  0.00  0.00     0.000 C
ATOM     84  C3  BDP B   6      -3.660   9.226 -14.0140  0.00  0.00     0.000 C
ATOM     85  C4  BDP B   6      -3.777   9.831 -12.6140  0.00  0.00     0.000 C
ATOM     86  C5  BDP B   6      -2.606  10.825 -12.4260  0.00  0.00     0.000 C
ATOM     87  O5  BDP B   6      -1.309  10.193 -12.6690  0.00  0.00     0.000 O
ATOM     88   O  BDP B   6      -2.122   8.392 -15.6800  0.00  0.00     0.000 O
ATOM     90  HD  BDP B   6      -2.612   8.256 -16.3820  0.00  0.00     0.000 HD
ATOM     90   O  BDP B   6      -4.612   8.176 -14.2000  0.00  0.00     0.000 O
ATOM     92  HD  BDP B   6      -5.101   8.040 -14.9010  0.00  0.00     0.000 HD
BRANCH 86 92
ATOM     92   C  BDP B   6      -2.522  11.279 -10.9880  0.00  0.00     0.000 C
ATOM     93   O  BDP B   6      -2.006  12.405 -10.7180  0.00  0.00     0.000 OA
ATOM     94   O  BDP B   6      -3.001  10.506 -10.1010  0.00  0.00     0.000 OA
ENDBRANCH 86 92
BRANCH 82 95
ATOM     95  O3  NAG B   7       0.119   9.075 -14.1050  0.00  0.00     0.000 O
BRANCH 95 98
ATOM     96  C1  NAG B   7       3.228  10.381 -15.5070  0.00  0.00     0.000 C
ATOM     97  C2  NAG B   7       1.998   9.485 -15.4400  0.00  0.00     0.000 C
ATOM     98  C3  NAG B   7       1.303   9.870 -14.1360  0.00  0.00     0.000 C
ATOM     99  C4  NAG B   7       2.240   9.623 -12.9560  0.00  0.00     0.000 C
ATOM    100  C5  NAG B   7       3.576  10.337 -13.1600  0.00  0.00     0.000 C
ATOM    101  O5  NAG B   7       4.094   9.989 -14.4350  0.00  0.00     0.000 O
BRANCH 97 104
ATOM    102   N  NAG B   7       1.042   8.986 -16.4380  0.00  0.00     0.000 N
ATOM    104  HD  NAG B   7       0.692   8.559 -17.1050  0.00  0.00     0.000 HD
ATOM    104   O  NAG B   7      -0.406   9.108 -18.1750  0.00  0.00     0.000 OA
ATOM    105   C  NAG B   7       0.329   9.679 -17.3450  0.00  0.00     0.000 C
ATOM    106   C  NAG B   7       0.434  11.166 -17.3660  0.00  0.00     0.000 C
ENDBRANCH 97 104
ATOM    107   O  NAG B   7       5.612  10.875 -12.1250  0.00  0.00     0.000 O
ATOM    109  HD  NAG B   7       4.985  11.165 -12.6480  0.00  0.00     0.000 HD
ATOM    109   O  NAG B   7       5.612  10.875 -12.1250  0.00  0.00     0.000 O
ATOM    111  HD  NAG B   7       4.985  11.165 -12.6480  0.00  0.00     0.000 HD
ENDBRANCH 95 98
ENDBRANCH 82 95
ENDBRANCH 81 85
ENDBRANCH 65 81
ENDBRANCH 64 67
ENDBRANCH 51 64
ENDBRANCH 50 54
ENDBRANCH 34 50
ENDBRANCH 33 36
ENDBRANCH 20 33
ENDBRANCH 19 23
ENDBRANCH 1 19
TORSDOF 19
ENDMDL
MODEL 74
REMARK VINA RESULT:      -5.6      9.147     13.743
ROOT
ATOM      1  C1  NAG B   1       8.712   5.669  18.3010  0.00  0.00     0.000 C
ATOM      2  C2  NAG B   1       9.020   6.306  19.6530  0.00  0.00     0.000 C
ATOM      3  C3  NAG B   1       8.426   7.694  19.7710  0.00  0.00     0.000 C
ATOM      4  C4  NAG B   1       9.011   8.489  18.6070  0.00  0.00     0.000 C
ATOM      5  C5  NAG B   1       8.545   7.862  17.2870  0.00  0.00     0.000 C
ATOM      6  O5  NAG B   1       9.007   6.499  17.1660  0.00  0.00     0.000 O
ATOM      7   O  NAG B   1       8.748   8.319  21.0350  0.00  0.00     0.000 O
ATOM      9  HD  NAG B   1       8.665   7.486  21.2550  0.00  0.00     0.000 HD
ATOM      9   O  NAG B   1       8.583   9.839  18.6750  0.00  0.00     0.000 O
ATOM     11  HD  NAG B   1       8.500   9.005  18.8950  0.00  0.00     0.000 HD
ATOM     11   C  NAG B   1       9.008   8.725  16.1060  0.00  0.00     0.000 C
ATOM     12   O  NAG B   1       9.202   7.936  14.9330  0.00  0.00     0.000 O
ATOM     14  HD  NAG B   1       9.119   7.102  15.1530  0.00  0.00     0.000 HD
ENDROOT
BRANCH 2 16
ATOM     14   N  NAG B   1       8.608   5.640  20.9010  0.00  0.00     0.000 N
ATOM     16  HD  NAG B   1       8.328   4.885  21.2200  0.00  0.00     0.000 HD
ATOM     16   C  NAG B   1       9.416   4.826  21.6020  0.00  0.00     0.000 C
ATOM     17   C  NAG B   1      10.807   4.537  21.1040  0.00  0.00     0.000 C
ATOM     18   O  NAG B   1       9.052   4.328  22.6670  0.00  0.00     0.000 OA
ENDBRANCH 2 16
BRANCH 1 19
ATOM     19  O4  BDP B   2       9.625   4.582  18.2380  0.00  0.00     0.000 O
BRANCH 19 23
ATOM     20  C1  BDP B   2       9.813   1.000  16.2190  0.00  0.00     0.000 C
ATOM     21  C2  BDP B   2      10.092   2.247  15.4050  0.00  0.00     0.000 C
ATOM     22  C3  BDP B   2      10.408   3.425  16.2980  0.00  0.00     0.000 C
ATOM     23  C4  BDP B   2       9.280   3.579  17.3140  0.00  0.00     0.000 C
ATOM     24  C5  BDP B   2       9.103   2.278  18.0720  0.00  0.00     0.000 C
ATOM     25  O5  BDP B   2       8.781   1.241  17.1650  0.00  0.00     0.000 O
ATOM     26   O  BDP B   2      11.164   2.022  14.5160  0.00  0.00     0.000 O
ATOM     28  HD  BDP B   2      11.006   1.212  14.7800  0.00  0.00     0.000 HD
ATOM     28   O  BDP B   2      10.572   4.601  15.4910  0.00  0.00     0.000 O
ATOM     30  HD  BDP B   2      10.413   3.792  15.7540  0.00  0.00     0.000 HD
BRANCH 24 30
ATOM     30   C  BDP B   2       8.006   2.356  19.0730  0.00  0.00     0.000 C
ATOM     31   O  BDP B   2       6.869   2.672  18.6560  0.00  0.00     0.000 OA
ATOM     32   O  BDP B   2       8.278   2.109  20.2830  0.00  0.00     0.000 OA
ENDBRANCH 24 30
BRANCH 20 33
ATOM     33  O3  NAG B   3       9.361   0.067  15.2680  0.00  0.00     0.000 O
BRANCH 33 36
ATOM     34  C1  NAG B   3      10.350  -3.562  15.2200  0.00  0.00     0.000 C
ATOM     35  C2  NAG B   3      10.392  -2.087  14.8690  0.00  0.00     0.000 C
ATOM     36  C3  NAG B   3       9.443  -1.272  15.7610  0.00  0.00     0.000 C
ATOM     37  C4  NAG B   3       8.052  -1.899  15.7240  0.00  0.00     0.000 C
ATOM     38  C5  NAG B   3       8.138  -3.397  16.0070  0.00  0.00     0.000 C
ATOM     39  O5  NAG B   3       9.012  -4.015  15.0780  0.00  0.00     0.000 O
ATOM     40   O  NAG B   3       7.206  -1.276  16.7030  0.00  0.00     0.000 O
ATOM     42  HD  NAG B   3       7.098  -2.098  16.9520  0.00  0.00     0.000 HD
ATOM     42   C  NAG B   3       6.807  -4.130  15.8610  0.00  0.00     0.000 C
ATOM     43   O  NAG B   3       6.385  -4.089  14.4930  0.00  0.00     0.000 O
ATOM     45  HD  NAG B   3       6.276  -4.911  14.7420  0.00  0.00     0.000 HD
BRANCH 35 47
ATOM     45   N  NAG B   3      11.747  -1.561  14.9750  0.00  0.00     0.000 N
ATOM     47  HD  NAG B   3      11.664  -2.343  15.3370  0.00  0.00     0.000 HD
ATOM     47   C  NAG B   3      12.326  -0.869  14.0140  0.00  0.00     0.000 C
ATOM     48   C  NAG B   3      13.732  -0.419  14.2780  0.00  0.00     0.000 C
ATOM     49   O  NAG B   3      11.756  -0.629  12.9510  0.00  0.00     0.000 OA
ENDBRANCH 35 47
BRANCH 34 50
ATOM     50  O4  BDP B   4      11.179  -4.161  14.2460  0.00  0.00     0.000 O
BRANCH 50 54
ATOM     51  C1  BDP B   4      12.309  -7.949  13.2860  0.00  0.00     0.000 C
ATOM     52  C2  BDP B   4      11.178  -7.867  14.3050  0.00  0.00     0.000 C
ATOM     53  C3  BDP B   4      10.616  -6.478  14.2850  0.00  0.00     0.000 C
ATOM     54  C4  BDP B   4      11.756  -5.447  14.5280  0.00  0.00     0.000 C
ATOM     55  C5  BDP B   4      12.957  -5.687  13.6230  0.00  0.00     0.000 C
ATOM     56  O5  BDP B   4      13.343  -7.058  13.6620  0.00  0.00     0.000 O
ATOM     57   O  BDP B   4      10.159  -8.788  13.9810  0.00  0.00     0.000 O
ATOM     59  HD  BDP B   4      10.270  -9.441  14.5390  0.00  0.00     0.000 HD
ATOM     59   O  BDP B   4       9.689  -6.385  15.3860  0.00  0.00     0.000 O
ATOM     61  HD  BDP B   4       9.800  -7.037  15.9450  0.00  0.00     0.000 HD
BRANCH 55 61
ATOM     61   C  BDP B   4      14.117  -4.828  14.0930  0.00  0.00     0.000 C
ATOM     62   O  BDP B   4      13.880  -3.927  14.9400  0.00  0.00     0.000 OA
ATOM     63   O  BDP B   4      15.268  -5.058  13.6110  0.00  0.00     0.000 OA
ENDBRANCH 55 61
BRANCH 51 64
ATOM     64  O3  NAG B   5      12.783  -9.310  13.2840  0.00  0.00     0.000 O
BRANCH 64 67
ATOM     65  C1  NAG B   5      13.043 -10.968  10.0010  0.00  0.00     0.000 C
ATOM     66  C2  NAG B   5      12.388 -10.352  11.2260  0.00  0.00     0.000 C
ATOM     67  C3  NAG B   5      13.440  -9.656  12.0800  0.00  0.00     0.000 C
ATOM     68  C4  NAG B   5      14.611 -10.598  12.3890  0.00  0.00     0.000 C
ATOM     69  C5  NAG B   5      15.138 -11.237  11.1140  0.00  0.00     0.000 C
ATOM     70  O5  NAG B   5      14.061 -11.858  10.3970  0.00  0.00     0.000 O
ATOM     71   O  NAG B   5      15.620  -9.864  13.0480  0.00  0.00     0.000 O
ATOM     73  HD  NAG B   5      15.655 -10.580  13.5340  0.00  0.00     0.000 HD
ATOM     73   C  NAG B   5      16.229 -12.293  11.3400  0.00  0.00     0.000 C
ATOM     74   O  NAG B   5      15.681 -13.404  12.0800  0.00  0.00     0.000 O
ATOM     76  HD  NAG B   5      15.716 -14.120  12.5660  0.00  0.00     0.000 HD
BRANCH 66 78
ATOM     76   N  NAG B   5      10.915 -10.441  11.2470  0.00  0.00     0.000 N
ATOM     78  HD  NAG B   5      11.516  -9.817  11.2610  0.00  0.00     0.000 HD
ATOM     78   C  NAG B   5      10.061  -9.418  11.0880  0.00  0.00     0.000 C
ATOM     79   C  NAG B   5       8.615  -9.830  11.1410  0.00  0.00     0.000 C
ATOM     80   O  NAG B   5      10.440  -8.204  10.9170  0.00  0.00     0.000 OA
ENDBRANCH 66 78
BRANCH 65 81
ATOM     81  O4  BDP B   6      12.065 -11.665   9.2180  0.00  0.00     0.000 O
BRANCH 81 85
ATOM     82  C1  BDP B   6      10.864 -12.141   5.1320  0.00  0.00     0.000 C
ATOM     83  C2  BDP B   6      12.097 -12.909   5.5990  0.00  0.00     0.000 C
ATOM     84  C3  BDP B   6      12.200 -13.000   7.1240  0.00  0.00     0.000 C
ATOM     85  C4  BDP B   6      12.069 -11.628   7.7890  0.00  0.00     0.000 C
ATOM     86  C5  BDP B   6      10.810 -10.938   7.2120  0.00  0.00     0.000 C
ATOM     87  O5  BDP B   6      10.850 -10.863   5.7510  0.00  0.00     0.000 O
ATOM     88   O  BDP B   6      11.960 -14.218   5.0510  0.00  0.00     0.000 O
ATOM     90  HD  BDP B   6      12.071 -15.048   5.2710  0.00  0.00     0.000 HD
ATOM     90   O  BDP B   6      13.431 -13.630   7.4850  0.00  0.00     0.000 O
ATOM     92  HD  BDP B   6      13.542 -14.460   7.7050  0.00  0.00     0.000 HD
BRANCH 86 92
ATOM     92   C  BDP B   6      10.753  -9.493   7.6450  0.00  0.00     0.000 C
ATOM     93   O  BDP B   6      11.825  -8.819   7.7120  0.00  0.00     0.000 OA
ATOM     94   O  BDP B   6       9.610  -9.004   7.9050  0.00  0.00     0.000 OA
ENDBRANCH 86 92
BRANCH 82 95
ATOM     95  O3  NAG B   7      10.966 -11.943   3.7080  0.00  0.00     0.000 O
BRANCH 95 98
ATOM     96  C1  NAG B   7       8.910 -12.663   0.7760  0.00  0.00     0.000 C
ATOM     97  C2  NAG B   7      10.193 -12.590   1.5950  0.00  0.00     0.000 C
ATOM     98  C3  NAG B   7       9.777 -11.952   2.9190  0.00  0.00     0.000 C
ATOM     99  C4  NAG B   7       9.197 -10.563   2.6660  0.00  0.00     0.000 C
ATOM    100  C5  NAG B   7       8.061 -10.624   1.6430  0.00  0.00     0.000 C
ATOM    101  O5  NAG B   7       8.516 -11.316   0.4910  0.00  0.00     0.000 O
BRANCH 97 104
ATOM    102   N  NAG B   7      10.824 -13.846   2.0220  0.00  0.00     0.000 N
ATOM    104  HD  NAG B   7      11.183 -14.467   2.5080  0.00  0.00     0.000 HD
ATOM    104   O  NAG B   7      12.438 -15.432   2.1280  0.00  0.00     0.000 OA
ATOM    105   C  NAG B   7      11.998 -14.377   1.6300  0.00  0.00     0.000 C
ATOM    106   C  NAG B   7      12.797 -13.677   0.5840  0.00  0.00     0.000 C
ENDBRANCH 97 104
ATOM    107   O  NAG B   7       6.374  -9.360   0.6120  0.00  0.00     0.000 O
ATOM    109  HD  NAG B   7       6.576 -10.133   0.9470  0.00  0.00     0.000 HD
ATOM    109   O  NAG B   7       6.374  -9.360   0.6120  0.00  0.00     0.000 O
ATOM    111  HD  NAG B   7       6.576 -10.133   0.9470  0.00  0.00     0.000 HD
ENDBRANCH 95 98
ENDBRANCH 82 95
ENDBRANCH 81 85
ENDBRANCH 65 81
ENDBRANCH 64 67
ENDBRANCH 51 64
ENDBRANCH 50 54
ENDBRANCH 34 50
ENDBRANCH 33 36
ENDBRANCH 20 33
ENDBRANCH 19 23
ENDBRANCH 1 19
TORSDOF 19
ENDMDL
MODEL 75
REMARK VINA RESULT:      -5.6      4.367      5.866
ROOT
ATOM      1  C1  NAG B   1       5.736 -14.687  17.8670  0.00  0.00     0.000 C
ATOM      2  C2  NAG B   1       4.223 -14.485  17.8650  0.00  0.00     0.000 C
ATOM      3  C3  NAG B   1       3.487 -15.732  18.3090  0.00  0.00     0.000 C
ATOM      4  C4  NAG B   1       3.927 -16.830  17.3460  0.00  0.00     0.000 C
ATOM      5  C5  NAG B   1       5.435 -17.063  17.5050  0.00  0.00     0.000 C
ATOM      6  O5  NAG B   1       6.182 -15.870  17.1850  0.00  0.00     0.000 O
ATOM      7   O  NAG B   1       2.051 -15.560  18.2720  0.00  0.00     0.000 O
ATOM      9  HD  NAG B   1       2.328 -14.773  18.5050  0.00  0.00     0.000 HD
ATOM      9   O  NAG B   1       3.225 -18.031  17.6210  0.00  0.00     0.000 O
ATOM     11  HD  NAG B   1       3.501 -17.244  17.8540  0.00  0.00     0.000 HD
ATOM     11   C  NAG B   1       5.874 -18.255  16.6470  0.00  0.00     0.000 C
ATOM     12   O  NAG B   1       7.233 -18.123  16.2330  0.00  0.00     0.000 O
ATOM     14  HD  NAG B   1       7.510 -17.336  16.4660  0.00  0.00     0.000 HD
ENDROOT
BRANCH 2 16
ATOM     14   N  NAG B   1       4.084 -13.220  18.6090  0.00  0.00     0.000 N
ATOM     16  HD  NAG B   1       4.368 -12.402  18.6380  0.00  0.00     0.000 HD
ATOM     16   C  NAG B   1       3.329 -12.194  18.1800  0.00  0.00     0.000 C
ATOM     17   C  NAG B   1       2.597 -12.297  16.8680  0.00  0.00     0.000 C
ATOM     18   O  NAG B   1       3.198 -11.173  18.8540  0.00  0.00     0.000 OA
ENDBRANCH 2 16
BRANCH 1 19
ATOM     19  O4  BDP B   2       6.211 -13.590  17.0990  0.00  0.00     0.000 O
BRANCH 19 23
ATOM     20  C1  BDP B   2       8.574 -13.128  13.7610  0.00  0.00     0.000 C
ATOM     21  C2  BDP B   2       7.177 -13.665  13.5280  0.00  0.00     0.000 C
ATOM     22  C3  BDP B   2       6.282 -13.400  14.7170  0.00  0.00     0.000 C
ATOM     23  C4  BDP B   2       6.964 -13.950  15.9660  0.00  0.00     0.000 C
ATOM     24  C5  BDP B   2       8.343 -13.335  16.1010  0.00  0.00     0.000 C
ATOM     25  O5  BDP B   2       9.119 -13.657  14.9620  0.00  0.00     0.000 O
ATOM     26   O  BDP B   2       6.616 -13.083  12.3710  0.00  0.00     0.000 O
ATOM     28  HD  BDP B   2       7.440 -12.832  12.2890  0.00  0.00     0.000 HD
ATOM     28   O  BDP B   2       5.001 -14.008  14.4900  0.00  0.00     0.000 O
ATOM     30  HD  BDP B   2       5.826 -13.756  14.4080  0.00  0.00     0.000 HD
BRANCH 24 30
ATOM     30   C  BDP B   2       9.070 -13.839  17.2960  0.00  0.00     0.000 C
ATOM     31   O  BDP B   2       9.429 -15.038  17.2860  0.00  0.00     0.000 OA
ATOM     32   O  BDP B   2       9.277 -13.040  18.2540  0.00  0.00     0.000 OA
ENDBRANCH 24 30
BRANCH 20 33
ATOM     33  O3  NAG B   3       9.312 -13.612  12.6660  0.00  0.00     0.000 O
BRANCH 33 36
ATOM     34  C1  NAG B   3      12.678 -12.255  11.6770  0.00  0.00     0.000 C
ATOM     35  C2  NAG B   3      11.168 -12.398  11.6950  0.00  0.00     0.000 C
ATOM     36  C3  NAG B   3      10.710 -13.348  12.8120  0.00  0.00     0.000 C
ATOM     37  C4  NAG B   3      11.476 -14.664  12.7020  0.00  0.00     0.000 C
ATOM     38  C5  NAG B   3      12.976 -14.398  12.6060  0.00  0.00     0.000 C
ATOM     39  O5  NAG B   3      13.245 -13.545  11.5050  0.00  0.00     0.000 O
ATOM     40   O  NAG B   3      11.209 -15.485  13.8500  0.00  0.00     0.000 O
ATOM     42  HD  NAG B   3      12.074 -15.484  13.8970  0.00  0.00     0.000 HD
ATOM     42   C  NAG B   3      13.811 -15.652  12.3620  0.00  0.00     0.000 C
ATOM     43   O  NAG B   3      13.501 -16.190  11.0710  0.00  0.00     0.000 O
ATOM     45  HD  NAG B   3      14.366 -16.190  11.1180  0.00  0.00     0.000 HD
BRANCH 35 47
ATOM     45   N  NAG B   3      10.237 -11.774  10.7640  0.00  0.00     0.000 N
ATOM     47  HD  NAG B   3      10.213 -12.639  10.7290  0.00  0.00     0.000 HD
ATOM     47   C  NAG B   3       9.556 -10.683  11.0540  0.00  0.00     0.000 C
ATOM     48   C  NAG B   3       8.625 -10.183   9.9900  0.00  0.00     0.000 C
ATOM     49   O  NAG B   3       9.657 -10.122  12.1430  0.00  0.00     0.000 OA
ENDBRANCH 35 47
BRANCH 34 50
ATOM     50  O4  BDP B   4      12.925 -11.454  10.5410  0.00  0.00     0.000 O
BRANCH 50 54
ATOM     51  C1  BDP B   4      15.525  -8.799   8.8820  0.00  0.00     0.000 C
ATOM     52  C2  BDP B   4      16.171 -10.083   9.3920  0.00  0.00     0.000 C
ATOM     53  C3  BDP B   4      15.097 -11.102   9.6220  0.00  0.00     0.000 C
ATOM     54  C4  BDP B   4      14.018 -10.520  10.5790  0.00  0.00     0.000 C
ATOM     55  C5  BDP B   4      13.539  -9.142  10.1430  0.00  0.00     0.000 C
ATOM     56  O5  BDP B   4      14.650  -8.291   9.8730  0.00  0.00     0.000 O
ATOM     57   O  BDP B   4      17.091 -10.578   8.4430  0.00  0.00     0.000 O
ATOM     59  HD  BDP B   4      17.868 -10.364   8.7590  0.00  0.00     0.000 HD
ATOM     59   O  BDP B   4      15.718 -12.224  10.2810  0.00  0.00     0.000 O
ATOM     61  HD  BDP B   4      16.495 -12.010  10.5980  0.00  0.00     0.000 HD
BRANCH 55 61
ATOM     61   C  BDP B   4      12.700  -8.530  11.2510  0.00  0.00     0.000 C
ATOM     62   O  BDP B   4      11.677  -7.874  10.9230  0.00  0.00     0.000 OA
ATOM     63   O  BDP B   4      13.066  -8.711  12.4520  0.00  0.00     0.000 OA
ENDBRANCH 55 61
BRANCH 51 64
ATOM     64  O3  NAG B   5      16.587  -7.865   8.6110  0.00  0.00     0.000 O
BRANCH 64 67
ATOM     65  C1  NAG B   5      16.420  -5.439   5.8400  0.00  0.00     0.000 C
ATOM     66  C2  NAG B   5      16.661  -6.760   6.5490  0.00  0.00     0.000 C
ATOM     67  C3  NAG B   5      16.127  -6.689   7.9740  0.00  0.00     0.000 C
ATOM     68  C4  NAG B   5      16.681  -5.460   8.7080  0.00  0.00     0.000 C
ATOM     69  C5  NAG B   5      16.475  -4.201   7.8810  0.00  0.00     0.000 C
ATOM     70  O5  NAG B   5      17.016  -4.388   6.5650  0.00  0.00     0.000 O
ATOM     71   O  NAG B   5      16.041  -5.358   9.9620  0.00  0.00     0.000 O
ATOM     73  HD  NAG B   5      16.845  -5.170  10.2220  0.00  0.00     0.000 HD
ATOM     73   C  NAG B   5      17.112  -2.940   8.4800  0.00  0.00     0.000 C
ATOM     74   O  NAG B   5      18.545  -3.094   8.5220  0.00  0.00     0.000 O
ATOM     76  HD  NAG B   5      19.350  -2.906   8.7820  0.00  0.00     0.000 HD
BRANCH 66 78
ATOM     76   N  NAG B   5      17.241  -7.893   5.8010  0.00  0.00     0.000 N
ATOM     78  HD  NAG B   5      16.478  -7.687   6.1550  0.00  0.00     0.000 HD
ATOM     78   C  NAG B   5      16.560  -8.923   5.2760  0.00  0.00     0.000 C
ATOM     79   C  NAG B   5      17.433  -9.913   4.5520  0.00  0.00     0.000 C
ATOM     80   O  NAG B   5      15.289  -9.056   5.3870  0.00  0.00     0.000 OA
ENDBRANCH 66 78
BRANCH 65 81
ATOM     81  O4  BDP B   6      16.961  -5.485   4.5130  0.00  0.00     0.000 O
BRANCH 81 85
ATOM     82  C1  BDP B   6      15.931  -3.326   0.9580  0.00  0.00     0.000 C
ATOM     83  C2  BDP B   6      15.097  -3.064   2.2090  0.00  0.00     0.000 C
ATOM     84  C3  BDP B   6      15.778  -3.551   3.4910  0.00  0.00     0.000 C
ATOM     85  C4  BDP B   6      16.236  -5.006   3.3780  0.00  0.00     0.000 C
ATOM     86  C5  BDP B   6      17.036  -5.153   2.0620  0.00  0.00     0.000 C
ATOM     87  O5  BDP B   6      16.264  -4.705   0.9020  0.00  0.00     0.000 O
ATOM     88   O  BDP B   6      14.930  -1.650   2.2650  0.00  0.00     0.000 O
ATOM     90  HD  BDP B   6      14.940  -0.999   2.8370  0.00  0.00     0.000 HD
ATOM     90   O  BDP B   6      14.894  -3.376   4.6000  0.00  0.00     0.000 O
ATOM     92  HD  BDP B   6      14.903  -2.725   5.1720  0.00  0.00     0.000 HD
BRANCH 86 92
ATOM     92   C  BDP B   6      17.314  -6.608   1.7700  0.00  0.00     0.000 C
ATOM     93   O  BDP B   6      16.468  -7.284   1.1100  0.00  0.00     0.000 OA
ATOM     94   O  BDP B   6      18.413  -7.090   2.1870  0.00  0.00     0.000 OA
ENDBRANCH 86 92
BRANCH 82 95
ATOM     95  O3  NAG B   7      15.126  -3.017  -0.1970  0.00  0.00     0.000 O
BRANCH 95 98
ATOM     96  C1  NAG B   7      16.449  -1.615  -3.2990  0.00  0.00     0.000 C
ATOM     97  C2  NAG B   7      15.748  -1.592  -1.9470  0.00  0.00     0.000 C
ATOM     98  C3  NAG B   7      15.726  -3.049  -1.4910  0.00  0.00     0.000 C
ATOM     99  C4  NAG B   7      14.960  -3.898  -2.5030  0.00  0.00     0.000 C
ATOM    100  C5  NAG B   7      15.529  -3.715  -3.9100  0.00  0.00     0.000 C
ATOM    101  O5  NAG B   7      15.597  -2.328  -4.2030  0.00  0.00     0.000 O
BRANCH 97 104
ATOM    102   N  NAG B   7      16.372  -0.943  -0.7850  0.00  0.00     0.000 N
ATOM    104  HD  NAG B   7      16.650  -0.779   0.0180  0.00  0.00     0.000 HD
ATOM    104   O  NAG B   7      16.674   0.652   0.7930  0.00  0.00     0.000 OA
ATOM    105   C  NAG B   7      16.097   0.256  -0.2380  0.00  0.00     0.000 C
ATOM    106   C  NAG B   7      15.065   1.123  -0.8750  0.00  0.00     0.000 C
ENDBRANCH 97 104
ATOM    107   O  NAG B   7      15.405  -4.502  -6.1170  0.00  0.00     0.000 O
ATOM    109  HD  NAG B   7      15.937  -4.223  -5.4940  0.00  0.00     0.000 HD
ATOM    109   O  NAG B   7      15.405  -4.502  -6.1170  0.00  0.00     0.000 O
ATOM    111  HD  NAG B   7      15.937  -4.223  -5.4940  0.00  0.00     0.000 HD
ENDBRANCH 95 98
ENDBRANCH 82 95
ENDBRANCH 81 85
ENDBRANCH 65 81
ENDBRANCH 64 67
ENDBRANCH 51 64
ENDBRANCH 50 54
ENDBRANCH 34 50
ENDBRANCH 33 36
ENDBRANCH 20 33
ENDBRANCH 19 23
ENDBRANCH 1 19
TORSDOF 19
ENDMDL
MODEL 76
REMARK VINA RESULT:      -5.6     16.706     20.160
ROOT
ATOM      1  C1  NAG B   1       6.929  -7.849  17.9200  0.00  0.00     0.000 C
ATOM      2  C2  NAG B   1       6.411  -9.201  17.4380  0.00  0.00     0.000 C
ATOM      3  C3  NAG B   1       4.969  -9.430  17.8440  0.00  0.00     0.000 C
ATOM      4  C4  NAG B   1       4.949  -9.308  19.3640  0.00  0.00     0.000 C
ATOM      5  C5  NAG B   1       5.354  -7.882  19.7590  0.00  0.00     0.000 C
ATOM      6  O5  NAG B   1       6.692  -7.578  19.3100  0.00  0.00     0.000 O
ATOM      7   O  NAG B   1       4.484 -10.726  17.4240  0.00  0.00     0.000 O
ATOM      9  HD  NAG B   1       5.018 -10.509  16.7780  0.00  0.00     0.000 HD
ATOM      9   O  NAG B   1       3.651  -9.593  19.8590  0.00  0.00     0.000 O
ATOM     11  HD  NAG B   1       4.186  -9.376  19.2130  0.00  0.00     0.000 HD
ATOM     11   C  NAG B   1       5.208  -7.698  21.2750  0.00  0.00     0.000 C
ATOM     12   O  NAG B   1       6.129  -6.727  21.7700  0.00  0.00     0.000 O
ATOM     14  HD  NAG B   1       6.663  -6.510  21.1240  0.00  0.00     0.000 HD
ENDROOT
BRANCH 2 16
ATOM     14   N  NAG B   1       7.082 -10.296  16.7150  0.00  0.00     0.000 N
ATOM     16  HD  NAG B   1       6.938 -10.948  16.1630  0.00  0.00     0.000 HD
ATOM     16   C  NAG B   1       7.432 -10.216  15.4200  0.00  0.00     0.000 C
ATOM     17   C  NAG B   1       7.115  -8.973  14.6310  0.00  0.00     0.000 C
ATOM     18   O  NAG B   1       8.035 -11.133  14.8630  0.00  0.00     0.000 OA
ENDBRANCH 2 16
BRANCH 1 19
ATOM     19  O4  BDP B   2       8.338  -7.973  17.7800  0.00  0.00     0.000 O
BRANCH 19 23
ATOM     20  C1  BDP B   2       9.264  -4.118  18.8870  0.00  0.00     0.000 C
ATOM     21  C2  BDP B   2       8.861  -4.325  17.4410  0.00  0.00     0.000 C
ATOM     22  C3  BDP B   2       8.154  -5.648  17.2530  0.00  0.00     0.000 C
ATOM     23  C4  BDP B   2       9.040  -6.754  17.8210  0.00  0.00     0.000 C
ATOM     24  C5  BDP B   2       9.366  -6.445  19.2690  0.00  0.00     0.000 C
ATOM     25  O5  BDP B   2      10.050  -5.209  19.3470  0.00  0.00     0.000 O
ATOM     26   O  BDP B   2       8.024  -3.273  17.0110  0.00  0.00     0.000 O
ATOM     28  HD  BDP B   2       8.308  -2.951  17.7630  0.00  0.00     0.000 HD
ATOM     28   O  BDP B   2       7.876  -5.842  15.8580  0.00  0.00     0.000 O
ATOM     30  HD  BDP B   2       8.160  -5.520  16.6100  0.00  0.00     0.000 HD
BRANCH 24 30
ATOM     30   C  BDP B   2      10.239  -7.481  19.8810  0.00  0.00     0.000 C
ATOM     31   O  BDP B   2       9.779  -8.114  20.8600  0.00  0.00     0.000 OA
ATOM     32   O  BDP B   2      11.391  -7.662  19.3930  0.00  0.00     0.000 OA
ENDBRANCH 24 30
BRANCH 20 33
ATOM     33  O3  NAG B   3      10.058  -2.957  18.8560  0.00  0.00     0.000 O
BRANCH 33 36
ATOM     34  C1  NAG B   3       9.619   0.367  20.5610  0.00  0.00     0.000 C
ATOM     35  C2  NAG B   3       9.739  -0.624  19.4190  0.00  0.00     0.000 C
ATOM     36  C3  NAG B   3       9.741  -2.072  19.9330  0.00  0.00     0.000 C
ATOM     37  C4  NAG B   3      10.801  -2.220  21.0220  0.00  0.00     0.000 C
ATOM     38  C5  NAG B   3      10.638  -1.123  22.0710  0.00  0.00     0.000 C
ATOM     39  O5  NAG B   3      10.703   0.151  21.4530  0.00  0.00     0.000 O
ATOM     40   O  NAG B   3      10.682  -3.505  21.6520  0.00  0.00     0.000 O
ATOM     42  HD  NAG B   3      10.638  -3.014  22.3640  0.00  0.00     0.000 HD
ATOM     42   C  NAG B   3      11.737  -1.115  23.1310  0.00  0.00     0.000 C
ATOM     43   O  NAG B   3      12.990  -0.786  22.5190  0.00  0.00     0.000 O
ATOM     45  HD  NAG B   3      12.946  -0.295  23.2320  0.00  0.00     0.000 HD
BRANCH 35 47
ATOM     45   N  NAG B   3       9.885  -0.297  18.0060  0.00  0.00     0.000 N
ATOM     47  HD  NAG B   3      10.562  -0.738  18.3180  0.00  0.00     0.000 HD
ATOM     47   C  NAG B   3       8.877  -0.319  17.1570  0.00  0.00     0.000 C
ATOM     48   C  NAG B   3       9.204   0.024  15.7340  0.00  0.00     0.000 C
ATOM     49   O  NAG B   3       7.740  -0.630  17.5040  0.00  0.00     0.000 OA
ENDBRANCH 35 47
BRANCH 34 50
ATOM     50  O4  BDP B   4       9.746   1.623  19.9270  0.00  0.00     0.000 O
BRANCH 50 54
ATOM     51  C1  BDP B   4       8.589   5.523  20.0300  0.00  0.00     0.000 C
ATOM     52  C2  BDP B   4       9.563   5.123  21.1330  0.00  0.00     0.000 C
ATOM     53  C3  BDP B   4      10.187   3.811  20.7700  0.00  0.00     0.000 C
ATOM     54  C4  BDP B   4       9.074   2.756  20.5030  0.00  0.00     0.000 C
ATOM     55  C5  BDP B   4       8.007   3.269  19.5450  0.00  0.00     0.000 C
ATOM     56  O5  BDP B   4       7.555   4.559  19.9480  0.00  0.00     0.000 O
ATOM     57   O  BDP B   4      10.574   6.099  21.2710  0.00  0.00     0.000 O
ATOM     59  HD  BDP B   4      10.353   6.544  21.9800  0.00  0.00     0.000 HD
ATOM     59   O  BDP B   4      10.947   3.375  21.9160  0.00  0.00     0.000 O
ATOM     61  HD  BDP B   4      10.726   3.820  22.6250  0.00  0.00     0.000 HD
BRANCH 55 61
ATOM     61   C  BDP B   4       6.833   2.307  19.5420  0.00  0.00     0.000 C
ATOM     62   O  BDP B   4       6.444   1.845  20.6470  0.00  0.00     0.000 OA
ATOM     63   O  BDP B   4       6.299   2.016  18.4290  0.00  0.00     0.000 OA
ENDBRANCH 55 61
BRANCH 51 64
ATOM     64  O3  NAG B   5       8.057   6.815  20.3780  0.00  0.00     0.000 O
BRANCH 64 67
ATOM     65  C1  NAG B   5       8.247  10.099  18.7120  0.00  0.00     0.000 C
ATOM     66  C2  NAG B   5       8.503   9.028  19.7580  0.00  0.00     0.000 C
ATOM     67  C3  NAG B   5       7.974   7.686  19.2670  0.00  0.00     0.000 C
ATOM     68  C4  NAG B   5       6.512   7.802  18.8170  0.00  0.00     0.000 C
ATOM     69  C5  NAG B   5       6.339   8.957  17.8430  0.00  0.00     0.000 C
ATOM     70  O5  NAG B   5       6.871  10.161  18.4140  0.00  0.00     0.000 O
ATOM     71   O  NAG B   5       6.121   6.577  18.2320  0.00  0.00     0.000 O
ATOM     73  HD  NAG B   5       5.400   6.729  18.6880  0.00  0.00     0.000 HD
ATOM     73   C  NAG B   5       4.883   9.228  17.4360  0.00  0.00     0.000 C
ATOM     74   O  NAG B   5       4.126   9.637  18.5940  0.00  0.00     0.000 O
ATOM     76  HD  NAG B   5       3.405   9.788  19.0490  0.00  0.00     0.000 HD
BRANCH 66 78
ATOM     76   N  NAG B   5       9.951   9.172  19.9980  0.00  0.00     0.000 N
ATOM     78  HD  NAG B   5       9.226   9.155  20.4710  0.00  0.00     0.000 HD
ATOM     78   C  NAG B   5      10.563   9.119  21.1920  0.00  0.00     0.000 C
ATOM     79   C  NAG B   5      12.056   9.281  21.1090  0.00  0.00     0.000 C
ATOM     80   O  NAG B   5       9.933   8.956  22.2980  0.00  0.00     0.000 OA
ENDBRANCH 66 78
BRANCH 65 81
ATOM     81  O4  BDP B   6       8.700  11.372  19.1880  0.00  0.00     0.000 O
BRANCH 81 85
ATOM     82  C1  BDP B   6       9.552  15.318  17.7500  0.00  0.00     0.000 C
ATOM     83  C2  BDP B   6       8.087  14.898  17.8310  0.00  0.00     0.000 C
ATOM     84  C3  BDP B   6       7.869  13.669  18.7180  0.00  0.00     0.000 C
ATOM     85  C4  BDP B   6       8.796  12.514  18.3340  0.00  0.00     0.000 C
ATOM     86  C5  BDP B   6      10.238  13.069  18.2500  0.00  0.00     0.000 C
ATOM     87  O5  BDP B   6      10.332  14.207  17.3340  0.00  0.00     0.000 O
ATOM     88   O  BDP B   6       7.401  16.016  18.3890  0.00  0.00     0.000 O
ATOM     90  HD  BDP B   6       6.782  16.199  18.9660  0.00  0.00     0.000 HD
ATOM     90   O  BDP B   6       6.498  13.268  18.6540  0.00  0.00     0.000 O
ATOM     92  HD  BDP B   6       5.879  13.451  19.2310  0.00  0.00     0.000 HD
BRANCH 86 92
ATOM     92   C  BDP B   6      11.166  12.044  17.6470  0.00  0.00     0.000 C
ATOM     93   O  BDP B   6      11.753  11.211  18.4030  0.00  0.00     0.000 OA
ATOM     94   O  BDP B   6      11.303  12.047  16.3840  0.00  0.00     0.000 OA
ENDBRANCH 86 92
BRANCH 82 95
ATOM     95  O3  NAG B   7       9.674  16.346  16.7470  0.00  0.00     0.000 O
BRANCH 95 98
ATOM     96  C1  NAG B   7      11.744  19.353  16.6440  0.00  0.00     0.000 C
ATOM     97  C2  NAG B   7      10.447  18.555  16.6680  0.00  0.00     0.000 C
ATOM     98  C3  NAG B   7      10.887  17.092  16.6610  0.00  0.00     0.000 C
ATOM     99  C4  NAG B   7      11.700  16.801  15.4020  0.00  0.00     0.000 C
ATOM    100  C5  NAG B   7      12.865  17.781  15.2650  0.00  0.00     0.000 C
ATOM    101  O5  NAG B   7      12.368  19.106  15.3790  0.00  0.00     0.000 O
BRANCH 97 104
ATOM    102   N  NAG B   7       9.551  18.549  17.8320  0.00  0.00     0.000 N
ATOM    104  HD  NAG B   7       8.997  18.294  18.4460  0.00  0.00     0.000 HD
ATOM    104   O  NAG B   7       7.742  19.125  19.0680  0.00  0.00     0.000 OA
ATOM    105   C  NAG B   7       8.442  19.282  18.0480  0.00  0.00     0.000 C
ATOM    106   C  NAG B   7       8.035  20.296  17.0340  0.00  0.00     0.000 C
ENDBRANCH 97 104
ATOM    107   O  NAG B   7      14.790  18.269  14.0150  0.00  0.00     0.000 O
ATOM    109  HD  NAG B   7      14.447  18.254  14.8100  0.00  0.00     0.000 HD
ATOM    109   O  NAG B   7      14.790  18.269  14.0150  0.00  0.00     0.000 O
ATOM    111  HD  NAG B   7      14.447  18.254  14.8100  0.00  0.00     0.000 HD
ENDBRANCH 95 98
ENDBRANCH 82 95
ENDBRANCH 81 85
ENDBRANCH 65 81
ENDBRANCH 64 67
ENDBRANCH 51 64
ENDBRANCH 50 54
ENDBRANCH 34 50
ENDBRANCH 33 36
ENDBRANCH 20 33
ENDBRANCH 19 23
ENDBRANCH 1 19
TORSDOF 19
ENDMDL
MODEL 77
REMARK VINA RESULT:      -5.5      9.925     16.270
ROOT
ATOM      1  C1  NAG B   1       7.197   3.272  23.4730  0.00  0.00     0.000 C
ATOM      2  C2  NAG B   1       7.112   2.955  24.9640  0.00  0.00     0.000 C
ATOM      3  C3  NAG B   1       7.591   4.113  25.8150  0.00  0.00     0.000 C
ATOM      4  C4  NAG B   1       9.021   4.389  25.3600  0.00  0.00     0.000 C
ATOM      5  C5  NAG B   1       9.004   4.828  23.8900  0.00  0.00     0.000 C
ATOM      6  O5  NAG B   1       8.465   3.791  23.0430  0.00  0.00     0.000 O
ATOM      7   O  NAG B   1       7.550   3.806  27.2270  0.00  0.00     0.000 O
ATOM      9  HD  NAG B   1       6.859   3.380  26.9230  0.00  0.00     0.000 HD
ATOM      9   O  NAG B   1       9.599   5.408  26.1590  0.00  0.00     0.000 O
ATOM     11  HD  NAG B   1       8.908   4.983  25.8550  0.00  0.00     0.000 HD
ATOM     11   C  NAG B   1      10.415   5.243  23.4520  0.00  0.00     0.000 C
ATOM     12   O  NAG B   1      10.609   5.024  22.0560  0.00  0.00     0.000 O
ATOM     14  HD  NAG B   1       9.918   4.598  21.7520  0.00  0.00     0.000 HD
ENDROOT
BRANCH 2 16
ATOM     14   N  NAG B   1       5.741   2.420  25.0500  0.00  0.00     0.000 N
ATOM     16  HD  NAG B   1       5.215   1.816  24.7220  0.00  0.00     0.000 HD
ATOM     16   C  NAG B   1       5.428   1.307  25.7360  0.00  0.00     0.000 C
ATOM     17   C  NAG B   1       6.509   0.529  26.4390  0.00  0.00     0.000 C
ATOM     18   O  NAG B   1       4.264   0.919  25.8270  0.00  0.00     0.000 OA
ENDBRANCH 2 16
BRANCH 1 19
ATOM     19  O4  BDP B   2       7.070   1.995  22.8630  0.00  0.00     0.000 O
BRANCH 19 23
ATOM     20  C1  BDP B   2       9.373  -0.334  20.3700  0.00  0.00     0.000 C
ATOM     21  C2  BDP B   2       9.936  -0.066  21.7510  0.00  0.00     0.000 C
ATOM     22  C3  BDP B   2       8.860   0.419  22.6960  0.00  0.00     0.000 C
ATOM     23  C4  BDP B   2       8.163   1.618  22.0600  0.00  0.00     0.000 C
ATOM     24  C5  BDP B   2       7.634   1.228  20.6940  0.00  0.00     0.000 C
ATOM     25  O5  BDP B   2       8.708   0.817  19.8700  0.00  0.00     0.000 O
ATOM     26   O  BDP B   2      10.535  -1.233  22.2710  0.00  0.00     0.000 O
ATOM     28  HD  BDP B   2      10.418  -1.470  21.4460  0.00  0.00     0.000 HD
ATOM     28   O  BDP B   2       9.455   0.749  23.9610  0.00  0.00     0.000 O
ATOM     30  HD  BDP B   2       9.338   0.512  23.1370  0.00  0.00     0.000 HD
BRANCH 24 30
ATOM     30   C  BDP B   2       6.950   2.359  20.0120  0.00  0.00     0.000 C
ATOM     31   O  BDP B   2       7.640   3.370  19.7460  0.00  0.00     0.000 OA
ATOM     32   O  BDP B   2       5.720   2.245  19.7470  0.00  0.00     0.000 OA
ENDBRANCH 24 30
BRANCH 20 33
ATOM     33  O3  NAG B   3      10.511  -0.589  19.5830  0.00  0.00     0.000 O
BRANCH 33 36
ATOM     34  C1  NAG B   3      10.273  -2.731  16.5000  0.00  0.00     0.000 C
ATOM     35  C2  NAG B   3      10.427  -2.393  17.9710  0.00  0.00     0.000 C
ATOM     36  C3  NAG B   3      10.161  -0.903  18.2330  0.00  0.00     0.000 C
ATOM     37  C4  NAG B   3      11.019  -0.063  17.2910  0.00  0.00     0.000 C
ATOM     38  C5  NAG B   3      10.852  -0.543  15.8520  0.00  0.00     0.000 C
ATOM     39  O5  NAG B   3      11.175  -1.920  15.7620  0.00  0.00     0.000 O
ATOM     40   O  NAG B   3      10.638   1.319  17.3810  0.00  0.00     0.000 O
ATOM     42  HD  NAG B   3      10.556   1.224  16.5240  0.00  0.00     0.000 HD
ATOM     42   C  NAG B   3      11.774   0.156  14.8570  0.00  0.00     0.000 C
ATOM     43   O  NAG B   3      13.136  -0.180  15.1470  0.00  0.00     0.000 O
ATOM     45  HD  NAG B   3      13.053  -0.275  14.2900  0.00  0.00     0.000 HD
BRANCH 35 47
ATOM     45   N  NAG B   3       9.607  -3.365  18.6840  0.00  0.00     0.000 N
ATOM     47  HD  NAG B   3       9.594  -3.483  17.8260  0.00  0.00     0.000 HD
ATOM     47   C  NAG B   3       9.956  -3.885  19.8430  0.00  0.00     0.000 C
ATOM     48   C  NAG B   3       9.006  -4.886  20.4310  0.00  0.00     0.000 C
ATOM     49   O  NAG B   3      11.011  -3.588  20.3990  0.00  0.00     0.000 OA
ENDBRANCH 35 47
BRANCH 34 50
ATOM     50  O4  BDP B   4      10.658  -4.088  16.4270  0.00  0.00     0.000 O
BRANCH 50 54
ATOM     51  C1  BDP B   4      10.314  -7.510  14.2540  0.00  0.00     0.000 C
ATOM     52  C2  BDP B   4      11.300  -6.497  13.6850  0.00  0.00     0.000 C
ATOM     53  C3  BDP B   4      11.610  -5.482  14.7420  0.00  0.00     0.000 C
ATOM     54  C4  BDP B   4      10.289  -4.848  15.2640  0.00  0.00     0.000 C
ATOM     55  C5  BDP B   4       9.250  -5.897  15.6370  0.00  0.00     0.000 C
ATOM     56  O5  BDP B   4       9.107  -6.851  14.5890  0.00  0.00     0.000 O
ATOM     57   O  BDP B   4      12.493  -7.141  13.2910  0.00  0.00     0.000 O
ATOM     59  HD  BDP B   4      12.440  -7.191  12.4280  0.00  0.00     0.000 HD
ATOM     59   O  BDP B   4      12.385  -4.442  14.1120  0.00  0.00     0.000 O
ATOM     61  HD  BDP B   4      12.331  -4.491  13.2490  0.00  0.00     0.000 HD
BRANCH 55 61
ATOM     61   C  BDP B   4       7.915  -5.216  15.8780  0.00  0.00     0.000 C
ATOM     62   O  BDP B   4       7.271  -4.807  14.8770  0.00  0.00     0.000 OA
ATOM     63   O  BDP B   4       7.510  -5.092  17.0750  0.00  0.00     0.000 OA
ENDBRANCH 55 61
BRANCH 51 64
ATOM     64  O3  NAG B   5      10.088  -8.505  13.2370  0.00  0.00     0.000 O
BRANCH 64 67
ATOM     65  C1  NAG B   5       9.340 -12.022  14.0490  0.00  0.00     0.000 C
ATOM     66  C2  NAG B   5      10.171 -10.776  13.7970  0.00  0.00     0.000 C
ATOM     67  C3  NAG B   5       9.259  -9.560  13.6820  0.00  0.00     0.000 C
ATOM     68  C4  NAG B   5       8.145  -9.803  12.6550  0.00  0.00     0.000 C
ATOM     69  C5  NAG B   5       7.433 -11.117  12.9350  0.00  0.00     0.000 C
ATOM     70  O5  NAG B   5       8.390 -12.183  13.0220  0.00  0.00     0.000 O
ATOM     71   O  NAG B   5       7.246  -8.715  12.6980  0.00  0.00     0.000 O
ATOM     73  HD  NAG B   5       7.282  -8.808  11.8380  0.00  0.00     0.000 HD
ATOM     73   C  NAG B   5       6.385 -11.505  11.8820  0.00  0.00     0.000 C
ATOM     74   O  NAG B   5       7.034 -11.729  10.6130  0.00  0.00     0.000 O
ATOM     76  HD  NAG B   5       7.069 -11.821   9.7530  0.00  0.00     0.000 HD
BRANCH 66 78
ATOM     76   N  NAG B   5      11.136 -10.779  14.9130  0.00  0.00     0.000 N
ATOM     78  HD  NAG B   5      11.163 -10.763  14.0480  0.00  0.00     0.000 HD
ATOM     78   C  NAG B   5      12.454 -10.542  14.8170  0.00  0.00     0.000 C
ATOM     79   C  NAG B   5      13.172 -10.599  16.1380  0.00  0.00     0.000 C
ATOM     80   O  NAG B   5      13.046 -10.300  13.7050  0.00  0.00     0.000 OA
ENDBRANCH 66 78
BRANCH 65 81
ATOM     81  O4  BDP B   6      10.189 -13.176  14.1120  0.00  0.00     0.000 O
BRANCH 81 85
ATOM     82  C1  BDP B   6      10.219 -17.141  15.7360  0.00  0.00     0.000 C
ATOM     83  C2  BDP B   6       8.979 -16.706  14.9610  0.00  0.00     0.000 C
ATOM     84  C3  BDP B   6       9.223 -15.468  14.0940  0.00  0.00     0.000 C
ATOM     85  C4  BDP B   6       9.854 -14.325  14.8930  0.00  0.00     0.000 C
ATOM     86  C5  BDP B   6      11.072 -14.895  15.6580  0.00  0.00     0.000 C
ATOM     87  O5  BDP B   6      10.706 -16.041  16.4920  0.00  0.00     0.000 O
ATOM     88   O  BDP B   6       8.643 -17.812  14.1290  0.00  0.00     0.000 O
ATOM     90  HD  BDP B   6       8.380 -17.985  13.3220  0.00  0.00     0.000 HD
ATOM     90   O  BDP B   6       7.994 -15.054  13.4920  0.00  0.00     0.000 O
ATOM     92  HD  BDP B   6       7.731 -15.226  12.6850  0.00  0.00     0.000 HD
BRANCH 86 92
ATOM     92   C  BDP B   6      11.598 -13.883  16.6470  0.00  0.00     0.000 C
ATOM     93   O  BDP B   6      12.844 -13.822  16.8750  0.00  0.00     0.000 OA
ATOM     94   O  BDP B   6      10.754 -13.111  17.1990  0.00  0.00     0.000 OA
ENDBRANCH 86 92
BRANCH 82 95
ATOM     95  O3  NAG B   7       9.836 -18.178  16.6610  0.00  0.00     0.000 O
BRANCH 95 98
ATOM     96  C1  NAG B   7      10.984 -21.537  17.5210  0.00  0.00     0.000 C
ATOM     97  C2  NAG B   7       9.963 -20.451  17.2080  0.00  0.00     0.000 C
ATOM     98  C3  NAG B   7      10.787 -19.180  17.0160  0.00  0.00     0.000 C
ATOM     99  C4  NAG B   7      11.564 -18.866  18.2920  0.00  0.00     0.000 C
ATOM    100  C5  NAG B   7      12.402 -20.068  18.7310  0.00  0.00     0.000 C
ATOM    101  O5  NAG B   7      11.567 -21.215  18.7890  0.00  0.00     0.000 O
BRANCH 97 104
ATOM    102   N  NAG B   7       9.208 -20.611  15.9580  0.00  0.00     0.000 N
ATOM    104  HD  NAG B   7       8.886 -20.480  15.1650  0.00  0.00     0.000 HD
ATOM    104   O  NAG B   7       7.371 -20.764  14.6420  0.00  0.00     0.000 OA
ATOM    105   C  NAG B   7       7.875 -20.687  15.7800  0.00  0.00     0.000 C
ATOM    106   C  NAG B   7       6.982 -20.664  16.9730  0.00  0.00     0.000 C
ENDBRANCH 97 104
ATOM    107   O  NAG B   7      14.031 -20.780  20.2620  0.00  0.00     0.000 O
ATOM    109  HD  NAG B   7      13.758 -20.834  19.4420  0.00  0.00     0.000 HD
ATOM    109   O  NAG B   7      14.031 -20.780  20.2620  0.00  0.00     0.000 O
ATOM    111  HD  NAG B   7      13.758 -20.834  19.4420  0.00  0.00     0.000 HD
ENDBRANCH 95 98
ENDBRANCH 82 95
ENDBRANCH 81 85
ENDBRANCH 65 81
ENDBRANCH 64 67
ENDBRANCH 51 64
ENDBRANCH 50 54
ENDBRANCH 34 50
ENDBRANCH 33 36
ENDBRANCH 20 33
ENDBRANCH 19 23
ENDBRANCH 1 19
TORSDOF 19
ENDMDL
MODEL 78
REMARK VINA RESULT:      -5.5     10.700     18.659
ROOT
ATOM      1  C1  NAG B   1      12.314   7.984  13.6740  0.00  0.00     0.000 C
ATOM      2  C2  NAG B   1      11.793   8.307  12.2770  0.00  0.00     0.000 C
ATOM      3  C3  NAG B   1      11.176   9.689  12.2090  0.00  0.00     0.000 C
ATOM      4  C4  NAG B   1      10.068   9.693  13.2580  0.00  0.00     0.000 C
ATOM      5  C5  NAG B   1      10.689   9.494  14.6470  0.00  0.00     0.000 C
ATOM      6  O5  NAG B   1      11.375   8.227  14.7340  0.00  0.00     0.000 O
ATOM      7   O  NAG B   1      10.645   9.986  10.8980  0.00  0.00     0.000 O
ATOM      9  HD  NAG B   1      11.341   9.505  10.7130  0.00  0.00     0.000 HD
ATOM      9   O  NAG B   1       9.363  10.922  13.2190  0.00  0.00     0.000 O
ATOM     11  HD  NAG B   1      10.059  10.441  13.0340  0.00  0.00     0.000 HD
ATOM     11   C  NAG B   1       9.610   9.632  15.7280  0.00  0.00     0.000 C
ATOM     12   O  NAG B   1       9.929   8.854  16.8800  0.00  0.00     0.000 O
ATOM     14  HD  NAG B   1      10.625   8.373  16.6950  0.00  0.00     0.000 HD
ENDROOT
BRANCH 2 16
ATOM     14   N  NAG B   1      12.919   8.047  11.3630  0.00  0.00     0.000 N
ATOM     16  HD  NAG B   1      13.552   7.481  11.1930  0.00  0.00     0.000 HD
ATOM     16   C  NAG B   1      12.845   7.193  10.3280  0.00  0.00     0.000 C
ATOM     17   C  NAG B   1      11.573   6.427  10.0760  0.00  0.00     0.000 C
ATOM     18   O  NAG B   1      13.791   7.039   9.5570  0.00  0.00     0.000 OA
ENDBRANCH 2 16
BRANCH 1 19
ATOM     19  O4  BDP B   2      12.501   6.576  13.6330  0.00  0.00     0.000 O
BRANCH 19 23
ATOM     20  C1  BDP B   2      11.124   3.356  15.7960  0.00  0.00     0.000 C
ATOM     21  C2  BDP B   2      10.147   3.978  14.8180  0.00  0.00     0.000 C
ATOM     22  C3  BDP B   2      10.862   4.845  13.8060  0.00  0.00     0.000 C
ATOM     23  C4  BDP B   2      11.725   5.854  14.5580  0.00  0.00     0.000 C
ATOM     24  C5  BDP B   2      12.665   5.118  15.4920  0.00  0.00     0.000 C
ATOM     25  O5  BDP B   2      11.913   4.359  16.4200  0.00  0.00     0.000 O
ATOM     26   O  BDP B   2       9.415   2.973  14.1510  0.00  0.00     0.000 O
ATOM     28  HD  BDP B   2       9.791   2.506  14.7760  0.00  0.00     0.000 HD
ATOM     28   O  BDP B   2       9.892   5.486  12.9630  0.00  0.00     0.000 O
ATOM     30  HD  BDP B   2      10.268   5.018  13.5880  0.00  0.00     0.000 HD
BRANCH 24 30
ATOM     30   C  BDP B   2      13.529   6.047  16.2670  0.00  0.00     0.000 C
ATOM     31   O  BDP B   2      12.977   6.742  17.1510  0.00  0.00     0.000 OA
ATOM     32   O  BDP B   2      14.762   6.093  15.9910  0.00  0.00     0.000 OA
ENDBRANCH 24 30
BRANCH 20 33
ATOM     33  O3  NAG B   3      10.299   2.749  16.7600  0.00  0.00     0.000 O
BRANCH 33 36
ATOM     34  C1  NAG B   3      11.573   0.196  19.2110  0.00  0.00     0.000 C
ATOM     35  C2  NAG B   3      10.967   0.738  17.9310  0.00  0.00     0.000 C
ATOM     36  C3  NAG B   3      11.055   2.271  17.8760  0.00  0.00     0.000 C
ATOM     37  C4  NAG B   3      10.468   2.857  19.1580  0.00  0.00     0.000 C
ATOM     38  C5  NAG B   3      11.086   2.181  20.3790  0.00  0.00     0.000 C
ATOM     39  O5  NAG B   3      10.886   0.779  20.3090  0.00  0.00     0.000 O
ATOM     40   O  NAG B   3      10.722   4.269  19.2140  0.00  0.00     0.000 O
ATOM     42  HD  NAG B   3      11.062   4.052  19.9800  0.00  0.00     0.000 HD
ATOM     42   C  NAG B   3      10.463   2.613  21.7050  0.00  0.00     0.000 C
ATOM     43   O  NAG B   3       9.099   2.179  21.7570  0.00  0.00     0.000 O
ATOM     45  HD  NAG B   3       9.439   1.962  22.5240  0.00  0.00     0.000 HD
BRANCH 35 47
ATOM     45   N  NAG B   3      11.614   0.086  16.7990  0.00  0.00     0.000 N
ATOM     47  HD  NAG B   3      11.987  -0.111  17.5550  0.00  0.00     0.000 HD
ATOM     47   C  NAG B   3      10.946  -0.386  15.7650  0.00  0.00     0.000 C
ATOM     48   C  NAG B   3      11.764  -1.046  14.6950  0.00  0.00     0.000 C
ATOM     49   O  NAG B   3       9.721  -0.315  15.6940  0.00  0.00     0.000 OA
ENDBRANCH 35 47
BRANCH 34 50
ATOM     50  O4  BDP B   4      11.308  -1.190  19.1460  0.00  0.00     0.000 O
BRANCH 50 54
ATOM     51  C1  BDP B   4      12.609  -4.858  20.3310  0.00  0.00     0.000 C
ATOM     52  C2  BDP B   4      11.811  -4.099  21.3860  0.00  0.00     0.000 C
ATOM     53  C3  BDP B   4      11.089  -2.969  20.7200  0.00  0.00     0.000 C
ATOM     54  C4  BDP B   4      12.105  -2.082  19.9430  0.00  0.00     0.000 C
ATOM     55  C5  BDP B   4      13.022  -2.902  19.0450  0.00  0.00     0.000 C
ATOM     56  O5  BDP B   4      13.580  -3.995  19.7690  0.00  0.00     0.000 O
ATOM     57   O  BDP B   4      10.872  -4.956  22.0000  0.00  0.00     0.000 O
ATOM     59  HD  BDP B   4      11.222  -5.146  22.7700  0.00  0.00     0.000 HD
ATOM     59   O  BDP B   4      10.509  -2.166  21.7670  0.00  0.00     0.000 O
ATOM     61  HD  BDP B   4      10.858  -2.356  22.5370  0.00  0.00     0.000 HD
BRANCH 55 61
ATOM     61   C  BDP B   4      14.144  -2.017  18.5330  0.00  0.00     0.000 C
ATOM     62   O  BDP B   4      15.059  -1.698  19.3370  0.00  0.00     0.000 OA
ATOM     63   O  BDP B   4      14.108  -1.643  17.3210  0.00  0.00     0.000 OA
ENDBRANCH 55 61
BRANCH 51 64
ATOM     64  O3  NAG B   5      13.237  -5.974  20.9910  0.00  0.00     0.000 O
BRANCH 64 67
ATOM     65  C1  NAG B   5      13.582  -9.263  19.3610  0.00  0.00     0.000 C
ATOM     66  C2  NAG B   5      12.927  -8.128  20.1300  0.00  0.00     0.000 C
ATOM     67  C3  NAG B   5      13.814  -6.890  20.0820  0.00  0.00     0.000 C
ATOM     68  C4  NAG B   5      15.245  -7.220  20.5270  0.00  0.00     0.000 C
ATOM     69  C5  NAG B   5      15.780  -8.424  19.7690  0.00  0.00     0.000 C
ATOM     70  O5  NAG B   5      14.864  -9.522  19.8860  0.00  0.00     0.000 O
ATOM     71   O  NAG B   5      16.056  -6.083  20.3190  0.00  0.00     0.000 O
ATOM     73  HD  NAG B   5      16.367  -6.313  21.0940  0.00  0.00     0.000 HD
ATOM     73   C  NAG B   5      17.160  -8.906  20.2390  0.00  0.00     0.000 C
ATOM     74   O  NAG B   5      17.072  -9.369  21.6020  0.00  0.00     0.000 O
ATOM     76  HD  NAG B   5      17.383  -9.599  22.3770  0.00  0.00     0.000 HD
BRANCH 66 78
ATOM     76   N  NAG B   5      11.574  -8.343  20.6770  0.00  0.00     0.000 N
ATOM     78  HD  NAG B   5      11.944  -7.850  20.0690  0.00  0.00     0.000 HD
ATOM     78   C  NAG B   5      10.427  -7.883  20.1510  0.00  0.00     0.000 C
ATOM     79   C  NAG B   5       9.205  -8.286  20.9310  0.00  0.00     0.000 C
ATOM     80   O  NAG B   5      10.379  -7.162  19.0910  0.00  0.00     0.000 OA
ENDBRANCH 66 78
BRANCH 65 81
ATOM     81  O4  BDP B   6      12.773 -10.444  19.4430  0.00  0.00     0.000 O
BRANCH 81 85
ATOM     82  C1  BDP B   6      11.652 -13.847  17.0930  0.00  0.00     0.000 C
ATOM     83  C2  BDP B   6      13.118 -13.723  17.4990  0.00  0.00     0.000 C
ATOM     84  C3  BDP B   6      13.335 -12.733  18.6470  0.00  0.00     0.000 C
ATOM     85  C4  BDP B   6      12.681 -11.378  18.3650  0.00  0.00     0.000 C
ATOM     86  C5  BDP B   6      11.219 -11.637  17.9310  0.00  0.00     0.000 C
ATOM     87  O5  BDP B   6      11.141 -12.556  16.7950  0.00  0.00     0.000 O
ATOM     88   O  BDP B   6      13.509 -15.028  17.9160  0.00  0.00     0.000 O
ATOM     90  HD  BDP B   6      13.969 -15.421  18.5360  0.00  0.00     0.000 HD
ATOM     90   O  BDP B   6      14.735 -12.584  18.8940  0.00  0.00     0.000 O
ATOM     92  HD  BDP B   6      15.195 -12.977  19.5130  0.00  0.00     0.000 HD
BRANCH 86 92
ATOM     92   C  BDP B   6      10.588 -10.368  17.4110  0.00  0.00     0.000 C
ATOM     93   O  BDP B   6       9.339 -10.193  17.5400  0.00  0.00     0.000 OA
ATOM     94   O  BDP B   6      11.356  -9.507  16.8780  0.00  0.00     0.000 OA
ENDBRANCH 86 92
BRANCH 82 95
ATOM     95  O3  NAG B   7      11.580 -14.640  15.8910  0.00  0.00     0.000 O
BRANCH 95 98
ATOM     96  C1  NAG B   7       9.949 -17.737  14.8480  0.00  0.00     0.000 C
ATOM     97  C2  NAG B   7      11.091 -16.736  14.9700  0.00  0.00     0.000 C
ATOM     98  C3  NAG B   7      10.494 -15.549  15.7220  0.00  0.00     0.000 C
ATOM     99  C4  NAG B   7       9.325 -14.968  14.9300  0.00  0.00     0.000 C
ATOM    100  C5  NAG B   7       8.297 -16.052  14.6000  0.00  0.00     0.000 C
ATOM    101  O5  NAG B   7       8.963 -17.148  13.9920  0.00  0.00     0.000 O
BRANCH 97 104
ATOM    102   N  NAG B   7      12.246 -17.134  15.7870  0.00  0.00     0.000 N
ATOM    104  HD  NAG B   7      12.858 -17.150  16.3990  0.00  0.00     0.000 HD
ATOM    104   O  NAG B   7      14.420 -17.582  16.2370  0.00  0.00     0.000 OA
ATOM    105   C  NAG B   7      13.530 -17.296  15.4130  0.00  0.00     0.000 C
ATOM    106   C  NAG B   7      13.895 -17.114  13.9790  0.00  0.00     0.000 C
ENDBRANCH 97 104
ATOM    107   O  NAG B   7       6.168 -16.425  13.6870  0.00  0.00     0.000 O
ATOM    109  HD  NAG B   7       6.721 -16.656  14.3120  0.00  0.00     0.000 HD
ATOM    109   O  NAG B   7       6.168 -16.425  13.6870  0.00  0.00     0.000 O
ATOM    111  HD  NAG B   7       6.721 -16.656  14.3120  0.00  0.00     0.000 HD
ENDBRANCH 95 98
ENDBRANCH 82 95
ENDBRANCH 81 85
ENDBRANCH 65 81
ENDBRANCH 64 67
ENDBRANCH 51 64
ENDBRANCH 50 54
ENDBRANCH 34 50
ENDBRANCH 33 36
ENDBRANCH 20 33
ENDBRANCH 19 23
ENDBRANCH 1 19
TORSDOF 19
ENDMDL
MODEL 79
REMARK VINA RESULT:      -5.5     10.930     21.261
ROOT
ATOM      1  C1  NAG B   1      12.151   8.814  14.5540  0.00  0.00     0.000 C
ATOM      2  C2  NAG B   1      11.705   9.640  13.3500  0.00  0.00     0.000 C
ATOM      3  C3  NAG B   1      12.264  11.047  13.3930  0.00  0.00     0.000 C
ATOM      4  C4  NAG B   1      11.782  11.638  14.7140  0.00  0.00     0.000 C
ATOM      5  C5  NAG B   1      12.380  10.831  15.8740  0.00  0.00     0.000 C
ATOM      6  O5  NAG B   1      11.953   9.453  15.8250  0.00  0.00     0.000 O
ATOM      7   O  NAG B   1      11.814  11.847  12.2760  0.00  0.00     0.000 O
ATOM      9  HD  NAG B   1      11.888  11.059  11.9240  0.00  0.00     0.000 HD
ATOM      9   O  NAG B   1      12.180  12.994  14.8160  0.00  0.00     0.000 O
ATOM     11  HD  NAG B   1      12.255  12.207  14.4640  0.00  0.00     0.000 HD
ATOM     11   C  NAG B   1      12.019  11.490  17.2110  0.00  0.00     0.000 C
ATOM     12   O  NAG B   1      11.950  10.527  18.2610  0.00  0.00     0.000 O
ATOM     14  HD  NAG B   1      12.024   9.740  17.9090  0.00  0.00     0.000 HD
ENDROOT
BRANCH 2 16
ATOM     14   N  NAG B   1      11.377   8.436  12.5650  0.00  0.00     0.000 N
ATOM     16  HD  NAG B   1      10.716   8.005  12.2080  0.00  0.00     0.000 HD
ATOM     16   C  NAG B   1      11.147   8.463  11.2410  0.00  0.00     0.000 C
ATOM     17   C  NAG B   1      11.194   9.771  10.4960  0.00  0.00     0.000 C
ATOM     18   O  NAG B   1      10.925   7.430  10.6100  0.00  0.00     0.000 OA
ENDBRANCH 2 16
BRANCH 1 19
ATOM     19  O4  BDP B   2      11.264   7.704  14.5320  0.00  0.00     0.000 O
BRANCH 19 23
ATOM     20  C1  BDP B   2      11.266   3.941  16.2010  0.00  0.00     0.000 C
ATOM     21  C2  BDP B   2      10.738   5.064  17.0710  0.00  0.00     0.000 C
ATOM     22  C3  BDP B   2      10.393   6.282  16.2450  0.00  0.00     0.000 C
ATOM     23  C4  BDP B   2      11.612   6.658  15.4070  0.00  0.00     0.000 C
ATOM     24  C5  BDP B   2      12.039   5.466  14.5740  0.00  0.00     0.000 C
ATOM     25  O5  BDP B   2      12.370   4.387  15.4260  0.00  0.00     0.000 O
ATOM     26   O  BDP B   2       9.599   4.635  17.7860  0.00  0.00     0.000 O
ATOM     28  HD  BDP B   2       9.887   3.878  17.4790  0.00  0.00     0.000 HD
ATOM     28   O  BDP B   2       9.989   7.347  17.1190  0.00  0.00     0.000 O
ATOM     30  HD  BDP B   2      10.276   6.590  16.8120  0.00  0.00     0.000 HD
BRANCH 24 30
ATOM     30   C  BDP B   2      13.233   5.763  13.7390  0.00  0.00     0.000 C
ATOM     31   O  BDP B   2      13.082   5.751  12.4960  0.00  0.00     0.000 OA
ATOM     32   O  BDP B   2      14.330   6.002  14.3220  0.00  0.00     0.000 OA
ENDBRANCH 24 30
BRANCH 20 33
ATOM     33  O3  NAG B   3      11.707   2.975  17.1220  0.00  0.00     0.000 O
BRANCH 33 36
ATOM     34  C1  NAG B   3      11.249  -0.745  16.8000  0.00  0.00     0.000 C
ATOM     35  C2  NAG B   3      10.977   0.671  17.2710  0.00  0.00     0.000 C
ATOM     36  C3  NAG B   3      11.845   1.688  16.5140  0.00  0.00     0.000 C
ATOM     37  C4  NAG B   3      13.308   1.259  16.5910  0.00  0.00     0.000 C
ATOM     38  C5  NAG B   3      13.454  -0.203  16.1780  0.00  0.00     0.000 C
ATOM     39  O5  NAG B   3      12.629  -1.019  16.9920  0.00  0.00     0.000 O
ATOM     40   O  NAG B   3      14.107   2.082  15.7260  0.00  0.00     0.000 O
ATOM     42  HD  NAG B   3      14.345   1.309  15.4160  0.00  0.00     0.000 HD
ATOM     42   C  NAG B   3      14.867  -0.755  16.3490  0.00  0.00     0.000 C
ATOM     43   O  NAG B   3      15.205  -0.783  17.7410  0.00  0.00     0.000 O
ATOM     45  HD  NAG B   3      15.443  -1.556  17.4310  0.00  0.00     0.000 HD
BRANCH 35 47
ATOM     45   N  NAG B   3       9.983   0.895  18.3130  0.00  0.00     0.000 N
ATOM     47  HD  NAG B   3      10.795   0.974  18.6040  0.00  0.00     0.000 HD
ATOM     47   C  NAG B   3       8.845   1.525  18.0950  0.00  0.00     0.000 C
ATOM     48   C  NAG B   3       7.943   1.689  19.2830  0.00  0.00     0.000 C
ATOM     49   O  NAG B   3       8.551   1.975  16.9900  0.00  0.00     0.000 OA
ENDBRANCH 35 47
BRANCH 34 50
ATOM     50  O4  BDP B   4      10.464  -1.541  17.6640  0.00  0.00     0.000 O
BRANCH 50 54
ATOM     51  C1  BDP B   4       8.881  -5.245  18.2350  0.00  0.00     0.000 C
ATOM     52  C2  BDP B   4      10.403  -5.216  18.1390  0.00  0.00     0.000 C
ATOM     53  C3  BDP B   4      10.867  -3.802  18.3080  0.00  0.00     0.000 C
ATOM     54  C4  BDP B   4      10.155  -2.888  17.2690  0.00  0.00     0.000 C
ATOM     55  C5  BDP B   4       8.646  -3.092  17.2550  0.00  0.00     0.000 C
ATOM     56  O5  BDP B   4       8.332  -4.479  17.1780  0.00  0.00     0.000 O
ATOM     57   O  BDP B   4      10.972  -6.019  19.1510  0.00  0.00     0.000 O
ATOM     59  HD  BDP B   4      11.216  -6.743  18.7440  0.00  0.00     0.000 HD
ATOM     59   O  BDP B   4      12.280  -3.786  18.0200  0.00  0.00     0.000 O
ATOM     61  HD  BDP B   4      12.524  -4.510  17.6130  0.00  0.00     0.000 HD
BRANCH 55 61
ATOM     61   C  BDP B   4       8.056  -2.378  16.0520  0.00  0.00     0.000 C
ATOM     62   O  BDP B   4       7.755  -1.162  16.1760  0.00  0.00     0.000 OA
ATOM     63   O  BDP B   4       7.895  -3.039  14.9810  0.00  0.00     0.000 OA
ENDBRANCH 55 61
BRANCH 51 64
ATOM     64  O3  NAG B   5       8.474  -6.623  18.1330  0.00  0.00     0.000 O
BRANCH 64 67
ATOM     65  C1  NAG B   5       5.990  -8.463  20.1440  0.00  0.00     0.000 C
ATOM     66  C2  NAG B   5       7.353  -7.983  19.6730  0.00  0.00     0.000 C
ATOM     67  C3  NAG B   5       7.185  -6.850  18.6690  0.00  0.00     0.000 C
ATOM     68  C4  NAG B   5       6.225  -7.251  17.5410  0.00  0.00     0.000 C
ATOM     69  C5  NAG B   5       4.928  -7.804  18.1090  0.00  0.00     0.000 C
ATOM     70  O5  NAG B   5       5.213  -8.861  19.0380  0.00  0.00     0.000 O
ATOM     71   O  NAG B   5       5.987  -6.122  16.7280  0.00  0.00     0.000 O
ATOM     73  HD  NAG B   5       6.072  -6.709  16.0970  0.00  0.00     0.000 HD
ATOM     73   C  NAG B   5       3.957  -8.350  17.0530  0.00  0.00     0.000 C
ATOM     74   O  NAG B   5       4.552  -9.483  16.3880  0.00  0.00     0.000 O
ATOM     76  HD  NAG B   5       4.637 -10.070  15.7570  0.00  0.00     0.000 HD
BRANCH 66 78
ATOM     76   N  NAG B   5       8.461  -8.616  20.4140  0.00  0.00     0.000 N
ATOM     78  HD  NAG B   5       8.191  -7.813  20.2350  0.00  0.00     0.000 HD
ATOM     78   C  NAG B   5       9.314  -7.992  21.2420  0.00  0.00     0.000 C
ATOM     79   C  NAG B   5      10.327  -8.915  21.8650  0.00  0.00     0.000 C
ATOM     80   O  NAG B   5       9.275  -6.731  21.4720  0.00  0.00     0.000 OA
ENDBRANCH 66 78
BRANCH 65 81
ATOM     81  O4  BDP B   6       6.141  -9.560  21.0530  0.00  0.00     0.000 O
BRANCH 81 85
ATOM     82  C1  BDP B   6       3.804 -11.876  23.7990  0.00  0.00     0.000 C
ATOM     83  C2  BDP B   6       3.737 -12.254  22.3220  0.00  0.00     0.000 C
ATOM     84  C3  BDP B   6       4.886 -11.660  21.5030  0.00  0.00     0.000 C
ATOM     85  C4  BDP B   6       5.025 -10.152  21.7230  0.00  0.00     0.000 C
ATOM     86  C5  BDP B   6       5.047  -9.894  23.2480  0.00  0.00     0.000 C
ATOM     87  O5  BDP B   6       3.874 -10.462  23.9140  0.00  0.00     0.000 O
ATOM     88   O  BDP B   6       3.815 -13.677  22.2900  0.00  0.00     0.000 O
ATOM     90  HD  BDP B   6       4.192 -14.315  21.8430  0.00  0.00     0.000 HD
ATOM     90   O  BDP B   6       4.694 -11.961  20.1190  0.00  0.00     0.000 O
ATOM     92  HD  BDP B   6       5.072 -12.599  19.6710  0.00  0.00     0.000 HD
BRANCH 86 92
ATOM     92   C  BDP B   6       4.944  -8.416  23.5360  0.00  0.00     0.000 C
ATOM     93   O  BDP B   6       5.951  -7.798  23.9970  0.00  0.00     0.000 OA
ATOM     94   O  BDP B   6       3.839  -7.844  23.2780  0.00  0.00     0.000 OA
ENDBRANCH 86 92
BRANCH 82 95
ATOM     95  O3  NAG B   7       2.587 -12.312  24.4350  0.00  0.00     0.000 O
BRANCH 95 98
ATOM     96  C1  NAG B   7       1.821 -12.722  27.9830  0.00  0.00     0.000 C
ATOM     97  C2  NAG B   7       2.054 -13.173  26.5470  0.00  0.00     0.000 C
ATOM     98  C3  NAG B   7       2.306 -11.884  25.7670  0.00  0.00     0.000 C
ATOM     99  C4  NAG B   7       1.091 -10.966  25.8740  0.00  0.00     0.000 C
ATOM    100  C5  NAG B   7       0.718 -10.722  27.3370  0.00  0.00     0.000 C
ATOM    101  O5  NAG B   7       0.600 -11.974  27.9960  0.00  0.00     0.000 O
BRANCH 97 104
ATOM    102   N  NAG B   7       2.742 -14.314  25.9280  0.00  0.00     0.000 N
ATOM    104  HD  NAG B   7       2.943 -15.116  25.6690  0.00  0.00     0.000 HD
ATOM    104   O  NAG B   7       4.419 -15.798  25.5900  0.00  0.00     0.000 OA
ATOM    105   C  NAG B   7       3.988 -14.773  26.1520  0.00  0.00     0.000 C
ATOM    106   C  NAG B   7       4.867 -14.042  27.1090  0.00  0.00     0.000 C
ENDBRANCH 97 104
ATOM    107   O  NAG B   7      -0.685  -9.482  28.7500  0.00  0.00     0.000 O
ATOM    109  HD  NAG B   7       0.112  -9.804  28.6490  0.00  0.00     0.000 HD
ATOM    109   O  NAG B   7      -0.685  -9.482  28.7500  0.00  0.00     0.000 O
ATOM    111  HD  NAG B   7       0.112  -9.804  28.6490  0.00  0.00     0.000 HD
ENDBRANCH 95 98
ENDBRANCH 82 95
ENDBRANCH 81 85
ENDBRANCH 65 81
ENDBRANCH 64 67
ENDBRANCH 51 64
ENDBRANCH 50 54
ENDBRANCH 34 50
ENDBRANCH 33 36
ENDBRANCH 20 33
ENDBRANCH 19 23
ENDBRANCH 1 19
TORSDOF 19
ENDMDL
MODEL 80
REMARK VINA RESULT:      -5.5      8.791     13.679
ROOT
ATOM      1  C1  NAG B   1       8.640   4.499  17.8790  0.00  0.00     0.000 C
ATOM      2  C2  NAG B   1       8.776   5.186  19.2350  0.00  0.00     0.000 C
ATOM      3  C3  NAG B   1       8.411   6.655  19.1620  0.00  0.00     0.000 C
ATOM      4  C4  NAG B   1       9.340   7.254  18.1110  0.00  0.00     0.000 C
ATOM      5  C5  NAG B   1       9.048   6.604  16.7530  0.00  0.00     0.000 C
ATOM      6  O5  NAG B   1       9.289   5.181  16.7940  0.00  0.00     0.000 O
ATOM      7   O  NAG B   1       8.576   7.321  20.4350  0.00  0.00     0.000 O
ATOM      9  HD  NAG B   1       8.312   6.531  20.6710  0.00  0.00     0.000 HD
ATOM      9   O  NAG B   1       9.140   8.655  18.0250  0.00  0.00     0.000 O
ATOM     11  HD  NAG B   1       8.876   7.865  18.2610  0.00  0.00     0.000 HD
ATOM     11   C  NAG B   1       9.873   7.288  15.6560  0.00  0.00     0.000 C
ATOM     12   O  NAG B   1      10.162   6.388  14.5870  0.00  0.00     0.000 O
ATOM     14  HD  NAG B   1       9.898   5.597  14.8230  0.00  0.00     0.000 HD
ENDROOT
BRANCH 2 16
ATOM     14   N  NAG B   1       9.288   4.295  20.2910  0.00  0.00     0.000 N
ATOM     16  HD  NAG B   1       9.565   4.286  21.1110  0.00  0.00     0.000 HD
ATOM     16   C  NAG B   1       8.523   3.824  21.2900  0.00  0.00     0.000 C
ATOM     17   C  NAG B   1       7.075   4.227  21.3820  0.00  0.00     0.000 C
ATOM     18   O  NAG B   1       8.975   3.041  22.1260  0.00  0.00     0.000 OA
ENDBRANCH 2 16
BRANCH 1 19
ATOM     19  O4  BDP B   2       9.352   3.283  18.0590  0.00  0.00     0.000 O
BRANCH 19 23
ATOM     20  C1  BDP B   2       9.527  -0.354  16.1400  0.00  0.00     0.000 C
ATOM     21  C2  BDP B   2      10.073   0.836  15.3780  0.00  0.00     0.000 C
ATOM     22  C3  BDP B   2      10.345   2.001  16.3030  0.00  0.00     0.000 C
ATOM     23  C4  BDP B   2       9.075   2.294  17.0970  0.00  0.00     0.000 C
ATOM     24  C5  BDP B   2       8.633   1.038  17.8230  0.00  0.00     0.000 C
ATOM     25  O5  BDP B   2       8.373   0.014  16.8820  0.00  0.00     0.000 O
ATOM     26   O  BDP B   2      11.258   0.481  14.6990  0.00  0.00     0.000 O
ATOM     28  HD  BDP B   2      10.973  -0.302  14.9370  0.00  0.00     0.000 HD
ATOM     28   O  BDP B   2      10.770   3.132  15.5270  0.00  0.00     0.000 O
ATOM     30  HD  BDP B   2      10.485   2.350  15.7650  0.00  0.00     0.000 HD
BRANCH 24 30
ATOM     30   C  BDP B   2       7.390   1.253  18.6100  0.00  0.00     0.000 C
ATOM     31   O  BDP B   2       6.354   1.556  17.9750  0.00  0.00     0.000 OA
ATOM     32   O  BDP B   2       7.445   1.127  19.8660  0.00  0.00     0.000 OA
ENDBRANCH 24 30
BRANCH 20 33
ATOM     33  O3  NAG B   3       9.158  -1.264  15.1320  0.00  0.00     0.000 O
BRANCH 33 36
ATOM     34  C1  NAG B   3       9.955  -4.940  15.1100  0.00  0.00     0.000 C
ATOM     35  C2  NAG B   3      10.097  -3.467  14.7770  0.00  0.00     0.000 C
ATOM     36  C3  NAG B   3       9.137  -2.609  15.6150  0.00  0.00     0.000 C
ATOM     37  C4  NAG B   3       7.720  -3.160  15.4820  0.00  0.00     0.000 C
ATOM     38  C5  NAG B   3       7.708  -4.662  15.7540  0.00  0.00     0.000 C
ATOM     39  O5  NAG B   3       8.606  -5.319  14.8770  0.00  0.00     0.000 O
ATOM     40   O  NAG B   3       6.847  -2.499  16.4110  0.00  0.00     0.000 O
ATOM     42  HD  NAG B   3       6.679  -3.316  16.6440  0.00  0.00     0.000 HD
ATOM     42   C  NAG B   3       6.352  -5.321  15.5160  0.00  0.00     0.000 C
ATOM     43   O  NAG B   3       6.022  -5.249  14.1230  0.00  0.00     0.000 O
ATOM     45  HD  NAG B   3       5.854  -6.066  14.3570  0.00  0.00     0.000 HD
BRANCH 35 47
ATOM     45   N  NAG B   3      11.486  -3.061  14.9540  0.00  0.00     0.000 N
ATOM     47  HD  NAG B   3      11.331  -3.859  15.2530  0.00  0.00     0.000 HD
ATOM     47   C  NAG B   3      12.144  -2.349  14.0610  0.00  0.00     0.000 C
ATOM     48   C  NAG B   3      13.573  -2.034  14.3900  0.00  0.00     0.000 C
ATOM     49   O  NAG B   3      11.626  -1.986  13.0070  0.00  0.00     0.000 OA
ENDBRANCH 35 47
BRANCH 34 50
ATOM     50  O4  BDP B   4      10.811  -5.576  14.1840  0.00  0.00     0.000 O
BRANCH 50 54
ATOM     51  C1  BDP B   4      12.729  -9.114  13.5870  0.00  0.00     0.000 C
ATOM     52  C2  BDP B   4      11.450  -9.219  14.4090  0.00  0.00     0.000 C
ATOM     53  C3  BDP B   4      10.665  -7.956  14.2390  0.00  0.00     0.000 C
ATOM     54  C4  BDP B   4      11.551  -6.732  14.6110  0.00  0.00     0.000 C
ATOM     55  C5  BDP B   4      12.906  -6.767  13.9190  0.00  0.00     0.000 C
ATOM     56  O5  BDP B   4      13.516  -8.044  14.0800  0.00  0.00     0.000 O
ATOM     57   O  BDP B   4      10.675 -10.315  13.9710  0.00  0.00     0.000 O
ATOM     59  HD  BDP B   4      10.806 -10.928  14.5690  0.00  0.00     0.000 HD
ATOM     59   O  BDP B   4       9.569  -8.013  15.1750  0.00  0.00     0.000 O
ATOM     61  HD  BDP B   4       9.700  -8.626  15.7730  0.00  0.00     0.000 HD
BRANCH 55 61
ATOM     61   C  BDP B   4      13.806  -5.705  14.5260  0.00  0.00     0.000 C
ATOM     62   O  BDP B   4      14.749  -5.256  13.8230  0.00  0.00     0.000 OA
ATOM     63   O  BDP B   4      13.564  -5.318  15.7100  0.00  0.00     0.000 OA
ENDBRANCH 55 61
BRANCH 51 64
ATOM     64  O3  NAG B   5      13.428 -10.366  13.7210  0.00  0.00     0.000 O
BRANCH 64 67
ATOM     65  C1  NAG B   5      14.784 -12.234  10.8450  0.00  0.00     0.000 C
ATOM     66  C2  NAG B   5      13.768 -11.756  11.8680  0.00  0.00     0.000 C
ATOM     67  C3  NAG B   5      14.344 -10.594  12.6670  0.00  0.00     0.000 C
ATOM     68  C4  NAG B   5      15.716 -10.954  13.2520  0.00  0.00     0.000 C
ATOM     69  C5  NAG B   5      16.632 -11.509  12.1720  0.00  0.00     0.000 C
ATOM     70  O5  NAG B   5      15.984 -12.593  11.4910  0.00  0.00     0.000 O
ATOM     71   O  NAG B   5      16.270  -9.801  13.8490  0.00  0.00     0.000 O
ATOM     73  HD  NAG B   5      16.490 -10.372  14.4620  0.00  0.00     0.000 HD
ATOM     73   C  NAG B   5      17.985 -12.016  12.6900  0.00  0.00     0.000 C
ATOM     74   O  NAG B   5      17.776 -13.137  13.5730  0.00  0.00     0.000 O
ATOM     76  HD  NAG B   5      17.996 -13.708  14.1870  0.00  0.00     0.000 HD
BRANCH 66 78
ATOM     76   N  NAG B   5      12.443 -12.401  11.7890  0.00  0.00     0.000 N
ATOM     78  HD  NAG B   5      12.767 -11.601  11.7190  0.00  0.00     0.000 HD
ATOM     78   C  NAG B   5      11.312 -11.828  11.3480  0.00  0.00     0.000 C
ATOM     79   C  NAG B   5      10.124 -12.751  11.3710  0.00  0.00     0.000 C
ATOM     80   O  NAG B   5      11.247 -10.609  10.9550  0.00  0.00     0.000 OA
ENDBRANCH 66 78
BRANCH 65 81
ATOM     81  O4  BDP B   6      14.264 -13.357  10.1220  0.00  0.00     0.000 O
BRANCH 81 85
ATOM     82  C1  BDP B   6      14.413 -15.083   6.2020  0.00  0.00     0.000 C
ATOM     83  C2  BDP B   6      15.589 -15.353   7.1370  0.00  0.00     0.000 C
ATOM     84  C3  BDP B   6      15.264 -15.055   8.6030  0.00  0.00     0.000 C
ATOM     85  C4  BDP B   6      14.673 -13.655   8.7850  0.00  0.00     0.000 C
ATOM     86  C5  BDP B   6      13.520 -13.490   7.7650  0.00  0.00     0.000 C
ATOM     87  O5  BDP B   6      13.963 -13.750   6.3950  0.00  0.00     0.000 O
ATOM     88   O  BDP B   6      15.883 -16.739   6.9870  0.00  0.00     0.000 O
ATOM     90  HD  BDP B   6      16.092 -17.432   7.4620  0.00  0.00     0.000 HD
ATOM     90   O  BDP B   6      16.441 -15.220   9.3980  0.00  0.00     0.000 O
ATOM     92  HD  BDP B   6      16.650 -15.914   9.8740  0.00  0.00     0.000 HD
BRANCH 86 92
ATOM     92   C  BDP B   6      13.049 -12.056   7.7260  0.00  0.00     0.000 C
ATOM     93   O  BDP B   6      13.873 -11.136   7.4370  0.00  0.00     0.000 OA
ATOM     94   O  BDP B   6      11.822 -11.836   7.9660  0.00  0.00     0.000 OA
ENDBRANCH 86 92
BRANCH 82 95
ATOM     95  O3  NAG B   7      14.877 -15.202   4.8430  0.00  0.00     0.000 O
BRANCH 95 98
ATOM     96  C1  NAG B   7      13.874 -17.026   1.8420  0.00  0.00     0.000 C
ATOM     97  C2  NAG B   7      14.845 -16.474   2.8780  0.00  0.00     0.000 C
ATOM     98  C3  NAG B   7      13.976 -15.666   3.8390  0.00  0.00     0.000 C
ATOM     99  C4  NAG B   7      13.269 -14.545   3.0820  0.00  0.00     0.000 C
ATOM    100  C5  NAG B   7      12.492 -15.098   1.8870  0.00  0.00     0.000 C
ATOM    101  O5  NAG B   7      13.360 -15.909   1.1090  0.00  0.00     0.000 O
BRANCH 97 104
ATOM    102   N  NAG B   7      15.536 -17.386   3.7990  0.00  0.00     0.000 N
ATOM    104  HD  NAG B   7      15.867 -17.741   4.5170  0.00  0.00     0.000 HD
ATOM    104   O  NAG B   7      17.288 -18.519   4.6820  0.00  0.00     0.000 OA
ATOM    105   C  NAG B   7      16.824 -17.780   3.7910  0.00  0.00     0.000 C
ATOM    106   C  NAG B   7      17.719 -17.308   2.6970  0.00  0.00     0.000 C
ENDBRANCH 97 104
ATOM    107   O  NAG B   7      10.978 -14.529   0.1880  0.00  0.00     0.000 O
ATOM    109  HD  NAG B   7      11.202 -15.137   0.7620  0.00  0.00     0.000 HD
ATOM    109   O  NAG B   7      10.978 -14.529   0.1880  0.00  0.00     0.000 O
ATOM    111  HD  NAG B   7      11.202 -15.137   0.7620  0.00  0.00     0.000 HD
ENDBRANCH 95 98
ENDBRANCH 82 95
ENDBRANCH 81 85
ENDBRANCH 65 81
ENDBRANCH 64 67
ENDBRANCH 51 64
ENDBRANCH 50 54
ENDBRANCH 34 50
ENDBRANCH 33 36
ENDBRANCH 20 33
ENDBRANCH 19 23
ENDBRANCH 1 19
TORSDOF 19
ENDMDL
MODEL 81
REMARK VINA RESULT:      -5.5     17.124     21.837
ROOT
ATOM      1  C1  NAG B   1      -4.071 -19.735  -7.2870  0.00  0.00     0.000 C
ATOM      2  C2  NAG B   1      -5.009 -20.884  -7.6480  0.00  0.00     0.000 C
ATOM      3  C3  NAG B   1      -5.692 -20.657  -8.9810  0.00  0.00     0.000 C
ATOM      4  C4  NAG B   1      -6.428 -19.328  -8.8410  0.00  0.00     0.000 C
ATOM      5  C5  NAG B   1      -5.404 -18.208  -8.6120  0.00  0.00     0.000 C
ATOM      6  O5  NAG B   1      -4.656 -18.428  -7.3970  0.00  0.00     0.000 O
ATOM      7   O  NAG B   1      -6.612 -21.722  -9.3110  0.00  0.00     0.000 O
ATOM      9  HD  NAG B   1      -5.980 -22.144  -8.8950  0.00  0.00     0.000 HD
ATOM      9   O  NAG B   1      -7.178 -19.060 -10.0140  0.00  0.00     0.000 O
ATOM     11  HD  NAG B   1      -6.546 -19.481  -9.5980  0.00  0.00     0.000 HD
ATOM     11   C  NAG B   1      -6.110 -16.847  -8.6060  0.00  0.00     0.000 C
ATOM     12   O  NAG B   1      -5.413 -15.906  -7.7900  0.00  0.00     0.000 O
ATOM     14  HD  NAG B   1      -4.781 -16.327  -7.3740  0.00  0.00     0.000 HD
ENDROOT
BRANCH 2 16
ATOM     14   N  NAG B   1      -5.089 -21.918  -6.6010  0.00  0.00     0.000 N
ATOM     16  HD  NAG B   1      -5.515 -22.636  -6.3720  0.00  0.00     0.000 HD
ATOM     16   C  NAG B   1      -4.539 -23.138  -6.7290  0.00  0.00     0.000 C
ATOM     17   C  NAG B   1      -3.823 -23.509  -8.0000  0.00  0.00     0.000 C
ATOM     18   O  NAG B   1      -4.584 -23.958  -5.8120  0.00  0.00     0.000 OA
ENDBRANCH 2 16
BRANCH 1 19
ATOM     19  O4  BDP B   2      -3.828 -19.939  -5.9020  0.00  0.00     0.000 O
BRANCH 19 23
ATOM     20  C1  BDP B   2      -0.131 -18.130  -5.9930  0.00  0.00     0.000 C
ATOM     21  C2  BDP B   2      -0.141 -19.645  -6.0270  0.00  0.00     0.000 C
ATOM     22  C3  BDP B   2      -1.503 -20.176  -6.4090  0.00  0.00     0.000 C
ATOM     23  C4  BDP B   2      -2.541 -19.564  -5.4720  0.00  0.00     0.000 C
ATOM     24  C5  BDP B   2      -2.445 -18.052  -5.5320  0.00  0.00     0.000 C
ATOM     25  O5  BDP B   2      -1.151 -17.644  -5.1310  0.00  0.00     0.000 O
ATOM     26   O  BDP B   2       0.828 -20.120  -6.9370  0.00  0.00     0.000 O
ATOM     28  HD  BDP B   2       1.053 -19.285  -6.8890  0.00  0.00     0.000 HD
ATOM     28   O  BDP B   2      -1.490 -21.610  -6.3360  0.00  0.00     0.000 O
ATOM     30  HD  BDP B   2      -1.265 -20.775  -6.2890  0.00  0.00     0.000 HD
BRANCH 24 30
ATOM     30   C  BDP B   2      -3.424 -17.391  -4.6300  0.00  0.00     0.000 C
ATOM     31   O  BDP B   2      -3.585 -17.889  -3.4920  0.00  0.00     0.000 OA
ATOM     32   O  BDP B   2      -4.044 -16.375  -5.0570  0.00  0.00     0.000 OA
ENDBRANCH 24 30
BRANCH 20 33
ATOM     33  O3  NAG B   3       1.126 -17.810  -5.4490  0.00  0.00     0.000 O
BRANCH 33 36
ATOM     34  C1  NAG B   3       2.797 -14.670  -6.6730  0.00  0.00     0.000 C
ATOM     35  C2  NAG B   3       2.322 -16.110  -6.6910  0.00  0.00     0.000 C
ATOM     36  C3  NAG B   3       1.386 -16.405  -5.5090  0.00  0.00     0.000 C
ATOM     37  C4  NAG B   3       2.059 -15.971  -4.2100  0.00  0.00     0.000 C
ATOM     38  C5  NAG B   3       2.572 -14.539  -4.3330  0.00  0.00     0.000 C
ATOM     39  O5  NAG B   3       3.456 -14.435  -5.4370  0.00  0.00     0.000 O
ATOM     40   O  NAG B   3       1.125 -16.051  -3.1220  0.00  0.00     0.000 O
ATOM     42  HD  NAG B   3       1.365 -15.226  -3.0170  0.00  0.00     0.000 HD
ATOM     42   C  NAG B   3       3.376 -14.065  -3.1250  0.00  0.00     0.000 C
ATOM     43   O  NAG B   3       4.584 -14.828  -3.0240  0.00  0.00     0.000 O
ATOM     45  HD  NAG B   3       4.825 -14.003  -2.9190  0.00  0.00     0.000 HD
BRANCH 35 47
ATOM     45   N  NAG B   3       2.710 -17.137  -7.6500  0.00  0.00     0.000 N
ATOM     47  HD  NAG B   3       2.936 -17.336  -6.8380  0.00  0.00     0.000 HD
ATOM     47   C  NAG B   3       1.959 -17.477  -8.6790  0.00  0.00     0.000 C
ATOM     48   C  NAG B   3       2.497 -18.567  -9.5580  0.00  0.00     0.000 C
ATOM     49   O  NAG B   3       0.869 -16.951  -8.8920  0.00  0.00     0.000 OA
ENDBRANCH 35 47
BRANCH 34 50
ATOM     50  O4  BDP B   4       3.719 -14.609  -7.7410  0.00  0.00     0.000 O
BRANCH 50 54
ATOM     51  C1  BDP B   4       5.435 -11.860 -10.2010  0.00  0.00     0.000 C
ATOM     52  C2  BDP B   4       4.920 -11.293  -8.8820  0.00  0.00     0.000 C
ATOM     53  C3  BDP B   4       4.667 -12.429  -7.9390  0.00  0.00     0.000 C
ATOM     54  C4  BDP B   4       3.703 -13.456  -8.6000  0.00  0.00     0.000 C
ATOM     55  C5  BDP B   4       4.147 -13.848 -10.0030  0.00  0.00     0.000 C
ATOM     56  O5  BDP B   4       4.439 -12.687 -10.7750  0.00  0.00     0.000 O
ATOM     57   O  BDP B   4       5.875 -10.420  -8.3180  0.00  0.00     0.000 O
ATOM     59  HD  BDP B   4       5.570  -9.627  -8.4830  0.00  0.00     0.000 HD
ATOM     59   O  BDP B   4       4.004 -11.876  -6.7840  0.00  0.00     0.000 O
ATOM     61  HD  BDP B   4       3.699 -11.083  -6.9490  0.00  0.00     0.000 HD
BRANCH 55 61
ATOM     61   C  BDP B   4       3.036 -14.631 -10.6790  0.00  0.00     0.000 C
ATOM     62   O  BDP B   4       1.850 -14.244 -10.5060  0.00  0.00     0.000 OA
ATOM     63   O  BDP B   4       3.354 -15.634 -11.3880  0.00  0.00     0.000 OA
ENDBRANCH 55 61
BRANCH 51 64
ATOM     64  O3  NAG B   5       5.728 -10.741 -11.0600  0.00  0.00     0.000 O
BRANCH 64 67
ATOM     65  C1  NAG B   5       8.860  -9.720 -12.7150  0.00  0.00     0.000 C
ATOM     66  C2  NAG B   5       7.714  -9.692 -11.7190  0.00  0.00     0.000 C
ATOM     67  C3  NAG B   5       6.874 -10.955 -11.8600  0.00  0.00     0.000 C
ATOM     68  C4  NAG B   5       6.447 -11.173 -13.3180  0.00  0.00     0.000 C
ATOM     69  C5  NAG B   5       7.647 -11.091 -14.2480  0.00  0.00     0.000 C
ATOM     70  O5  NAG B   5       8.356  -9.864 -14.0240  0.00  0.00     0.000 O
ATOM     71   O  NAG B   5       5.806 -12.427 -13.4190  0.00  0.00     0.000 O
ATOM     73  HD  NAG B   5       5.266 -11.974 -13.9220  0.00  0.00     0.000 HD
ATOM     73   C  NAG B   5       7.297 -11.170 -15.7410  0.00  0.00     0.000 C
ATOM     74   O  NAG B   5       6.496 -10.028 -16.1110  0.00  0.00     0.000 O
ATOM     76  HD  NAG B   5       5.955  -9.576 -16.6140  0.00  0.00     0.000 HD
BRANCH 66 78
ATOM     76   N  NAG B   5       7.662  -8.575 -10.7560  0.00  0.00     0.000 N
ATOM     78  HD  NAG B   5       7.780  -9.433 -10.7310  0.00  0.00     0.000 HD
ATOM     78   C  NAG B   5       8.017  -8.630  -9.4630  0.00  0.00     0.000 C
ATOM     79   C  NAG B   5       7.868  -7.317  -8.7440  0.00  0.00     0.000 C
ATOM     80   O  NAG B   5       8.434  -9.701  -8.8930  0.00  0.00     0.000 OA
ENDBRANCH 66 78
BRANCH 65 81
ATOM     81  O4  BDP B   6       9.627  -8.512 -12.6180  0.00  0.00     0.000 O
BRANCH 81 85
ATOM     82  C1  BDP B   6      13.686  -7.153 -12.8070  0.00  0.00     0.000 C
ATOM     83  C2  BDP B   6      13.066  -7.702 -14.0890  0.00  0.00     0.000 C
ATOM     84  C3  BDP B   6      11.538  -7.772 -14.0280  0.00  0.00     0.000 C
ATOM     85  C4  BDP B   6      11.048  -8.499 -12.7740  0.00  0.00     0.000 C
ATOM     86  C5  BDP B   6      11.769  -7.880 -11.5530  0.00  0.00     0.000 C
ATOM     87  O5  BDP B   6      13.225  -7.917 -11.7030  0.00  0.00     0.000 O
ATOM     88   O  BDP B   6      13.461  -6.801 -15.1190  0.00  0.00     0.000 O
ATOM     90  HD  BDP B   6      13.139  -6.403 -15.8180  0.00  0.00     0.000 HD
ATOM     90   O  BDP B   6      11.038  -8.399 -15.2120  0.00  0.00     0.000 O
ATOM     92  HD  BDP B   6      10.716  -8.001 -15.9110  0.00  0.00     0.000 HD
BRANCH 86 92
ATOM     92   C  BDP B   6      11.514  -8.703 -10.3140  0.00  0.00     0.000 C
ATOM     93   O  BDP B   6      11.441  -9.965 -10.4070  0.00  0.00     0.000 OA
ATOM     94   O  BDP B   6      11.404  -8.083  -9.2110  0.00  0.00     0.000 OA
ENDBRANCH 86 92
BRANCH 82 95
ATOM     95  O3  NAG B   7      15.116  -7.314 -12.8900  0.00  0.00     0.000 O
BRANCH 95 98
ATOM     96  C1  NAG B   7      17.633  -5.373 -11.0910  0.00  0.00     0.000 C
ATOM     97  C2  NAG B   7      16.818  -5.818 -12.2980  0.00  0.00     0.000 C
ATOM     98  C3  NAG B   7      15.923  -6.940 -11.7750  0.00  0.00     0.000 C
ATOM     99  C4  NAG B   7      16.783  -8.078 -11.2300  0.00  0.00     0.000 C
ATOM    100  C5  NAG B   7      17.775  -7.562 -10.1870  0.00  0.00     0.000 C
ATOM    101  O5  NAG B   7      18.489  -6.464 -10.7340  0.00  0.00     0.000 O
BRANCH 97 104
ATOM    102   N  NAG B   7      15.859  -4.867 -12.8760  0.00  0.00     0.000 N
ATOM    104  HD  NAG B   7      15.130  -4.509 -13.1770  0.00  0.00     0.000 HD
ATOM    104   O  NAG B   7      14.958  -3.527 -14.4640  0.00  0.00     0.000 OA
ATOM    105   C  NAG B   7      15.881  -4.274 -14.0850  0.00  0.00     0.000 C
ATOM    106   C  NAG B   7      17.033  -4.530 -14.9960  0.00  0.00     0.000 C
ENDBRANCH 97 104
ATOM    107   O  NAG B   7      19.376  -8.228  -8.6070  0.00  0.00     0.000 O
ATOM    109  HD  NAG B   7      18.733  -7.673  -8.7720  0.00  0.00     0.000 HD
ATOM    109   O  NAG B   7      19.376  -8.228  -8.6070  0.00  0.00     0.000 O
ATOM    111  HD  NAG B   7      18.733  -7.673  -8.7720  0.00  0.00     0.000 HD
ENDBRANCH 95 98
ENDBRANCH 82 95
ENDBRANCH 81 85
ENDBRANCH 65 81
ENDBRANCH 64 67
ENDBRANCH 51 64
ENDBRANCH 50 54
ENDBRANCH 34 50
ENDBRANCH 33 36
ENDBRANCH 20 33
ENDBRANCH 19 23
ENDBRANCH 1 19
TORSDOF 19
ENDMDL
MODEL 82
REMARK VINA RESULT:      -5.4      5.337     17.730
ROOT
ATOM      1  C1  NAG B   1      14.278 -15.842  -3.5180  0.00  0.00     0.000 C
ATOM      2  C2  NAG B   1      13.660 -17.048  -4.2190  0.00  0.00     0.000 C
ATOM      3  C3  NAG B   1      13.689 -16.900  -5.7270  0.00  0.00     0.000 C
ATOM      4  C4  NAG B   1      12.938 -15.606  -6.0250  0.00  0.00     0.000 C
ATOM      5  C5  NAG B   1      13.696 -14.429  -5.3970  0.00  0.00     0.000 C
ATOM      6  O5  NAG B   1      13.780 -14.570  -3.9630  0.00  0.00     0.000 O
ATOM      7   O  NAG B   1      13.069 -18.021  -6.3970  0.00  0.00     0.000 O
ATOM      9  HD  NAG B   1      13.438 -18.396  -5.7080  0.00  0.00     0.000 HD
ATOM      9   O  NAG B   1      12.831 -15.416  -7.4250  0.00  0.00     0.000 O
ATOM     11  HD  NAG B   1      13.200 -15.790  -6.7370  0.00  0.00     0.000 HD
ATOM     11   C  NAG B   1      13.034 -13.106  -5.8000  0.00  0.00     0.000 C
ATOM     12   O  NAG B   1      13.230 -12.104  -4.8030  0.00  0.00     0.000 O
ATOM     14  HD  NAG B   1      13.599 -12.479  -4.1150  0.00  0.00     0.000 HD
ENDROOT
BRANCH 2 16
ATOM     14   N  NAG B   1      13.017 -18.177  -3.5230  0.00  0.00     0.000 N
ATOM     16  HD  NAG B   1      12.730 -18.985  -3.6400  0.00  0.00     0.000 HD
ATOM     16   C  NAG B   1      13.698 -19.243  -3.0680  0.00  0.00     0.000 C
ATOM     17   C  NAG B   1      15.186 -19.333  -3.2850  0.00  0.00     0.000 C
ATOM     18   O  NAG B   1      13.134 -20.143  -2.4470  0.00  0.00     0.000 OA
ENDBRANCH 2 16
BRANCH 1 19
ATOM     19  O4  BDP B   2      13.837 -15.987  -2.1750  0.00  0.00     0.000 O
BRANCH 19 23
ATOM     20  C1  BDP B   2      11.892 -13.610   0.5660  0.00  0.00     0.000 C
ATOM     21  C2  BDP B   2      11.054 -14.142  -0.5790  0.00  0.00     0.000 C
ATOM     22  C3  BDP B   2      11.735 -15.306  -1.2620  0.00  0.00     0.000 C
ATOM     23  C4  BDP B   2      13.143 -14.874  -1.6630  0.00  0.00     0.000 C
ATOM     24  C5  BDP B   2      13.886 -14.375  -0.4400  0.00  0.00     0.000 C
ATOM     25  O5  BDP B   2      13.196 -13.271   0.1150  0.00  0.00     0.000 O
ATOM     26   O  BDP B   2       9.784 -14.541  -0.1110  0.00  0.00     0.000 O
ATOM     28  HD  BDP B   2      10.080 -14.115   0.5820  0.00  0.00     0.000 HD
ATOM     28   O  BDP B   2      10.952 -15.714  -2.3940  0.00  0.00     0.000 O
ATOM     30  HD  BDP B   2      11.248 -15.288  -1.7010  0.00  0.00     0.000 HD
BRANCH 24 30
ATOM     30   C  BDP B   2      15.265 -13.926  -0.7640  0.00  0.00     0.000 C
ATOM     31   O  BDP B   2      16.213 -14.584  -0.2770  0.00  0.00     0.000 OA
ATOM     32   O  BDP B   2      15.409 -12.909  -1.5010  0.00  0.00     0.000 OA
ENDBRANCH 24 30
BRANCH 20 33
ATOM     33  O3  NAG B   3      11.221 -12.439   0.9630  0.00  0.00     0.000 O
BRANCH 33 36
ATOM     34  C1  NAG B   3      11.669 -11.203   4.4880  0.00  0.00     0.000 C
ATOM     35  C2  NAG B   3      11.122 -12.043   3.3500  0.00  0.00     0.000 C
ATOM     36  C3  NAG B   3      11.891 -11.787   2.0450  0.00  0.00     0.000 C
ATOM     37  C4  NAG B   3      11.931 -10.286   1.7680  0.00  0.00     0.000 C
ATOM     38  C5  NAG B   3      12.415  -9.533   3.0050  0.00  0.00     0.000 C
ATOM     39  O5  NAG B   3      11.582  -9.836   4.1120  0.00  0.00     0.000 O
ATOM     40   O  NAG B   3      12.812 -10.013   0.6680  0.00  0.00     0.000 O
ATOM     42  HD  NAG B   3      13.170  -9.478   1.2480  0.00  0.00     0.000 HD
ATOM     42   C  NAG B   3      12.362  -8.014   2.8620  0.00  0.00     0.000 C
ATOM     43   O  NAG B   3      10.999  -7.590   2.7450  0.00  0.00     0.000 O
ATOM     45  HD  NAG B   3      11.356  -7.056   3.3250  0.00  0.00     0.000 HD
BRANCH 35 47
ATOM     45   N  NAG B   3      11.100 -13.420   3.8280  0.00  0.00     0.000 N
ATOM     47  HD  NAG B   3      11.423 -12.869   4.4130  0.00  0.00     0.000 HD
ATOM     47   C  NAG B   3      10.120 -14.259   3.5550  0.00  0.00     0.000 C
ATOM     48   C  NAG B   3      10.244 -15.633   4.1420  0.00  0.00     0.000 C
ATOM     49   O  NAG B   3       9.147 -13.926   2.8820  0.00  0.00     0.000 OA
ENDBRANCH 35 47
BRANCH 34 50
ATOM     50  O4  BDP B   4      10.789 -11.475   5.5580  0.00  0.00     0.000 O
BRANCH 50 54
ATOM     51  C1  BDP B   4      10.685 -12.091   9.5780  0.00  0.00     0.000 C
ATOM     52  C2  BDP B   4      10.393 -10.657   9.1510  0.00  0.00     0.000 C
ATOM     53  C3  BDP B   4      10.094 -10.646   7.6830  0.00  0.00     0.000 C
ATOM     54  C4  BDP B   4      11.267 -11.306   6.9030  0.00  0.00     0.000 C
ATOM     55  C5  BDP B   4      11.663 -12.656   7.4870  0.00  0.00     0.000 C
ATOM     56  O5  BDP B   4      11.836 -12.557   8.8980  0.00  0.00     0.000 O
ATOM     57   O  BDP B   4       9.281 -10.152   9.8590  0.00  0.00     0.000 O
ATOM     59  HD  BDP B   4       9.623  -9.632  10.4610  0.00  0.00     0.000 HD
ATOM     59   O  BDP B   4      10.016  -9.263   7.2820  0.00  0.00     0.000 O
ATOM     61  HD  BDP B   4      10.359  -8.742   7.8830  0.00  0.00     0.000 HD
BRANCH 55 61
ATOM     61   C  BDP B   4      12.967 -13.111   6.8550  0.00  0.00     0.000 C
ATOM     62   O  BDP B   4      12.955 -14.169   6.1730  0.00  0.00     0.000 OA
ATOM     63   O  BDP B   4      14.004 -12.405   7.0420  0.00  0.00     0.000 OA
ENDBRANCH 55 61
BRANCH 51 64
ATOM     64  O3  NAG B   5      10.904 -12.077  11.0020  0.00  0.00     0.000 O
BRANCH 64 67
ATOM     65  C1  NAG B   5       9.299 -14.246  13.5150  0.00  0.00     0.000 C
ATOM     66  C2  NAG B   5       9.529 -13.024  12.6430  0.00  0.00     0.000 C
ATOM     67  C3  NAG B   5      10.610 -13.319  11.6110  0.00  0.00     0.000 C
ATOM     68  C4  NAG B   5      11.875 -13.872  12.2800  0.00  0.00     0.000 C
ATOM     69  C5  NAG B   5      11.532 -15.031  13.2030  0.00  0.00     0.000 C
ATOM     70  O5  NAG B   5      10.508 -14.635  14.1260  0.00  0.00     0.000 O
ATOM     71   O  NAG B   5      12.782 -14.270  11.2740  0.00  0.00     0.000 O
ATOM     73  HD  NAG B   5      13.351 -13.891  11.8060  0.00  0.00     0.000 HD
ATOM     73   C  NAG B   5      12.721 -15.567  14.0140  0.00  0.00     0.000 C
ATOM     74   O  NAG B   5      13.195 -14.541  14.9110  0.00  0.00     0.000 O
ATOM     76  HD  NAG B   5      13.764 -14.162  15.4430  0.00  0.00     0.000 HD
BRANCH 66 78
ATOM     76   N  NAG B   5       8.214 -12.703  12.0560  0.00  0.00     0.000 N
ATOM     78  HD  NAG B   5       8.788 -12.320  12.5790  0.00  0.00     0.000 HD
ATOM     78   C  NAG B   5       7.619 -11.500  12.0620  0.00  0.00     0.000 C
ATOM     79   C  NAG B   5       6.286 -11.486  11.3640  0.00  0.00     0.000 C
ATOM     80   O  NAG B   5       8.133 -10.464  12.6170  0.00  0.00     0.000 OA
ENDBRANCH 66 78
BRANCH 65 81
ATOM     81  O4  BDP B   6       8.316 -13.958  14.5180  0.00  0.00     0.000 O
BRANCH 81 85
ATOM     82  C1  BDP B   6       5.435 -16.118  16.8410  0.00  0.00     0.000 C
ATOM     83  C2  BDP B   6       6.672 -16.877  16.3680  0.00  0.00     0.000 C
ATOM     84  C3  BDP B   6       7.803 -15.949  15.9180  0.00  0.00     0.000 C
ATOM     85  C4  BDP B   6       7.322 -14.910  14.9030  0.00  0.00     0.000 C
ATOM     86  C5  BDP B   6       6.052 -14.238  15.4770  0.00  0.00     0.000 C
ATOM     87  O5  BDP B   6       5.022 -15.220  15.8210  0.00  0.00     0.000 O
ATOM     88   O  BDP B   6       7.101 -17.642  17.4920  0.00  0.00     0.000 O
ATOM     90  HD  BDP B   6       7.826 -17.872  17.9050  0.00  0.00     0.000 HD
ATOM     90   O  BDP B   6       8.878 -16.727  15.3850  0.00  0.00     0.000 O
ATOM     92  HD  BDP B   6       9.604 -16.957  15.7980  0.00  0.00     0.000 HD
BRANCH 86 92
ATOM     92   C  BDP B   6       5.390 -13.375  14.4290  0.00  0.00     0.000 C
ATOM     93   O  BDP B   6       4.915 -13.916  13.3850  0.00  0.00     0.000 OA
ATOM     94   O  BDP B   6       5.319 -12.128  14.6570  0.00  0.00     0.000 OA
ENDBRANCH 86 92
BRANCH 82 95
ATOM     95  O3  NAG B   7       4.372 -17.068  17.0500  0.00  0.00     0.000 O
BRANCH 95 98
ATOM     96  C1  NAG B   7       1.470 -17.649  19.1910  0.00  0.00     0.000 C
ATOM     97  C2  NAG B   7       2.609 -18.030  18.2540  0.00  0.00     0.000 C
ATOM     98  C3  NAG B   7       3.267 -16.705  17.8770  0.00  0.00     0.000 C
ATOM     99  C4  NAG B   7       2.252 -15.800  17.1840  0.00  0.00     0.000 C
ATOM    100  C5  NAG B   7       0.999 -15.627  18.0430  0.00  0.00     0.000 C
ATOM    101  O5  NAG B   7       0.519 -16.909  18.4190  0.00  0.00     0.000 O
BRANCH 97 104
ATOM    102   N  NAG B   7       3.829 -18.773  18.5980  0.00  0.00     0.000 N
ATOM    104  HD  NAG B   7       4.630 -19.103  18.5750  0.00  0.00     0.000 HD
ATOM    104   O  NAG B   7       5.108 -20.596  19.0140  0.00  0.00     0.000 OA
ATOM    105   C  NAG B   7       3.989 -20.097  18.7820  0.00  0.00     0.000 C
ATOM    106   C  NAG B   7       2.798 -20.990  18.6900  0.00  0.00     0.000 C
ENDBRANCH 97 104
ATOM    107   O  NAG B   7      -1.031 -14.462  18.2150  0.00  0.00     0.000 O
ATOM    109  HD  NAG B   7      -0.354 -14.775  18.6550  0.00  0.00     0.000 HD
ATOM    109   O  NAG B   7      -1.031 -14.462  18.2150  0.00  0.00     0.000 O
ATOM    111  HD  NAG B   7      -0.354 -14.775  18.6550  0.00  0.00     0.000 HD
ENDBRANCH 95 98
ENDBRANCH 82 95
ENDBRANCH 81 85
ENDBRANCH 65 81
ENDBRANCH 64 67
ENDBRANCH 51 64
ENDBRANCH 50 54
ENDBRANCH 34 50
ENDBRANCH 33 36
ENDBRANCH 20 33
ENDBRANCH 19 23
ENDBRANCH 1 19
TORSDOF 19
ENDMDL
MODEL 83
REMARK VINA RESULT:      -5.4      4.955      8.940
ROOT
ATOM      1  C1  NAG B   1       8.825 -13.593  13.5900  0.00  0.00     0.000 C
ATOM      2  C2  NAG B   1       7.662 -14.356  14.2180  0.00  0.00     0.000 C
ATOM      3  C3  NAG B   1       6.439 -14.358  13.3230  0.00  0.00     0.000 C
ATOM      4  C4  NAG B   1       6.108 -12.889  13.0820  0.00  0.00     0.000 C
ATOM      5  C5  NAG B   1       7.271 -12.228  12.3300  0.00  0.00     0.000 C
ATOM      6  O5  NAG B   1       8.489 -12.284  13.1030  0.00  0.00     0.000 O
ATOM      7   O  NAG B   1       5.321 -15.046  13.9290  0.00  0.00     0.000 O
ATOM      9  HD  NAG B   1       5.998 -15.504  14.2140  0.00  0.00     0.000 HD
ATOM      9   O  NAG B   1       4.918 -12.776  12.3200  0.00  0.00     0.000 O
ATOM     11  HD  NAG B   1       5.595 -13.234  12.6040  0.00  0.00     0.000 HD
ATOM     11   C  NAG B   1       6.901 -10.787  11.9570  0.00  0.00     0.000 C
ATOM     12   O  NAG B   1       8.060  -9.959  11.8790  0.00  0.00     0.000 O
ATOM     14  HD  NAG B   1       8.737 -10.417  12.1640  0.00  0.00     0.000 HD
ENDROOT
BRANCH 2 16
ATOM     14   N  NAG B   1       7.827 -14.887  15.5830  0.00  0.00     0.000 N
ATOM     16  HD  NAG B   1       7.426 -15.349  16.1960  0.00  0.00     0.000 HD
ATOM     16   C  NAG B   1       8.162 -16.163  15.8390  0.00  0.00     0.000 C
ATOM     17   C  NAG B   1       8.359 -17.131  14.7030  0.00  0.00     0.000 C
ATOM     18   O  NAG B   1       8.339 -16.558  16.9920  0.00  0.00     0.000 OA
ENDBRANCH 2 16
BRANCH 1 19
ATOM     19  O4  BDP B   2       9.707 -13.389  14.6850  0.00  0.00     0.000 O
BRANCH 19 23
ATOM     20  C1  BDP B   2      12.957 -12.408  12.3570  0.00  0.00     0.000 C
ATOM     21  C2  BDP B   2      12.801 -13.872  12.7130  0.00  0.00     0.000 C
ATOM     22  C3  BDP B   2      11.399 -14.174  13.1890  0.00  0.00     0.000 C
ATOM     23  C4  BDP B   2      11.056 -13.214  14.3240  0.00  0.00     0.000 C
ATOM     24  C5  BDP B   2      11.237 -11.786  13.8480  0.00  0.00     0.000 C
ATOM     25  O5  BDP B   2      12.580 -11.585  13.4510  0.00  0.00     0.000 O
ATOM     26   O  BDP B   2      13.111 -14.683  11.6000  0.00  0.00     0.000 O
ATOM     28  HD  BDP B   2      13.399 -13.915  11.3210  0.00  0.00     0.000 HD
ATOM     28   O  BDP B   2      11.325 -15.548  13.6040  0.00  0.00     0.000 O
ATOM     30  HD  BDP B   2      11.613 -14.780  13.3240  0.00  0.00     0.000 HD
BRANCH 24 30
ATOM     30   C  BDP B   2      10.930 -10.795  14.9130  0.00  0.00     0.000 C
ATOM     31   O  BDP B   2      10.156  -9.855  14.6180  0.00  0.00     0.000 OA
ATOM     32   O  BDP B   2      11.466 -10.946  16.0480  0.00  0.00     0.000 OA
ENDBRANCH 24 30
BRANCH 20 33
ATOM     33  O3  NAG B   3      14.336 -12.260  12.1200  0.00  0.00     0.000 O
BRANCH 33 36
ATOM     34  C1  NAG B   3      15.515  -9.207  10.2660  0.00  0.00     0.000 C
ATOM     35  C2  NAG B   3      14.922 -10.588  10.4700  0.00  0.00     0.000 C
ATOM     36  C3  NAG B   3      14.701 -10.887  11.9610  0.00  0.00     0.000 C
ATOM     37  C4  NAG B   3      15.996 -10.628  12.7260  0.00  0.00     0.000 C
ATOM     38  C5  NAG B   3      16.547  -9.246  12.3820  0.00  0.00     0.000 C
ATOM     39  O5  NAG B   3      16.740  -9.139  10.9820  0.00  0.00     0.000 O
ATOM     40   O  NAG B   3      15.755 -10.707  14.1400  0.00  0.00     0.000 O
ATOM     42  HD  NAG B   3      16.116  -9.920  14.1200  0.00  0.00     0.000 HD
ATOM     42   C  NAG B   3      17.910  -8.953  13.0030  0.00  0.00     0.000 C
ATOM     43   O  NAG B   3      18.891  -9.835  12.4430  0.00  0.00     0.000 O
ATOM     45  HD  NAG B   3      19.252  -9.048  12.4240  0.00  0.00     0.000 HD
BRANCH 35 47
ATOM     45   N  NAG B   3      14.627 -11.567   9.4310  0.00  0.00     0.000 N
ATOM     47  HD  NAG B   3      15.211 -11.853  10.0030  0.00  0.00     0.000 HD
ATOM     47   C  NAG B   3      13.418 -11.746   8.9370  0.00  0.00     0.000 C
ATOM     48   C  NAG B   3      13.284 -12.809   7.8870  0.00  0.00     0.000 C
ATOM     49   O  NAG B   3      12.451 -11.098   9.3320  0.00  0.00     0.000 OA
ENDBRANCH 35 47
BRANCH 34 50
ATOM     50  O4  BDP B   4      15.753  -9.147   8.8760  0.00  0.00     0.000 O
BRANCH 50 54
ATOM     51  C1  BDP B   4      16.021  -6.670   5.6600  0.00  0.00     0.000 C
ATOM     52  C2  BDP B   4      17.198  -6.582   6.6240  0.00  0.00     0.000 C
ATOM     53  C3  BDP B   4      17.165  -7.775   7.5300  0.00  0.00     0.000 C
ATOM     54  C4  BDP B   4      15.781  -7.860   8.2360  0.00  0.00     0.000 C
ATOM     55  C5  BDP B   4      14.623  -7.743   7.2540  0.00  0.00     0.000 C
ATOM     56  O5  BDP B   4      14.811  -6.623   6.3930  0.00  0.00     0.000 O
ATOM     57   O  BDP B   4      18.416  -6.570   5.9110  0.00  0.00     0.000 O
ATOM     59  HD  BDP B   4      18.671  -5.743   5.9280  0.00  0.00     0.000 HD
ATOM     59   O  BDP B   4      18.168  -7.560   8.5440  0.00  0.00     0.000 O
ATOM     61  HD  BDP B   4      18.423  -6.732   8.5610  0.00  0.00     0.000 HD
BRANCH 55 61
ATOM     61   C  BDP B   4      13.328  -7.566   8.0270  0.00  0.00     0.000 C
ATOM     62   O  BDP B   4      13.296  -6.697   8.9370  0.00  0.00     0.000 OA
ATOM     63   O  BDP B   4      12.339  -8.300   7.7190  0.00  0.00     0.000 OA
ENDBRANCH 55 61
BRANCH 51 64
ATOM     64  O3  NAG B   5      16.119  -5.546   4.7640  0.00  0.00     0.000 O
BRANCH 64 67
ATOM     65  C1  NAG B   5      15.076  -5.647   1.2280  0.00  0.00     0.000 C
ATOM     66  C2  NAG B   5      15.978  -5.802   2.4410  0.00  0.00     0.000 C
ATOM     67  C3  NAG B   5      15.169  -5.600   3.7170  0.00  0.00     0.000 C
ATOM     68  C4  NAG B   5      14.385  -4.282   3.6690  0.00  0.00     0.000 C
ATOM     69  C5  NAG B   5      13.587  -4.178   2.3790  0.00  0.00     0.000 C
ATOM     70  O5  NAG B   5      14.452  -4.384   1.2520  0.00  0.00     0.000 O
ATOM     71   O  NAG B   5      13.541  -4.218   4.7990  0.00  0.00     0.000 O
ATOM     73  HD  NAG B   5      13.816  -3.397   4.8070  0.00  0.00     0.000 HD
ATOM     73   C  NAG B   5      12.870  -2.834   2.1860  0.00  0.00     0.000 C
ATOM     74   O  NAG B   5      13.845  -1.777   2.0750  0.00  0.00     0.000 O
ATOM     76  HD  NAG B   5      14.120  -0.956   2.0830  0.00  0.00     0.000 HD
BRANCH 66 78
ATOM     76   N  NAG B   5      16.588  -7.131   2.2410  0.00  0.00     0.000 N
ATOM     78  HD  NAG B   5      16.859  -6.317   2.3620  0.00  0.00     0.000 HD
ATOM     78   C  NAG B   5      17.884  -7.437   2.4070  0.00  0.00     0.000 C
ATOM     79   C  NAG B   5      18.197  -8.885   2.1450  0.00  0.00     0.000 C
ATOM     80   O  NAG B   5      18.772  -6.575   2.7470  0.00  0.00     0.000 OA
ENDBRANCH 66 78
BRANCH 65 81
ATOM     81  O4  BDP B   6      15.841  -5.790   0.0240  0.00  0.00     0.000 O
BRANCH 81 85
ATOM     82  C1  BDP B   6      15.368  -6.966  -4.0690  0.00  0.00     0.000 C
ATOM     83  C2  BDP B   6      14.551  -5.774  -3.5780  0.00  0.00     0.000 C
ATOM     84  C3  BDP B   6      15.080  -5.189  -2.2660  0.00  0.00     0.000 C
ATOM     85  C4  BDP B   6      15.262  -6.265  -1.1930  0.00  0.00     0.000 C
ATOM     86  C5  BDP B   6      16.069  -7.428  -1.8170  0.00  0.00     0.000 C
ATOM     87  O5  BDP B   6      15.439  -7.938  -3.0360  0.00  0.00     0.000 O
ATOM     88   O  BDP B   6      14.649  -4.795  -4.6100  0.00  0.00     0.000 O
ATOM     90  HD  BDP B   6      14.758  -3.942  -4.7120  0.00  0.00     0.000 HD
ATOM     90   O  BDP B   6      14.202  -4.156  -1.8120  0.00  0.00     0.000 O
ATOM     92  HD  BDP B   6      14.312  -3.303  -1.9150  0.00  0.00     0.000 HD
BRANCH 86 92
ATOM     92   C  BDP B   6      16.081  -8.621  -0.8920  0.00  0.00     0.000 C
ATOM     93   O  BDP B   6      17.057  -9.429  -0.9290  0.00  0.00     0.000 OA
ATOM     94   O  BDP B   6      15.105  -8.749  -0.0890  0.00  0.00     0.000 OA
ENDBRANCH 86 92
BRANCH 82 95
ATOM     95  O3  NAG B   7      14.679  -7.559  -5.1870  0.00  0.00     0.000 O
BRANCH 95 98
ATOM     96  C1  NAG B   7      15.998  -9.415  -8.0430  0.00  0.00     0.000 C
ATOM     97  C2  NAG B   7      15.304  -8.261  -7.3320  0.00  0.00     0.000 C
ATOM     98  C3  NAG B   7      15.272  -8.668  -5.8610  0.00  0.00     0.000 C
ATOM     99  C4  NAG B   7      14.494  -9.972  -5.7000  0.00  0.00     0.000 C
ATOM    100  C5  NAG B   7      15.057 -11.060  -6.6140  0.00  0.00     0.000 C
ATOM    101  O5  NAG B   7      15.135 -10.554  -7.9380  0.00  0.00     0.000 O
BRANCH 97 104
ATOM    102   N  NAG B   7      15.329  -6.802  -7.5030  0.00  0.00     0.000 N
ATOM    104  HD  NAG B   7      15.233  -6.007  -7.8340  0.00  0.00     0.000 HD
ATOM    104   O  NAG B   7      16.261  -4.749  -7.7260  0.00  0.00     0.000 OA
ATOM    105   C  NAG B   7      16.389  -5.970  -7.5080  0.00  0.00     0.000 C
ATOM    106   C  NAG B   7      17.748  -6.528  -7.2600  0.00  0.00     0.000 C
ENDBRANCH 97 104
ATOM    107   O  NAG B   7      14.916 -13.339  -7.1520  0.00  0.00     0.000 O
ATOM    109  HD  NAG B   7      15.454 -12.669  -7.0460  0.00  0.00     0.000 HD
ATOM    109   O  NAG B   7      14.916 -13.339  -7.1520  0.00  0.00     0.000 O
ATOM    111  HD  NAG B   7      15.454 -12.669  -7.0460  0.00  0.00     0.000 HD
ENDBRANCH 95 98
ENDBRANCH 82 95
ENDBRANCH 81 85
ENDBRANCH 65 81
ENDBRANCH 64 67
ENDBRANCH 51 64
ENDBRANCH 50 54
ENDBRANCH 34 50
ENDBRANCH 33 36
ENDBRANCH 20 33
ENDBRANCH 19 23
ENDBRANCH 1 19
TORSDOF 19
ENDMDL
MODEL 84
REMARK VINA RESULT:      -5.3     10.372     21.350
ROOT
ATOM      1  C1  NAG B   1      18.968  -1.574  -8.7900  0.00  0.00     0.000 C
ATOM      2  C2  NAG B   1      18.629  -2.059 -10.1960  0.00  0.00     0.000 C
ATOM      3  C3  NAG B   1      19.287  -1.207 -11.2620  0.00  0.00     0.000 C
ATOM      4  C4  NAG B   1      18.799   0.216 -11.0040  0.00  0.00     0.000 C
ATOM      5  C5  NAG B   1      19.294   0.675  -9.6260  0.00  0.00     0.000 C
ATOM      6  O5  NAG B   1      18.770  -0.167  -8.5780  0.00  0.00     0.000 O
ATOM      7   O  NAG B   1      18.938  -1.637 -12.5970  0.00  0.00     0.000 O
ATOM      9  HD  NAG B   1      18.968  -2.385 -12.1620  0.00  0.00     0.000 HD
ATOM      9   O  NAG B   1      19.292   1.089 -12.0070  0.00  0.00     0.000 O
ATOM     11  HD  NAG B   1      19.322   0.341 -11.5710  0.00  0.00     0.000 HD
ATOM     11   C  NAG B   1      18.933   2.149  -9.4050  0.00  0.00     0.000 C
ATOM     12   O  NAG B   1      18.754   2.436  -8.0190  0.00  0.00     0.000 O
ATOM     14  HD  NAG B   1      18.784   1.688  -7.5840  0.00  0.00     0.000 HD
ENDROOT
BRANCH 2 16
ATOM     14   N  NAG B   1      17.694  -3.199 -10.2070  0.00  0.00     0.000 N
ATOM     16  HD  NAG B   1      17.219  -3.696 -10.7340  0.00  0.00     0.000 HD
ATOM     16   C  NAG B   1      18.066  -4.451 -10.5260  0.00  0.00     0.000 C
ATOM     17   C  NAG B   1      19.491  -4.734 -10.9230  0.00  0.00     0.000 C
ATOM     18   O  NAG B   1      17.268  -5.387 -10.4760  0.00  0.00     0.000 OA
ENDBRANCH 2 16
BRANCH 1 19
ATOM     19  O4  BDP B   2      18.004  -2.232  -7.9790  0.00  0.00     0.000 O
BRANCH 19 23
ATOM     20  C1  BDP B   2      17.635  -3.102  -3.9730  0.00  0.00     0.000 C
ATOM     21  C2  BDP B   2      17.321  -1.679  -4.3840  0.00  0.00     0.000 C
ATOM     22  C3  BDP B   2      17.079  -1.579  -5.8730  0.00  0.00     0.000 C
ATOM     23  C4  BDP B   2      18.275  -2.191  -6.5980  0.00  0.00     0.000 C
ATOM     24  C5  BDP B   2      18.484  -3.613  -6.1150  0.00  0.00     0.000 C
ATOM     25  O5  BDP B   2      18.731  -3.609  -4.7220  0.00  0.00     0.000 O
ATOM     26   O  BDP B   2      16.189  -1.206  -3.6850  0.00  0.00     0.000 O
ATOM     28  HD  BDP B   2      16.354  -1.933  -3.2450  0.00  0.00     0.000 HD
ATOM     28   O  BDP B   2      16.879  -0.202  -6.2290  0.00  0.00     0.000 O
ATOM     30  HD  BDP B   2      17.044  -0.929  -5.7880  0.00  0.00     0.000 HD
BRANCH 24 30
ATOM     30   C  BDP B   2      19.644  -4.266  -6.7760  0.00  0.00     0.000 C
ATOM     31   O  BDP B   2      20.765  -3.726  -6.6330  0.00  0.00     0.000 OA
ATOM     32   O  BDP B   2      19.440  -5.317  -7.4480  0.00  0.00     0.000 OA
ENDBRANCH 24 30
BRANCH 20 33
ATOM     33  O3  NAG B   3      18.011  -2.991  -2.6220  0.00  0.00     0.000 O
BRANCH 33 36
ATOM     34  C1  NAG B   3      16.438  -4.427   0.4790  0.00  0.00     0.000 C
ATOM     35  C2  NAG B   3      16.912  -3.368  -0.4970  0.00  0.00     0.000 C
ATOM     36  C3  NAG B   3      17.390  -3.996  -1.8150  0.00  0.00     0.000 C
ATOM     37  C4  NAG B   3      18.413  -5.088  -1.5130  0.00  0.00     0.000 C
ATOM     38  C5  NAG B   3      17.866  -6.047  -0.4590  0.00  0.00     0.000 C
ATOM     39  O5  NAG B   3      17.511  -5.329   0.7110  0.00  0.00     0.000 O
ATOM     40   O  NAG B   3      18.719  -5.819  -2.7100  0.00  0.00     0.000 O
ATOM     42  HD  NAG B   3      18.496  -6.490  -2.2100  0.00  0.00     0.000 HD
ATOM     42   C  NAG B   3      18.873  -7.098   0.0010  0.00  0.00     0.000 C
ATOM     43   O  NAG B   3      19.955  -6.457   0.6870  0.00  0.00     0.000 O
ATOM     45  HD  NAG B   3      19.732  -7.128   1.1870  0.00  0.00     0.000 HD
BRANCH 35 47
ATOM     45   N  NAG B   3      17.013  -1.923  -0.3300  0.00  0.00     0.000 N
ATOM     47  HD  NAG B   3      17.762  -2.284  -0.5720  0.00  0.00     0.000 HD
ATOM     47   C  NAG B   3      16.050  -1.092  -0.6760  0.00  0.00     0.000 C
ATOM     48   C  NAG B   3      16.324   0.366  -0.4550  0.00  0.00     0.000 C
ATOM     49   O  NAG B   3      14.998  -1.486  -1.1760  0.00  0.00     0.000 OA
ENDBRANCH 35 47
BRANCH 34 50
ATOM     50  O4  BDP B   4      16.149  -3.695   1.6520  0.00  0.00     0.000 O
BRANCH 50 54
ATOM     51  C1  BDP B   4      12.610  -5.617   2.2310  0.00  0.00     0.000 C
ATOM     52  C2  BDP B   4      12.494  -4.101   2.1140  0.00  0.00     0.000 C
ATOM     53  C3  BDP B   4      13.770  -3.566   1.5400  0.00  0.00     0.000 C
ATOM     54  C4  BDP B   4      14.974  -4.038   2.4050  0.00  0.00     0.000 C
ATOM     55  C5  BDP B   4      14.945  -5.537   2.6690  0.00  0.00     0.000 C
ATOM     56  O5  BDP B   4      13.657  -5.937   3.1290  0.00  0.00     0.000 O
ATOM     57   O  BDP B   4      11.419  -3.756   1.2660  0.00  0.00     0.000 O
ATOM     59  HD  BDP B   4      10.788  -3.506   1.8050  0.00  0.00     0.000 HD
ATOM     59   O  BDP B   4      13.698  -2.128   1.6250  0.00  0.00     0.000 O
ATOM     61  HD  BDP B   4      13.067  -1.878   2.1630  0.00  0.00     0.000 HD
BRANCH 55 61
ATOM     61   C  BDP B   4      15.980  -5.880   3.7250  0.00  0.00     0.000 C
ATOM     62   O  BDP B   4      16.338  -4.971   4.5190  0.00  0.00     0.000 OA
ATOM     63   O  BDP B   4      16.434  -7.065   3.7590  0.00  0.00     0.000 OA
ENDBRANCH 55 61
BRANCH 51 64
ATOM     64  O3  NAG B   5      11.347  -6.104   2.7240  0.00  0.00     0.000 O
BRANCH 64 67
ATOM     65  C1  NAG B   5       9.506  -9.145   1.7450  0.00  0.00     0.000 C
ATOM     66  C2  NAG B   5       9.882  -7.674   1.7910  0.00  0.00     0.000 C
ATOM     67  C3  NAG B   5      11.195  -7.499   2.5450  0.00  0.00     0.000 C
ATOM     68  C4  NAG B   5      11.140  -8.187   3.9150  0.00  0.00     0.000 C
ATOM     69  C5  NAG B   5      10.665  -9.625   3.7760  0.00  0.00     0.000 C
ATOM     70  O5  NAG B   5       9.426  -9.663   3.0530  0.00  0.00     0.000 O
ATOM     71   O  NAG B   5      12.422  -8.127   4.5030  0.00  0.00     0.000 O
ATOM     73  HD  NAG B   5      11.957  -7.941   5.2100  0.00  0.00     0.000 HD
ATOM     73   C  NAG B   5      10.457 -10.354   5.1110  0.00  0.00     0.000 C
ATOM     74   O  NAG B   5       9.399  -9.713   5.8530  0.00  0.00     0.000 O
ATOM     76  HD  NAG B   5       8.934  -9.527   6.5600  0.00  0.00     0.000 HD
BRANCH 66 78
ATOM     76   N  NAG B   5      10.117  -7.058   0.4710  0.00  0.00     0.000 N
ATOM     78  HD  NAG B   5       9.471  -7.107   1.0460  0.00  0.00     0.000 HD
ATOM     78   C  NAG B   5       9.324  -6.158  -0.1310  0.00  0.00     0.000 C
ATOM     79   C  NAG B   5       9.844  -5.701  -1.4680  0.00  0.00     0.000 C
ATOM     80   O  NAG B   5       8.226  -5.735   0.3780  0.00  0.00     0.000 OA
ENDBRANCH 66 78
BRANCH 65 81
ATOM     81  O4  BDP B   6       8.248  -9.311   1.0770  0.00  0.00     0.000 O
BRANCH 81 85
ATOM     82  C1  BDP B   6       6.214 -12.173  -1.3790  0.00  0.00     0.000 C
ATOM     83  C2  BDP B   6       6.994 -12.702  -0.1780  0.00  0.00     0.000 C
ATOM     84  C3  BDP B   6       7.328 -11.610   0.8420  0.00  0.00     0.000 C
ATOM     85  C4  BDP B   6       7.998 -10.400   0.1860  0.00  0.00     0.000 C
ATOM     86  C5  BDP B   6       7.138  -9.982  -1.0300  0.00  0.00     0.000 C
ATOM     87  O5  BDP B   6       6.930 -11.093  -1.9600  0.00  0.00     0.000 O
ATOM     88   O  BDP B   6       6.148 -13.676   0.4260  0.00  0.00     0.000 O
ATOM     90  HD  BDP B   6       5.888 -13.941   1.2090  0.00  0.00     0.000 HD
ATOM     90   O  BDP B   6       8.153 -12.155   1.8750  0.00  0.00     0.000 O
ATOM     92  HD  BDP B   6       7.894 -12.420   2.6570  0.00  0.00     0.000 HD
BRANCH 86 92
ATOM     92   C  BDP B   6       7.861  -8.949  -1.8600  0.00  0.00     0.000 C
ATOM     93   O  BDP B   6       7.210  -7.981  -2.3580  0.00  0.00     0.000 OA
ATOM     94   O  BDP B   6       9.115  -9.087  -2.0050  0.00  0.00     0.000 OA
ENDBRANCH 86 92
BRANCH 82 95
ATOM     95  O3  NAG B   7       6.125 -13.225  -2.3610  0.00  0.00     0.000 O
BRANCH 95 98
ATOM     96  C1  NAG B   7       3.554 -15.321  -3.8870  0.00  0.00     0.000 C
ATOM     97  C2  NAG B   7       4.926 -14.997  -3.3100  0.00  0.00     0.000 C
ATOM     98  C3  NAG B   7       4.862 -13.512  -2.9590  0.00  0.00     0.000 C
ATOM     99  C4  NAG B   7       4.577 -12.693  -4.2150  0.00  0.00     0.000 C
ATOM    100  C5  NAG B   7       3.319 -13.200  -4.9230  0.00  0.00     0.000 C
ATOM    101  O5  NAG B   7       3.434 -14.601  -5.1190  0.00  0.00     0.000 O
BRANCH 97 104
ATOM    102   N  NAG B   7       5.246 -15.742  -2.0850  0.00  0.00     0.000 N
ATOM    104  HD  NAG B   7       5.387 -15.945  -1.2550  0.00  0.00     0.000 HD
ATOM    104   O  NAG B   7       6.531 -16.933  -0.6500  0.00  0.00     0.000 OA
ATOM    105   C  NAG B   7       6.381 -16.390  -1.7620  0.00  0.00     0.000 C
ATOM    106   C  NAG B   7       7.490 -16.447  -2.7560  0.00  0.00     0.000 C
ENDBRANCH 97 104
ATOM    107   O  NAG B   7       1.825 -12.752  -6.6760  0.00  0.00     0.000 O
ATOM    109  HD  NAG B   7       1.896 -13.033  -5.8590  0.00  0.00     0.000 HD
ATOM    109   O  NAG B   7       1.825 -12.752  -6.6760  0.00  0.00     0.000 O
ATOM    111  HD  NAG B   7       1.896 -13.033  -5.8590  0.00  0.00     0.000 HD
ENDBRANCH 95 98
ENDBRANCH 82 95
ENDBRANCH 81 85
ENDBRANCH 65 81
ENDBRANCH 64 67
ENDBRANCH 51 64
ENDBRANCH 50 54
ENDBRANCH 34 50
ENDBRANCH 33 36
ENDBRANCH 20 33
ENDBRANCH 19 23
ENDBRANCH 1 19
TORSDOF 19
ENDMDL
MODEL 85
REMARK VINA RESULT:      -5.3      9.332     13.554
ROOT
ATOM      1  C1  NAG B   1       7.966   5.096  18.9990  0.00  0.00     0.000 C
ATOM      2  C2  NAG B   1       8.050   5.688  20.4030  0.00  0.00     0.000 C
ATOM      3  C3  NAG B   1       7.472   7.087  20.4610  0.00  0.00     0.000 C
ATOM      4  C4  NAG B   1       8.262   7.898  19.4400  0.00  0.00     0.000 C
ATOM      5  C5  NAG B   1       8.019   7.319  18.0400  0.00  0.00     0.000 C
ATOM      6  O5  NAG B   1       8.468   5.950  17.9580  0.00  0.00     0.000 O
ATOM      7   O  NAG B   1       7.583   7.669  21.7800  0.00  0.00     0.000 O
ATOM      9  HD  NAG B   1       7.448   6.832  21.9560  0.00  0.00     0.000 HD
ATOM      9   O  NAG B   1       7.856   9.256  19.4750  0.00  0.00     0.000 O
ATOM     11  HD  NAG B   1       7.720   8.419  19.6510  0.00  0.00     0.000 HD
ATOM     11   C  NAG B   1       8.694   8.203  16.9840  0.00  0.00     0.000 C
ATOM     12   O  NAG B   1       9.072   7.442  15.8370  0.00  0.00     0.000 O
ATOM     14  HD  NAG B   1       8.936   6.605  16.0140  0.00  0.00     0.000 HD
ENDROOT
BRANCH 2 16
ATOM     14   N  NAG B   1       7.414   4.742  21.3370  0.00  0.00     0.000 N
ATOM     16  HD  NAG B   1       7.322   3.898  21.5070  0.00  0.00     0.000 HD
ATOM     16   C  NAG B   1       8.076   4.147  22.3440  0.00  0.00     0.000 C
ATOM     17   C  NAG B   1       9.545   4.415  22.5410  0.00  0.00     0.000 C
ATOM     18   O  NAG B   1       7.499   3.401  23.1350  0.00  0.00     0.000 OA
ENDBRANCH 2 16
BRANCH 1 19
ATOM     19  O4  BDP B   2       8.856   3.990  19.0600  0.00  0.00     0.000 O
BRANCH 19 23
ATOM     20  C1  BDP B   2       9.501   0.610  16.8000  0.00  0.00     0.000 C
ATOM     21  C2  BDP B   2      10.074   1.903  16.2570  0.00  0.00     0.000 C
ATOM     22  C3  BDP B   2      10.150   2.963  17.3320  0.00  0.00     0.000 C
ATOM     23  C4  BDP B   2       8.770   3.108  17.9660  0.00  0.00     0.000 C
ATOM     24  C5  BDP B   2       8.308   1.759  18.4820  0.00  0.00     0.000 C
ATOM     25  O5  BDP B   2       8.237   0.840  17.4080  0.00  0.00     0.000 O
ATOM     26   O  BDP B   2      11.359   1.680  15.7170  0.00  0.00     0.000 O
ATOM     28  HD  BDP B   2      11.090   0.864  15.8250  0.00  0.00     0.000 HD
ATOM     28   O  BDP B   2      10.609   4.194  16.7510  0.00  0.00     0.000 O
ATOM     30  HD  BDP B   2      10.340   3.378  16.8600  0.00  0.00     0.000 HD
BRANCH 24 30
ATOM     30   C  BDP B   2       6.959   1.827  19.1040  0.00  0.00     0.000 C
ATOM     31   O  BDP B   2       6.902   1.790  20.3550  0.00  0.00     0.000 OA
ATOM     32   O  BDP B   2       5.951   1.910  18.3470  0.00  0.00     0.000 OA
ENDBRANCH 24 30
BRANCH 20 33
ATOM     33  O3  NAG B   3       9.325  -0.191  15.6570  0.00  0.00     0.000 O
BRANCH 33 36
ATOM     34  C1  NAG B   3      10.203  -3.823  15.2200  0.00  0.00     0.000 C
ATOM     35  C2  NAG B   3      10.316  -2.318  15.0620  0.00  0.00     0.000 C
ATOM     36  C3  NAG B   3       9.329  -1.583  15.9820  0.00  0.00     0.000 C
ATOM     37  C4  NAG B   3       7.925  -2.144  15.7680  0.00  0.00     0.000 C
ATOM     38  C5  NAG B   3       7.944  -3.667  15.8650  0.00  0.00     0.000 C
ATOM     39  O5  NAG B   3       8.865  -4.200  14.9290  0.00  0.00     0.000 O
ATOM     40   O  NAG B   3       7.029  -1.614  16.7560  0.00  0.00     0.000 O
ATOM     42  HD  NAG B   3       6.877  -2.455  16.8920  0.00  0.00     0.000 HD
ATOM     42   C  NAG B   3       6.605  -4.323  15.5360  0.00  0.00     0.000 C
ATOM     43   O  NAG B   3       6.287  -4.097  14.1570  0.00  0.00     0.000 O
ATOM     45  HD  NAG B   3       6.136  -4.939  14.2920  0.00  0.00     0.000 HD
BRANCH 35 47
ATOM     45   N  NAG B   3      11.233  -1.682  14.1250  0.00  0.00     0.000 N
ATOM     47  HD  NAG B   3      10.403  -1.569  13.9070  0.00  0.00     0.000 HD
ATOM     47   C  NAG B   3      12.344  -1.082  14.5040  0.00  0.00     0.000 C
ATOM     48   C  NAG B   3      13.165  -0.461  13.4140  0.00  0.00     0.000 C
ATOM     49   O  NAG B   3      12.676  -1.012  15.6860  0.00  0.00     0.000 OA
ENDBRANCH 35 47
BRANCH 34 50
ATOM     50  O4  BDP B   4      11.082  -4.329  14.2380  0.00  0.00     0.000 O
BRANCH 50 54
ATOM     51  C1  BDP B   4      13.303  -7.622  13.3580  0.00  0.00     0.000 C
ATOM     52  C2  BDP B   4      12.031  -7.911  14.1460  0.00  0.00     0.000 C
ATOM     53  C3  BDP B   4      11.141  -6.708  14.0760  0.00  0.00     0.000 C
ATOM     54  C4  BDP B   4      11.914  -5.452  14.5720  0.00  0.00     0.000 C
ATOM     55  C5  BDP B   4      13.274  -5.308  13.9020  0.00  0.00     0.000 C
ATOM     56  O5  BDP B   4      13.990  -6.539  13.9590  0.00  0.00     0.000 O
ATOM     57   O  BDP B   4      11.357  -9.023  13.5980  0.00  0.00     0.000 O
ATOM     59  HD  BDP B   4      11.535  -9.675  14.1400  0.00  0.00     0.000 HD
ATOM     59   O  BDP B   4      10.046  -6.943  14.9850  0.00  0.00     0.000 O
ATOM     61  HD  BDP B   4      10.224  -7.594  15.5270  0.00  0.00     0.000 HD
BRANCH 55 61
ATOM     61   C  BDP B   4      14.073  -4.234  14.6170  0.00  0.00     0.000 C
ATOM     62   O  BDP B   4      13.915  -4.108  15.8600  0.00  0.00     0.000 OA
ATOM     63   O  BDP B   4      14.863  -3.515  13.9310  0.00  0.00     0.000 OA
ENDBRANCH 55 61
BRANCH 51 64
ATOM     64  O3  NAG B   5      14.106  -8.818  13.3900  0.00  0.00     0.000 O
BRANCH 64 67
ATOM     65  C1  NAG B   5      15.523  -9.372  10.0320  0.00  0.00     0.000 C
ATOM     66  C2  NAG B   5      14.470  -9.135  11.1000  0.00  0.00     0.000 C
ATOM     67  C3  NAG B   5      15.141  -8.804  12.4270  0.00  0.00     0.000 C
ATOM     68  C4  NAG B   5      16.192  -9.862  12.7910  0.00  0.00     0.000 C
ATOM     69  C5  NAG B   5      17.144 -10.097  11.6290  0.00  0.00     0.000 C
ATOM     70  O5  NAG B   5      16.399 -10.398  10.4400  0.00  0.00     0.000 O
ATOM     71   O  NAG B   5      16.886  -9.431  13.9420  0.00  0.00     0.000 O
ATOM     73  HD  NAG B   5      16.797 -10.265  14.1600  0.00  0.00     0.000 HD
ATOM     73   C  NAG B   5      18.153 -11.231  11.8570  0.00  0.00     0.000 C
ATOM     74   O  NAG B   5      17.450 -12.485  11.9840  0.00  0.00     0.000 O
ATOM     76  HD  NAG B   5      17.360 -13.318  12.2030  0.00  0.00     0.000 HD
BRANCH 66 78
ATOM     76   N  NAG B   5      13.054  -9.150  10.6820  0.00  0.00     0.000 N
ATOM     78  HD  NAG B   5      13.620  -8.574  10.9970  0.00  0.00     0.000 HD
ATOM     78   C  NAG B   5      12.273  -8.073  10.5040  0.00  0.00     0.000 C
ATOM     79   C  NAG B   5      10.877  -8.412  10.0560  0.00  0.00     0.000 C
ATOM     80   O  NAG B   5      12.675  -6.871  10.7060  0.00  0.00     0.000 OA
ENDBRANCH 66 78
BRANCH 65 81
ATOM     81  O4  BDP B   6      14.898  -9.729   8.7930  0.00  0.00     0.000 O
BRANCH 81 85
ATOM     82  C1  BDP B   6      15.123  -8.787   4.6180  0.00  0.00     0.000 C
ATOM     83  C2  BDP B   6      16.147  -9.773   5.1750  0.00  0.00     0.000 C
ATOM     84  C3  BDP B   6      15.741 -10.347   6.5360  0.00  0.00     0.000 C
ATOM     85  C4  BDP B   6      15.373  -9.247   7.5340  0.00  0.00     0.000 C
ATOM     86  C5  BDP B   6      14.363  -8.298   6.8460  0.00  0.00     0.000 C
ATOM     87  O5  BDP B   6      14.882  -7.772   5.5820  0.00  0.00     0.000 O
ATOM     88   O  BDP B   6      16.222 -10.825   4.2170  0.00  0.00     0.000 O
ATOM     90  HD  BDP B   6      16.269 -11.689   4.1770  0.00  0.00     0.000 HD
ATOM     90   O  BDP B   6      16.796 -11.168   7.0430  0.00  0.00     0.000 O
ATOM     92  HD  BDP B   6      16.843 -12.032   7.0030  0.00  0.00     0.000 HD
BRANCH 86 92
ATOM     92   C  BDP B   6      14.140  -7.063   7.6850  0.00  0.00     0.000 C
ATOM     93   O  BDP B   6      15.101  -6.584   8.3580  0.00  0.00     0.000 OA
ATOM     94   O  BDP B   6      12.983  -6.539   7.6590  0.00  0.00     0.000 OA
ENDBRANCH 86 92
BRANCH 82 95
ATOM     95  O3  NAG B   7      15.685  -8.162   3.4480  0.00  0.00     0.000 O
BRANCH 95 98
ATOM     96  C1  NAG B   7      14.123  -7.002   0.3570  0.00  0.00     0.000 C
ATOM     97  C2  NAG B   7      15.058  -7.844   1.2140  0.00  0.00     0.000 C
ATOM     98  C3  NAG B   7      14.856  -7.330   2.6380  0.00  0.00     0.000 C
ATOM     99  C4  NAG B   7      15.215  -5.848   2.7110  0.00  0.00     0.000 C
ATOM    100  C5  NAG B   7      14.439  -5.046   1.6640  0.00  0.00     0.000 C
ATOM    101  O5  NAG B   7      14.614  -5.657   0.3950  0.00  0.00     0.000 O
BRANCH 97 104
ATOM    102   N  NAG B   7      14.769  -9.282   1.3070  0.00  0.00     0.000 N
ATOM    104  HD  NAG B   7      14.586 -10.069   1.6190  0.00  0.00     0.000 HD
ATOM    104   O  NAG B   7      15.175 -11.502   1.1190  0.00  0.00     0.000 OA
ATOM    105   C  NAG B   7      15.530 -10.323   0.9200  0.00  0.00     0.000 C
ATOM    106   C  NAG B   7      16.834 -10.058   0.2500  0.00  0.00     0.000 C
ENDBRANCH 97 104
ATOM    107   O  NAG B   7      13.967  -2.875   0.9130  0.00  0.00     0.000 O
ATOM    109  HD  NAG B   7      13.637  -3.662   1.0560  0.00  0.00     0.000 HD
ATOM    109   O  NAG B   7      13.967  -2.875   0.9130  0.00  0.00     0.000 O
ATOM    111  HD  NAG B   7      13.637  -3.662   1.0560  0.00  0.00     0.000 HD
ENDBRANCH 95 98
ENDBRANCH 82 95
ENDBRANCH 81 85
ENDBRANCH 65 81
ENDBRANCH 64 67
ENDBRANCH 51 64
ENDBRANCH 50 54
ENDBRANCH 34 50
ENDBRANCH 33 36
ENDBRANCH 20 33
ENDBRANCH 19 23
ENDBRANCH 1 19
TORSDOF 19
ENDMDL
MODEL 86
REMARK VINA RESULT:      -5.2      9.117     15.061
ROOT
ATOM      1  C1  NAG B   1       8.725   4.346  17.8640  0.00  0.00     0.000 C
ATOM      2  C2  NAG B   1       8.937   5.084  19.1830  0.00  0.00     0.000 C
ATOM      3  C3  NAG B   1       8.593   6.555  19.0680  0.00  0.00     0.000 C
ATOM      4  C4  NAG B   1       9.480   7.095  17.9500  0.00  0.00     0.000 C
ATOM      5  C5  NAG B   1       9.113   6.396  16.6350  0.00  0.00     0.000 C
ATOM      6  O5  NAG B   1       9.333   4.972  16.7230  0.00  0.00     0.000 O
ATOM      7   O  NAG B   1       8.829   7.268  20.3030  0.00  0.00     0.000 O
ATOM      9  HD  NAG B   1       8.564   6.493  20.5830  0.00  0.00     0.000 HD
ATOM      9   O  NAG B   1       9.300   8.494  17.8170  0.00  0.00     0.000 O
ATOM     11  HD  NAG B   1       9.035   7.719  18.0970  0.00  0.00     0.000 HD
ATOM     11   C  NAG B   1       9.897   7.020  15.4740  0.00  0.00     0.000 C
ATOM     12   O  NAG B   1      10.119   6.073  14.4310  0.00  0.00     0.000 O
ATOM     14  HD  NAG B   1       9.854   5.298  14.7100  0.00  0.00     0.000 HD
ENDROOT
BRANCH 2 16
ATOM     14   N  NAG B   1       8.176   4.407  20.2480  0.00  0.00     0.000 N
ATOM     16  HD  NAG B   1       7.924   3.626  20.5260  0.00  0.00     0.000 HD
ATOM     16   C  NAG B   1       8.759   3.809  21.3010  0.00  0.00     0.000 C
ATOM     17   C  NAG B   1      10.260   3.787  21.4170  0.00  0.00     0.000 C
ATOM     18   O  NAG B   1       8.088   3.297  22.1970  0.00  0.00     0.000 OA
ENDBRANCH 2 16
BRANCH 1 19
ATOM     19  O4  BDP B   2       9.425   3.125  18.0600  0.00  0.00     0.000 O
BRANCH 19 23
ATOM     20  C1  BDP B   2       9.408  -0.600  16.3080  0.00  0.00     0.000 C
ATOM     21  C2  BDP B   2      10.050   0.516  15.5100  0.00  0.00     0.000 C
ATOM     22  C3  BDP B   2      10.375   1.702  16.3900  0.00  0.00     0.000 C
ATOM     23  C4  BDP B   2       9.108   2.113  17.1340  0.00  0.00     0.000 C
ATOM     24  C5  BDP B   2       8.565   0.923  17.9020  0.00  0.00     0.000 C
ATOM     25  O5  BDP B   2       8.262  -0.124  17.0000  0.00  0.00     0.000 O
ATOM     26   O  BDP B   2      11.226   0.054  14.8810  0.00  0.00     0.000 O
ATOM     28  HD  BDP B   2      10.883  -0.696  15.1450  0.00  0.00     0.000 HD
ATOM     28   O  BDP B   2      10.893   2.767  15.5770  0.00  0.00     0.000 O
ATOM     30  HD  BDP B   2      10.551   2.016  15.8410  0.00  0.00     0.000 HD
BRANCH 24 30
ATOM     30   C  BDP B   2       7.320   1.253  18.6430  0.00  0.00     0.000 C
ATOM     31   O  BDP B   2       6.303   1.528  17.9640  0.00  0.00     0.000 OA
ATOM     32   O  BDP B   2       7.352   1.248  19.9070  0.00  0.00     0.000 OA
ENDBRANCH 24 30
BRANCH 20 33
ATOM     33  O3  NAG B   3       9.005  -1.528  15.3310  0.00  0.00     0.000 O
BRANCH 33 36
ATOM     34  C1  NAG B   3       9.517  -5.221  15.8320  0.00  0.00     0.000 C
ATOM     35  C2  NAG B   3       9.849  -3.795  15.4340  0.00  0.00     0.000 C
ATOM     36  C3  NAG B   3       8.757  -2.818  15.8960  0.00  0.00     0.000 C
ATOM     37  C4  NAG B   3       7.396  -3.316  15.4160  0.00  0.00     0.000 C
ATOM     38  C5  NAG B   3       7.205  -4.782  15.7950  0.00  0.00     0.000 C
ATOM     39  O5  NAG B   3       8.262  -5.561  15.2620  0.00  0.00     0.000 O
ATOM     40   O  NAG B   3       6.350  -2.529  16.0050  0.00  0.00     0.000 O
ATOM     42  HD  NAG B   3       6.068  -3.311  16.2480  0.00  0.00     0.000 HD
ATOM     42   C  NAG B   3       5.924  -5.400  15.2400  0.00  0.00     0.000 C
ATOM     43   O  NAG B   3       5.997  -5.450  13.8100  0.00  0.00     0.000 O
ATOM     45  HD  NAG B   3       5.715  -6.232  14.0530  0.00  0.00     0.000 HD
BRANCH 35 47
ATOM     45   N  NAG B   3      11.152  -3.417  15.9650  0.00  0.00     0.000 N
ATOM     47  HD  NAG B   3      10.863  -4.166  16.2920  0.00  0.00     0.000 HD
ATOM     47   C  NAG B   3      12.086  -2.845  15.2330  0.00  0.00     0.000 C
ATOM     48   C  NAG B   3      13.379  -2.539  15.9310  0.00  0.00     0.000 C
ATOM     49   O  NAG B   3      11.920  -2.599  14.0400  0.00  0.00     0.000 OA
ENDBRANCH 35 47
BRANCH 34 50
ATOM     50  O4  BDP B   4      10.549  -5.982  15.2390  0.00  0.00     0.000 O
BRANCH 50 54
ATOM     51  C1  BDP B   4      12.245  -9.658  15.6410  0.00  0.00     0.000 C
ATOM     52  C2  BDP B   4      10.859  -9.530  16.2640  0.00  0.00     0.000 C
ATOM     53  C3  BDP B   4      10.208  -8.290  15.7330  0.00  0.00     0.000 C
ATOM     54  C4  BDP B   4      11.128  -7.062  15.9910  0.00  0.00     0.000 C
ATOM     55  C5  BDP B   4      12.560  -7.305  15.5330  0.00  0.00     0.000 C
ATOM     56  O5  BDP B   4      13.037  -8.552  16.0310  0.00  0.00     0.000 O
ATOM     57   O  BDP B   4      10.068 -10.652  15.9340  0.00  0.00     0.000 O
ATOM     59  HD  BDP B   4      10.065 -11.136  16.6530  0.00  0.00     0.000 HD
ATOM     59   O  BDP B   4       8.992  -8.100  16.4850  0.00  0.00     0.000 O
ATOM     61  HD  BDP B   4       8.989  -8.584  17.2030  0.00  0.00     0.000 HD
BRANCH 55 61
ATOM     61   C  BDP B   4      13.447  -6.188  16.0520  0.00  0.00     0.000 C
ATOM     62   O  BDP B   4      14.449  -5.861  15.3630  0.00  0.00     0.000 OA
ATOM     63   O  BDP B   4      13.137  -5.635  17.1510  0.00  0.00     0.000 OA
ENDBRANCH 55 61
BRANCH 51 64
ATOM     64  O3  NAG B   5      12.816 -10.891  16.1210  0.00  0.00     0.000 O
BRANCH 64 67
ATOM     65  C1  NAG B   5      14.278 -13.676  14.1980  0.00  0.00     0.000 C
ATOM     66  C2  NAG B   5      13.245 -12.897  14.9940  0.00  0.00     0.000 C
ATOM     67  C3  NAG B   5      13.723 -11.465  15.2000  0.00  0.00     0.000 C
ATOM     68  C4  NAG B   5      15.139 -11.436  15.7920  0.00  0.00     0.000 C
ATOM     69  C5  NAG B   5      16.077 -12.317  14.9820  0.00  0.00     0.000 C
ATOM     70  O5  NAG B   5      15.523 -13.635  14.8560  0.00  0.00     0.000 O
ATOM     71   O  NAG B   5      15.590 -10.099  15.8190  0.00  0.00     0.000 O
ATOM     73  HD  NAG B   5      15.881 -10.340  16.5980  0.00  0.00     0.000 HD
ATOM     73   C  NAG B   5      17.487 -12.450  15.5750  0.00  0.00     0.000 C
ATOM     74   O  NAG B   5      17.413 -13.111  16.8550  0.00  0.00     0.000 O
ATOM     76  HD  NAG B   5      17.705 -13.352  17.6340  0.00  0.00     0.000 HD
BRANCH 66 78
ATOM     76   N  NAG B   5      12.011 -13.099  14.2110  0.00  0.00     0.000 N
ATOM     78  HD  NAG B   5      12.273 -13.214  15.0280  0.00  0.00     0.000 HD
ATOM     78   C  NAG B   5      10.796 -13.376  14.7110  0.00  0.00     0.000 C
ATOM     79   C  NAG B   5       9.730 -13.507  13.6580  0.00  0.00     0.000 C
ATOM     80   O  NAG B   5      10.569 -13.524  15.9650  0.00  0.00     0.000 OA
ENDBRANCH 66 78
BRANCH 65 81
ATOM     81  O4  BDP B   6      13.855 -15.037  14.0410  0.00  0.00     0.000 O
BRANCH 81 85
ATOM     82  C1  BDP B   6      14.224 -18.147  11.1160  0.00  0.00     0.000 C
ATOM     83  C2  BDP B   6      15.146 -18.208  12.3310  0.00  0.00     0.000 C
ATOM     84  C3  BDP B   6      14.671 -17.319  13.4840  0.00  0.00     0.000 C
ATOM     85  C4  BDP B   6      14.390 -15.887  13.0240  0.00  0.00     0.000 C
ATOM     86  C5  BDP B   6      13.480 -15.958  11.7750  0.00  0.00     0.000 C
ATOM     87  O5  BDP B   6      14.062 -16.792  10.7220  0.00  0.00     0.000 O
ATOM     88   O  BDP B   6      15.140 -19.571  12.7450  0.00  0.00     0.000 O
ATOM     90  HD  BDP B   6      15.109 -20.049  13.4670  0.00  0.00     0.000 HD
ATOM     90   O  BDP B   6      15.639 -17.339  14.5350  0.00  0.00     0.000 O
ATOM     92  HD  BDP B   6      15.609 -17.818  15.2570  0.00  0.00     0.000 HD
BRANCH 86 92
ATOM     92   C  BDP B   6      13.358 -14.599  11.1310  0.00  0.00     0.000 C
ATOM     93   O  BDP B   6      14.341 -14.122  10.4860  0.00  0.00     0.000 OA
ATOM     94   O  BDP B   6      12.247 -13.993  11.2470  0.00  0.00     0.000 OA
ENDBRANCH 86 92
BRANCH 82 95
ATOM     95  O3  NAG B   7      14.857 -18.851  10.0300  0.00  0.00     0.000 O
BRANCH 95 98
ATOM     96  C1  NAG B   7      13.910 -21.492   7.6920  0.00  0.00     0.000 C
ATOM     97  C2  NAG B   7      14.809 -20.767   8.6850  0.00  0.00     0.000 C
ATOM     98  C3  NAG B   7      14.044 -19.498   9.0530  0.00  0.00     0.000 C
ATOM     99  C4  NAG B   7      13.801 -18.657   7.8010  0.00  0.00     0.000 C
ATOM    100  C5  NAG B   7      13.112 -19.483   6.7140  0.00  0.00     0.000 C
ATOM    101  O5  NAG B   7      13.845 -20.682   6.5130  0.00  0.00     0.000 O
BRANCH 97 104
ATOM    102   N  NAG B   7      15.113 -21.250  10.0390  0.00  0.00     0.000 N
ATOM    104  HD  NAG B   7      15.317 -21.275  10.8800  0.00  0.00     0.000 HD
ATOM    104   O  NAG B   7      16.274 -22.348  11.6440  0.00  0.00     0.000 OA
ATOM    105   C  NAG B   7      16.102 -22.071  10.4410  0.00  0.00     0.000 C
ATOM    106   C  NAG B   7      17.022 -22.650   9.4210  0.00  0.00     0.000 C
ENDBRANCH 97 104
ATOM    107   O  NAG B   7      12.111 -19.361   4.5960  0.00  0.00     0.000 O
ATOM    109  HD  NAG B   7      12.064 -19.723   5.3820  0.00  0.00     0.000 HD
ATOM    109   O  NAG B   7      12.111 -19.361   4.5960  0.00  0.00     0.000 O
ATOM    111  HD  NAG B   7      12.064 -19.723   5.3820  0.00  0.00     0.000 HD
ENDBRANCH 95 98
ENDBRANCH 82 95
ENDBRANCH 81 85
ENDBRANCH 65 81
ENDBRANCH 64 67
ENDBRANCH 51 64
ENDBRANCH 50 54
ENDBRANCH 34 50
ENDBRANCH 33 36
ENDBRANCH 20 33
ENDBRANCH 19 23
ENDBRANCH 1 19
TORSDOF 19
ENDMDL
MODEL 87
REMARK VINA RESULT:      -5.1      9.573     16.874
ROOT
ATOM      1  C1  NAG B   1      10.304   6.362  14.5940  0.00  0.00     0.000 C
ATOM      2  C2  NAG B   1       9.770   7.290  13.5070  0.00  0.00     0.000 C
ATOM      3  C3  NAG B   1       9.462   8.672  14.0450  0.00  0.00     0.000 C
ATOM      4  C4  NAG B   1       8.457   8.456  15.1710  0.00  0.00     0.000 C
ATOM      5  C5  NAG B   1       9.115   7.627  16.2820  0.00  0.00     0.000 C
ATOM      6  O5  NAG B   1       9.515   6.329  15.7940  0.00  0.00     0.000 O
ATOM      7   O  NAG B   1       8.919   9.545  13.0290  0.00  0.00     0.000 O
ATOM      9  HD  NAG B   1       9.480   9.062  12.5800  0.00  0.00     0.000 HD
ATOM      9   O  NAG B   1       8.032   9.705  15.6920  0.00  0.00     0.000 O
ATOM     11  HD  NAG B   1       8.593   9.222  15.2430  0.00  0.00     0.000 HD
ATOM     11   C  NAG B   1       8.168   7.515  17.4830  0.00  0.00     0.000 C
ATOM     12   O  NAG B   1       8.391   6.306  18.2070  0.00  0.00     0.000 O
ATOM     14  HD  NAG B   1       8.952   5.823  17.7570  0.00  0.00     0.000 HD
ENDROOT
BRANCH 2 16
ATOM     14   N  NAG B   1       9.705   6.534  12.2430  0.00  0.00     0.000 N
ATOM     16  HD  NAG B   1       9.352   6.543  11.4520  0.00  0.00     0.000 HD
ATOM     16   C  NAG B   1      10.420   6.863  11.1530  0.00  0.00     0.000 C
ATOM     17   C  NAG B   1      11.320   8.070  11.1800  0.00  0.00     0.000 C
ATOM     18   O  NAG B   1      10.377   6.178  10.1310  0.00  0.00     0.000 OA
ENDBRANCH 2 16
BRANCH 1 19
ATOM     19  O4  BDP B   2      10.181   5.073  14.0090  0.00  0.00     0.000 O
BRANCH 19 23
ATOM     20  C1  BDP B   2      12.003   1.419  14.5300  0.00  0.00     0.000 C
ATOM     21  C2  BDP B   2      10.978   1.815  15.5720  0.00  0.00     0.000 C
ATOM     22  C3  BDP B   2      10.093   2.934  15.0740  0.00  0.00     0.000 C
ATOM     23  C4  BDP B   2      10.984   4.081  14.6030  0.00  0.00     0.000 C
ATOM     24  C5  BDP B   2      11.955   3.569  13.5580  0.00  0.00     0.000 C
ATOM     25  O5  BDP B   2      12.759   2.549  14.1180  0.00  0.00     0.000 O
ATOM     26   O  BDP B   2      10.185   0.702  15.9260  0.00  0.00     0.000 O
ATOM     28  HD  BDP B   2      10.813   0.311  15.4750  0.00  0.00     0.000 HD
ATOM     28   O  BDP B   2       9.203   3.338  16.1260  0.00  0.00     0.000 O
ATOM     30  HD  BDP B   2       9.831   2.947  15.6750  0.00  0.00     0.000 HD
BRANCH 24 30
ATOM     30   C  BDP B   2      12.863   4.638  13.0640  0.00  0.00     0.000 C
ATOM     31   O  BDP B   2      13.721   5.077  13.8640  0.00  0.00     0.000 OA
ATOM     32   O  BDP B   2      12.718   5.049  11.8770  0.00  0.00     0.000 OA
ENDBRANCH 24 30
BRANCH 20 33
ATOM     33  O3  NAG B   3      12.847   0.519  15.2060  0.00  0.00     0.000 O
BRANCH 33 36
ATOM     34  C1  NAG B   3      15.145  -1.908  13.4800  0.00  0.00     0.000 C
ATOM     35  C2  NAG B   3      13.886  -1.400  14.1560  0.00  0.00     0.000 C
ATOM     36  C3  NAG B   3      13.952   0.117  14.3930  0.00  0.00     0.000 C
ATOM     37  C4  NAG B   3      15.251   0.459  15.1190  0.00  0.00     0.000 C
ATOM     38  C5  NAG B   3      16.441  -0.172  14.4010  0.00  0.00     0.000 C
ATOM     39  O5  NAG B   3      16.256  -1.574  14.2990  0.00  0.00     0.000 O
ATOM     40   O  NAG B   3      15.424   1.884  15.1690  0.00  0.00     0.000 O
ATOM     42  HD  NAG B   3      16.185   1.680  14.8090  0.00  0.00     0.000 HD
ATOM     42   C  NAG B   3      17.769   0.010  15.1310  0.00  0.00     0.000 C
ATOM     43   O  NAG B   3      17.734  -0.702  16.3740  0.00  0.00     0.000 O
ATOM     45  HD  NAG B   3      18.495  -0.906  16.0140  0.00  0.00     0.000 HD
BRANCH 35 47
ATOM     45   N  NAG B   3      12.714  -2.123  14.6320  0.00  0.00     0.000 N
ATOM     47  HD  NAG B   3      13.074  -1.630  15.2460  0.00  0.00     0.000 HD
ATOM     47   C  NAG B   3      11.642  -2.319  13.8910  0.00  0.00     0.000 C
ATOM     48   C  NAG B   3      10.516  -3.067  14.5410  0.00  0.00     0.000 C
ATOM     49   O  NAG B   3      11.558  -1.891  12.7410  0.00  0.00     0.000 OA
ENDBRANCH 35 47
BRANCH 34 50
ATOM     50  O4  BDP B   4      14.963  -3.308  13.4450  0.00  0.00     0.000 O
BRANCH 50 54
ATOM     51  C1  BDP B   4      16.511  -6.825  12.1080  0.00  0.00     0.000 C
ATOM     52  C2  BDP B   4      17.368  -6.113  13.1480  0.00  0.00     0.000 C
ATOM     53  C3  BDP B   4      16.535  -5.063  13.8170  0.00  0.00     0.000 C
ATOM     54  C4  BDP B   4      15.929  -4.112  12.7460  0.00  0.00     0.000 C
ATOM     55  C5  BDP B   4      15.250  -4.872  11.6140  0.00  0.00     0.000 C
ATOM     56  O5  BDP B   4      16.107  -5.897  11.1190  0.00  0.00     0.000 O
ATOM     57   O  BDP B   4      17.829  -7.031  14.1160  0.00  0.00     0.000 O
ATOM     59  HD  BDP B   4      18.657  -7.173  13.9050  0.00  0.00     0.000 HD
ATOM     59   O  BDP B   4      17.425  -4.287  14.6470  0.00  0.00     0.000 O
ATOM     61  HD  BDP B   4      18.253  -4.429  14.4360  0.00  0.00     0.000 HD
BRANCH 55 61
ATOM     61   C  BDP B   4      14.923  -3.907  10.4890  0.00  0.00     0.000 C
ATOM     62   O  BDP B   4      13.949  -4.182   9.7390  0.00  0.00     0.000 OA
ATOM     63   O  BDP B   4      15.643  -2.871  10.3570  0.00  0.00     0.000 OA
ENDBRANCH 55 61
BRANCH 51 64
ATOM     64  O3  NAG B   5      17.319  -7.869  11.5310  0.00  0.00     0.000 O
BRANCH 64 67
ATOM     65  C1  NAG B   5      16.397 -11.425  11.2280  0.00  0.00     0.000 C
ATOM     66  C2  NAG B   5      16.998 -10.168  11.8310  0.00  0.00     0.000 C
ATOM     67  C3  NAG B   5      16.547  -8.947  11.0400  0.00  0.00     0.000 C
ATOM     68  C4  NAG B   5      16.821  -9.130   9.5400  0.00  0.00     0.000 C
ATOM     69  C5  NAG B   5      16.262 -10.456   9.0500  0.00  0.00     0.000 C
ATOM     70  O5  NAG B   5      16.756 -11.527   9.8690  0.00  0.00     0.000 O
ATOM     71   O  NAG B   5      16.249  -8.045   8.8410  0.00  0.00     0.000 O
ATOM     73  HD  NAG B   5      16.996  -8.089   8.4050  0.00  0.00     0.000 HD
ATOM     73   C  NAG B   5      16.600 -10.783   7.5890  0.00  0.00     0.000 C
ATOM     74   O  NAG B   5      18.028 -10.936   7.4450  0.00  0.00     0.000 O
ATOM     76  HD  NAG B   5      18.775 -10.980   7.0090  0.00  0.00     0.000 HD
BRANCH 66 78
ATOM     76   N  NAG B   5      17.767 -10.343  13.0780  0.00  0.00     0.000 N
ATOM     78  HD  NAG B   5      17.050  -9.929  12.8250  0.00  0.00     0.000 HD
ATOM     78   C  NAG B   5      17.362  -9.994  14.3100  0.00  0.00     0.000 C
ATOM     79   C  NAG B   5      18.364 -10.320  15.3850  0.00  0.00     0.000 C
ATOM     80   O  NAG B   5      16.234  -9.431  14.5460  0.00  0.00     0.000 OA
ENDBRANCH 66 78
BRANCH 65 81
ATOM     81  O4  BDP B   6      16.856 -12.582  11.9410  0.00  0.00     0.000 O
BRANCH 81 85
ATOM     82  C1  BDP B   6      16.308 -16.831  11.9910  0.00  0.00     0.000 C
ATOM     83  C2  BDP B   6      17.248 -16.254  10.9370  0.00  0.00     0.000 C
ATOM     84  C3  BDP B   6      17.689 -14.822  11.2530  0.00  0.00     0.000 C
ATOM     85  C4  BDP B   6      16.498 -13.909  11.5480  0.00  0.00     0.000 C
ATOM     86  C5  BDP B   6      15.606 -14.614  12.5980  0.00  0.00     0.000 C
ATOM     87  O5  BDP B   6      15.205 -15.953  12.1620  0.00  0.00     0.000 O
ATOM     88   O  BDP B   6      18.386 -17.112  10.9310  0.00  0.00     0.000 O
ATOM     90  HD  BDP B   6      19.250 -17.075  10.8910  0.00  0.00     0.000 HD
ATOM     90   O  BDP B   6      18.471 -14.311  10.1710  0.00  0.00     0.000 O
ATOM     92  HD  BDP B   6      19.335 -14.273  10.1310  0.00  0.00     0.000 HD
BRANCH 86 92
ATOM     92   C  BDP B   6      14.296 -13.881  12.7590  0.00  0.00     0.000 C
ATOM     93   O  BDP B   6      13.344 -14.120  11.9550  0.00  0.00     0.000 OA
ATOM     94   O  BDP B   6      14.198 -13.060  13.7230  0.00  0.00     0.000 OA
ENDBRANCH 86 92
BRANCH 82 95
ATOM     95  O3  NAG B   7      15.800 -18.089  11.5060  0.00  0.00     0.000 O
BRANCH 95 98
ATOM     96  C1  NAG B   7      14.874 -21.180  13.2180  0.00  0.00     0.000 C
ATOM     97  C2  NAG B   7      15.643 -20.310  12.2330  0.00  0.00     0.000 C
ATOM     98  C3  NAG B   7      15.037 -18.916  12.3830  0.00  0.00     0.000 C
ATOM     99  C4  NAG B   7      13.548 -18.959  12.0470  0.00  0.00     0.000 C
ATOM    100  C5  NAG B   7      12.831 -20.022  12.8810  0.00  0.00     0.000 C
ATOM    101  O5  NAG B   7      13.523 -21.254  12.7500  0.00  0.00     0.000 O
BRANCH 97 104
ATOM    102   N  NAG B   7      17.065 -19.976  12.3920  0.00  0.00     0.000 N
ATOM    104  HD  NAG B   7      17.822 -19.555  12.3750  0.00  0.00     0.000 HD
ATOM    104   O  NAG B   7      19.297 -20.166  12.0560  0.00  0.00     0.000 OA
ATOM    105   C  NAG B   7      18.142 -20.603  11.8820  0.00  0.00     0.000 C
ATOM    106   C  NAG B   7      17.946 -21.842  11.0770  0.00  0.00     0.000 C
ENDBRANCH 97 104
ATOM    107   O  NAG B   7      10.722 -20.895  13.4220  0.00  0.00     0.000 O
ATOM    109  HD  NAG B   7      11.502 -20.686  13.7320  0.00  0.00     0.000 HD
ATOM    109   O  NAG B   7      10.722 -20.895  13.4220  0.00  0.00     0.000 O
ATOM    111  HD  NAG B   7      11.502 -20.686  13.7320  0.00  0.00     0.000 HD
ENDBRANCH 95 98
ENDBRANCH 82 95
ENDBRANCH 81 85
ENDBRANCH 65 81
ENDBRANCH 64 67
ENDBRANCH 51 64
ENDBRANCH 50 54
ENDBRANCH 34 50
ENDBRANCH 33 36
ENDBRANCH 20 33
ENDBRANCH 19 23
ENDBRANCH 1 19
TORSDOF 19
ENDMDL
MODEL 88
REMARK VINA RESULT:      -5.1      5.415     19.696
ROOT
ATOM      1  C1  NAG B   1      16.898  -6.247  -6.6480  0.00  0.00     0.000 C
ATOM      2  C2  NAG B   1      18.103  -6.808  -7.3970  0.00  0.00     0.000 C
ATOM      3  C3  NAG B   1      17.738  -7.258  -8.7970  0.00  0.00     0.000 C
ATOM      4  C4  NAG B   1      16.632  -8.293  -8.6170  0.00  0.00     0.000 C
ATOM      5  C5  NAG B   1      15.410  -7.618  -7.9790  0.00  0.00     0.000 C
ATOM      6  O5  NAG B   1      15.732  -7.085  -6.6770  0.00  0.00     0.000 O
ATOM      7   O  NAG B   1      18.866  -7.826  -9.5000  0.00  0.00     0.000 O
ATOM      9  HD  NAG B   1      19.237  -7.205  -9.0230  0.00  0.00     0.000 HD
ATOM      9   O  NAG B   1      16.273  -8.847  -9.8720  0.00  0.00     0.000 O
ATOM     11  HD  NAG B   1      16.643  -8.226  -9.3960  0.00  0.00     0.000 HD
ATOM     11   C  NAG B   1      14.240  -8.607  -7.9150  0.00  0.00     0.000 C
ATOM     12   O  NAG B   1      13.375  -8.315  -6.8190  0.00  0.00     0.000 O
ATOM     14  HD  NAG B   1      13.745  -7.694  -6.3420  0.00  0.00     0.000 HD
ENDROOT
BRANCH 2 16
ATOM     14   N  NAG B   1      19.388  -6.932  -6.6870  0.00  0.00     0.000 N
ATOM     16  HD  NAG B   1      20.217  -7.159  -6.7960  0.00  0.00     0.000 HD
ATOM     16   C  NAG B   1      20.367  -6.015  -6.7730  0.00  0.00     0.000 C
ATOM     17   C  NAG B   1      20.187  -4.803  -7.6490  0.00  0.00     0.000 C
ATOM     18   O  NAG B   1      21.407  -6.128  -6.1260  0.00  0.00     0.000 OA
ENDBRANCH 2 16
BRANCH 1 19
ATOM     19  O4  BDP B   2      17.336  -6.232  -5.2960  0.00  0.00     0.000 O
BRANCH 19 23
ATOM     20  C1  BDP B   2      15.516  -6.262  -1.6040  0.00  0.00     0.000 C
ATOM     21  C2  BDP B   2      15.485  -7.562  -2.3800  0.00  0.00     0.000 C
ATOM     22  C3  BDP B   2      16.513  -7.563  -3.4890  0.00  0.00     0.000 C
ATOM     23  C4  BDP B   2      16.302  -6.318  -4.3450  0.00  0.00     0.000 C
ATOM     24  C5  BDP B   2      16.365  -5.085  -3.4650  0.00  0.00     0.000 C
ATOM     25  O5  BDP B   2      15.353  -5.154  -2.4790  0.00  0.00     0.000 O
ATOM     26   O  BDP B   2      15.716  -8.654  -1.5160  0.00  0.00     0.000 O
ATOM     28  HD  BDP B   2      15.591  -8.020  -0.9390  0.00  0.00     0.000 HD
ATOM     28   O  BDP B   2      16.384  -8.772  -4.2530  0.00  0.00     0.000 O
ATOM     30  HD  BDP B   2      16.259  -8.138  -3.6770  0.00  0.00     0.000 HD
BRANCH 24 30
ATOM     30   C  BDP B   2      16.154  -3.832  -4.2380  0.00  0.00     0.000 C
ATOM     31   O  BDP B   2      15.051  -3.691  -4.8140  0.00  0.00     0.000 OA
ATOM     32   O  BDP B   2      17.093  -2.986  -4.2790  0.00  0.00     0.000 OA
ENDBRANCH 24 30
BRANCH 20 33
ATOM     33  O3  NAG B   3      14.399  -6.347  -0.7530  0.00  0.00     0.000 O
BRANCH 33 36
ATOM     34  C1  NAG B   3      14.218  -6.235   3.0030  0.00  0.00     0.000 C
ATOM     35  C2  NAG B   3      14.120  -6.818   1.6060  0.00  0.00     0.000 C
ATOM     36  C3  NAG B   3      14.692  -5.853   0.5560  0.00  0.00     0.000 C
ATOM     37  C4  NAG B   3      14.043  -4.481   0.7230  0.00  0.00     0.000 C
ATOM     38  C5  NAG B   3      14.123  -4.032   2.1800  0.00  0.00     0.000 C
ATOM     39  O5  NAG B   3      13.517  -5.000   3.0190  0.00  0.00     0.000 O
ATOM     40   O  NAG B   3      14.706  -3.519  -0.1110  0.00  0.00     0.000 O
ATOM     42  HD  NAG B   3      14.777  -3.098   0.6420  0.00  0.00     0.000 HD
ATOM     42   C  NAG B   3      13.383  -2.727   2.4650  0.00  0.00     0.000 C
ATOM     43   O  NAG B   3      11.977  -2.923   2.2700  0.00  0.00     0.000 O
ATOM     45  HD  NAG B   3      12.048  -2.502   3.0240  0.00  0.00     0.000 HD
BRANCH 35 47
ATOM     45   N  NAG B   3      13.527  -8.098   1.2420  0.00  0.00     0.000 N
ATOM     47  HD  NAG B   3      13.123  -7.427   0.8730  0.00  0.00     0.000 HD
ATOM     47   C  NAG B   3      14.242  -9.184   1.0260  0.00  0.00     0.000 C
ATOM     48   C  NAG B   3      13.475 -10.415   0.6400  0.00  0.00     0.000 C
ATOM     49   O  NAG B   3      15.468  -9.184   1.1080  0.00  0.00     0.000 OA
ENDBRANCH 35 47
BRANCH 34 50
ATOM     50  O4  BDP B   4      13.556  -7.187   3.8090  0.00  0.00     0.000 O
BRANCH 50 54
ATOM     51  C1  BDP B   4      13.464  -8.799   7.5430  0.00  0.00     0.000 C
ATOM     52  C2  BDP B   4      13.613  -7.282   7.5130  0.00  0.00     0.000 C
ATOM     53  C3  BDP B   4      13.260  -6.793   6.1420  0.00  0.00     0.000 C
ATOM     54  C4  BDP B   4      14.129  -7.529   5.0820  0.00  0.00     0.000 C
ATOM     55  C5  BDP B   4      14.113  -9.040   5.2690  0.00  0.00     0.000 C
ATOM     56  O5  BDP B   4      14.377  -9.377   6.6280  0.00  0.00     0.000 O
ATOM     57   O  BDP B   4      12.750  -6.686   8.4590  0.00  0.00     0.000 O
ATOM     59  HD  BDP B   4      13.267  -6.468   9.1180  0.00  0.00     0.000 HD
ATOM     59   O  BDP B   4      13.598  -5.391   6.0970  0.00  0.00     0.000 O
ATOM     61  HD  BDP B   4      14.115  -5.172   6.7570  0.00  0.00     0.000 HD
BRANCH 55 61
ATOM     61   C  BDP B   4      15.177  -9.666   4.3840  0.00  0.00     0.000 C
ATOM     62   O  BDP B   4      14.911 -10.763   3.8270  0.00  0.00     0.000 OA
ATOM     63   O  BDP B   4      16.280  -9.054   4.2470  0.00  0.00     0.000 OA
ENDBRANCH 55 61
BRANCH 51 64
ATOM     64  O3  NAG B   5      13.747  -9.229   8.8890  0.00  0.00     0.000 O
BRANCH 64 67
ATOM     65  C1  NAG B   5      11.769 -11.250  11.2550  0.00  0.00     0.000 C
ATOM     66  C2  NAG B   5      12.421 -10.019  10.6490  0.00  0.00     0.000 C
ATOM     67  C3  NAG B   5      12.981 -10.355   9.2720  0.00  0.00     0.000 C
ATOM     68  C4  NAG B   5      13.887 -11.593   9.3320  0.00  0.00     0.000 C
ATOM     69  C5  NAG B   5      13.182 -12.741  10.0370  0.00  0.00     0.000 C
ATOM     70  O5  NAG B   5      12.700 -12.306  11.3180  0.00  0.00     0.000 O
ATOM     71   O  NAG B   5      14.253 -11.948   8.0160  0.00  0.00     0.000 O
ATOM     73  HD  NAG B   5      15.024 -12.066   8.3920  0.00  0.00     0.000 HD
ATOM     73   C  NAG B   5      14.058 -13.981  10.2570  0.00  0.00     0.000 C
ATOM     74   O  NAG B   5      15.150 -13.652  11.1420  0.00  0.00     0.000 O
ATOM     76  HD  NAG B   5      15.921 -13.770  11.5170  0.00  0.00     0.000 HD
BRANCH 66 78
ATOM     76   N  NAG B   5      12.414  -8.687  11.2820  0.00  0.00     0.000 N
ATOM     78  HD  NAG B   5      11.989  -9.092  10.6460  0.00  0.00     0.000 HD
ATOM     78   C  NAG B   5      11.488  -7.732  11.1020  0.00  0.00     0.000 C
ATOM     79   C  NAG B   5      11.747  -6.486  11.9040  0.00  0.00     0.000 C
ATOM     80   O  NAG B   5      10.483  -7.866  10.3160  0.00  0.00     0.000 OA
ENDBRANCH 66 78
BRANCH 65 81
ATOM     81  O4  BDP B   6      11.282 -10.952  12.5700  0.00  0.00     0.000 O
BRANCH 81 85
ATOM     82  C1  BDP B   6       8.449 -12.414  15.4340  0.00  0.00     0.000 C
ATOM     83  C2  BDP B   6       9.768 -13.170  15.2960  0.00  0.00     0.000 C
ATOM     84  C3  BDP B   6      10.847 -12.358  14.5750  0.00  0.00     0.000 C
ATOM     85  C4  BDP B   6      10.345 -11.796  13.2430  0.00  0.00     0.000 C
ATOM     86  C5  BDP B   6       8.994 -11.088  13.5050  0.00  0.00     0.000 C
ATOM     87  O5  BDP B   6       8.027 -11.978  14.1500  0.00  0.00     0.000 O
ATOM     88   O  BDP B   6      10.189 -13.445  16.6290  0.00  0.00     0.000 O
ATOM     90  HD  BDP B   6      10.905 -13.444  17.1160  0.00  0.00     0.000 HD
ATOM     90   O  BDP B   6      12.009 -13.169  14.3830  0.00  0.00     0.000 O
ATOM     92  HD  BDP B   6      12.725 -13.168  14.8700  0.00  0.00     0.000 HD
BRANCH 86 92
ATOM     92   C  BDP B   6       8.329 -10.717  12.2010  0.00  0.00     0.000 C
ATOM     93   O  BDP B   6       7.925  -9.529  12.0220  0.00  0.00     0.000 OA
ATOM     94   O  BDP B   6       8.222 -11.625  11.3190  0.00  0.00     0.000 OA
ENDBRANCH 86 92
BRANCH 82 95
ATOM     95  O3  NAG B   7       7.454 -13.326  15.9400  0.00  0.00     0.000 O
BRANCH 95 98
ATOM     96  C1  NAG B   7       4.773 -12.969  18.3950  0.00  0.00     0.000 C
ATOM     97  C2  NAG B   7       6.030 -13.573  17.7820  0.00  0.00     0.000 C
ATOM     98  C3  NAG B   7       6.243 -12.802  16.4810  0.00  0.00     0.000 C
ATOM     99  C4  NAG B   7       5.033 -12.981  15.5670  0.00  0.00     0.000 C
ATOM    100  C5  NAG B   7       3.741 -12.599  16.2900  0.00  0.00     0.000 C
ATOM    101  O5  NAG B   7       3.682 -13.294  17.5260  0.00  0.00     0.000 O
BRANCH 97 104
ATOM    102   N  NAG B   7       7.322 -13.397  18.4570  0.00  0.00     0.000 N
ATOM    104  HD  NAG B   7       8.157 -13.224  18.6110  0.00  0.00     0.000 HD
ATOM    104   O  NAG B   7       9.175 -14.022  19.6000  0.00  0.00     0.000 OA
ATOM    105   C  NAG B   7       8.058 -14.306  19.1250  0.00  0.00     0.000 C
ATOM    106   C  NAG B   7       7.528 -15.689  19.2860  0.00  0.00     0.000 C
ENDBRANCH 97 104
ATOM    107   O  NAG B   7       1.436 -12.270  15.9990  0.00  0.00     0.000 O
ATOM    109  HD  NAG B   7       2.149 -11.977  16.3930  0.00  0.00     0.000 HD
ATOM    109   O  NAG B   7       1.436 -12.270  15.9990  0.00  0.00     0.000 O
ATOM    111  HD  NAG B   7       2.149 -11.977  16.3930  0.00  0.00     0.000 HD
ENDBRANCH 95 98
ENDBRANCH 82 95
ENDBRANCH 81 85
ENDBRANCH 65 81
ENDBRANCH 64 67
ENDBRANCH 51 64
ENDBRANCH 50 54
ENDBRANCH 34 50
ENDBRANCH 33 36
ENDBRANCH 20 33
ENDBRANCH 19 23
ENDBRANCH 1 19
TORSDOF 19
ENDMDL
MODEL 89
REMARK VINA RESULT:      -5.1      9.280     18.543
ROOT
ATOM      1  C1  NAG B   1      10.222   6.960  14.5830  0.00  0.00     0.000 C
ATOM      2  C2  NAG B   1       9.781   7.648  13.2940  0.00  0.00     0.000 C
ATOM      3  C3  NAG B   1       9.449   9.109  13.5190  0.00  0.00     0.000 C
ATOM      4  C4  NAG B   1       8.359   9.120  14.5860  0.00  0.00     0.000 C
ATOM      5  C5  NAG B   1       8.924   8.535  15.8870  0.00  0.00     0.000 C
ATOM      6  O5  NAG B   1       9.345   7.166  15.7020  0.00  0.00     0.000 O
ATOM      7   O  NAG B   1       8.992   9.757  12.3090  0.00  0.00     0.000 O
ATOM      9  HD  NAG B   1       9.580   9.195  12.0100  0.00  0.00     0.000 HD
ATOM      9   O  NAG B   1       7.911  10.446  14.8110  0.00  0.00     0.000 O
ATOM     11  HD  NAG B   1       8.499   9.885  14.5120  0.00  0.00     0.000 HD
ATOM     11   C  NAG B   1       7.888   8.663  17.0110  0.00  0.00     0.000 C
ATOM     12   O  NAG B   1       8.043   7.626  17.9780  0.00  0.00     0.000 O
ATOM     14  HD  NAG B   1       8.631   7.065  17.6790  0.00  0.00     0.000 HD
ENDROOT
BRANCH 2 16
ATOM     14   N  NAG B   1       9.665   6.798  12.0950  0.00  0.00     0.000 N
ATOM     16  HD  NAG B   1       9.454   6.816  11.2550  0.00  0.00     0.000 HD
ATOM     16   C  NAG B   1      10.600   6.758  11.1300  0.00  0.00     0.000 C
ATOM     17   C  NAG B   1      11.825   7.628  11.2330  0.00  0.00     0.000 C
ATOM     18   O  NAG B   1      10.492   5.999  10.1680  0.00  0.00     0.000 OA
ENDBRANCH 2 16
BRANCH 1 19
ATOM     19  O4  BDP B   2      10.128   5.579  14.2620  0.00  0.00     0.000 O
BRANCH 19 23
ATOM     20  C1  BDP B   2      11.639   2.075  15.8060  0.00  0.00     0.000 C
ATOM     21  C2  BDP B   2      10.669   2.836  16.6860  0.00  0.00     0.000 C
ATOM     22  C3  BDP B   2       9.875   3.842  15.8850  0.00  0.00     0.000 C
ATOM     23  C4  BDP B   2      10.853   4.728  15.1180  0.00  0.00     0.000 C
ATOM     24  C5  BDP B   2      11.759   3.861  14.2680  0.00  0.00     0.000 C
ATOM     25  O5  BDP B   2      12.482   2.973  15.0990  0.00  0.00     0.000 O
ATOM     26   O  BDP B   2       9.789   1.941  17.3320  0.00  0.00     0.000 O
ATOM     28  HD  BDP B   2      10.373   1.386  17.0150  0.00  0.00     0.000 HD
ATOM     28   O  BDP B   2       9.040   4.602  16.7730  0.00  0.00     0.000 O
ATOM     30  HD  BDP B   2       9.624   4.047  16.4560  0.00  0.00     0.000 HD
BRANCH 24 30
ATOM     30   C  BDP B   2      12.747   4.664  13.5000  0.00  0.00     0.000 C
ATOM     31   O  BDP B   2      13.451   5.476  14.1440  0.00  0.00     0.000 OA
ATOM     32   O  BDP B   2      12.819   4.494  12.2500  0.00  0.00     0.000 OA
ENDBRANCH 24 30
BRANCH 20 33
ATOM     33  O3  NAG B   3      12.413   1.332  16.7150  0.00  0.00     0.000 O
BRANCH 33 36
ATOM     34  C1  NAG B   3      13.448  -2.173  15.8230  0.00  0.00     0.000 C
ATOM     35  C2  NAG B   3      12.555  -1.053  16.3230  0.00  0.00     0.000 C
ATOM     36  C3  NAG B   3      13.182   0.324  16.0550  0.00  0.00     0.000 C
ATOM     37  C4  NAG B   3      14.606   0.347  16.6070  0.00  0.00     0.000 C
ATOM     38  C5  NAG B   3      15.386  -0.867  16.1090  0.00  0.00     0.000 C
ATOM     39  O5  NAG B   3      14.708  -2.059  16.4700  0.00  0.00     0.000 O
ATOM     40   O  NAG B   3      15.274   1.548  16.1900  0.00  0.00     0.000 O
ATOM     42  HD  NAG B   3      15.857   0.976  15.9010  0.00  0.00     0.000 HD
ATOM     42   C  NAG B   3      16.781  -0.995  16.7160  0.00  0.00     0.000 C
ATOM     43   O  NAG B   3      16.670  -1.244  18.1230  0.00  0.00     0.000 O
ATOM     45  HD  NAG B   3      17.253  -1.816  17.8340  0.00  0.00     0.000 HD
BRANCH 35 47
ATOM     45   N  NAG B   3      11.233  -1.034  15.7110  0.00  0.00     0.000 N
ATOM     47  HD  NAG B   3      11.807  -1.490  15.2490  0.00  0.00     0.000 HD
ATOM     47   C  NAG B   3      10.117  -1.092  16.4110  0.00  0.00     0.000 C
ATOM     48   C  NAG B   3       8.841  -1.083  15.6230  0.00  0.00     0.000 C
ATOM     49   O  NAG B   3      10.122  -1.175  17.6370  0.00  0.00     0.000 OA
ENDBRANCH 35 47
BRANCH 34 50
ATOM     50  O4  BDP B   4      12.783  -3.345  16.2460  0.00  0.00     0.000 O
BRANCH 50 54
ATOM     51  C1  BDP B   4      12.200  -7.264  15.3250  0.00  0.00     0.000 C
ATOM     52  C2  BDP B   4      13.634  -6.780  15.1470  0.00  0.00     0.000 C
ATOM     53  C3  BDP B   4      13.790  -5.471  15.8590  0.00  0.00     0.000 C
ATOM     54  C4  BDP B   4      12.720  -4.464  15.3470  0.00  0.00     0.000 C
ATOM     55  C5  BDP B   4      11.318  -5.057  15.3530  0.00  0.00     0.000 C
ATOM     56  O5  BDP B   4      11.315  -6.336  14.7250  0.00  0.00     0.000 O
ATOM     57   O  BDP B   4      14.539  -7.718  15.6900  0.00  0.00     0.000 O
ATOM     59  HD  BDP B   4      14.864  -8.131  15.0020  0.00  0.00     0.000 HD
ATOM     59   O  BDP B   4      15.090  -4.955  15.5080  0.00  0.00     0.000 O
ATOM     61  HD  BDP B   4      15.416  -5.368  14.8200  0.00  0.00     0.000 HD
BRANCH 55 61
ATOM     61   C  BDP B   4      10.379  -4.130  14.6010  0.00  0.00     0.000 C
ATOM     62   O  BDP B   4      10.875  -3.362  13.7360  0.00  0.00     0.000 OA
ATOM     63   O  BDP B   4       9.142  -4.175  14.8770  0.00  0.00     0.000 OA
ENDBRANCH 55 61
BRANCH 51 64
ATOM     64  O3  NAG B   5      12.101  -8.552  14.6860  0.00  0.00     0.000 O
BRANCH 64 67
ATOM     65  C1  NAG B   5      10.292 -11.502  15.9570  0.00  0.00     0.000 C
ATOM     66  C2  NAG B   5      11.453 -10.556  15.7080  0.00  0.00     0.000 C
ATOM     67  C3  NAG B   5      10.945  -9.266  15.0770  0.00  0.00     0.000 C
ATOM     68  C4  NAG B   5      10.084  -9.559  13.8400  0.00  0.00     0.000 C
ATOM     69  C5  NAG B   5       9.009 -10.585  14.1640  0.00  0.00     0.000 C
ATOM     70  O5  NAG B   5       9.606 -11.750  14.7510  0.00  0.00     0.000 O
ATOM     71   O  NAG B   5       9.517  -8.349  13.3870  0.00  0.00     0.000 O
ATOM     73  HD  NAG B   5       9.731  -8.678  12.6150  0.00  0.00     0.000 HD
ATOM     73   C  NAG B   5       8.179 -11.035  12.9540  0.00  0.00     0.000 C
ATOM     74   O  NAG B   5       9.031 -11.717  12.0100  0.00  0.00     0.000 O
ATOM     76  HD  NAG B   5       9.246 -12.046  11.2380  0.00  0.00     0.000 HD
BRANCH 66 78
ATOM     76   N  NAG B   5      12.744 -11.028  16.2460  0.00  0.00     0.000 N
ATOM     78  HD  NAG B   5      12.228 -10.339  16.3400  0.00  0.00     0.000 HD
ATOM     78   C  NAG B   5      13.407 -10.498  17.2850  0.00  0.00     0.000 C
ATOM     79   C  NAG B   5      14.690 -11.215  17.6070  0.00  0.00     0.000 C
ATOM     80   O  NAG B   5      12.992  -9.473  17.9350  0.00  0.00     0.000 OA
ENDBRANCH 66 78
BRANCH 65 81
ATOM     81  O4  BDP B   6      10.771 -12.736  16.5080  0.00  0.00     0.000 O
BRANCH 81 85
ATOM     82  C1  BDP B   6       9.602 -15.790  19.2770  0.00  0.00     0.000 C
ATOM     83  C2  BDP B   6       8.784 -15.648  17.9970  0.00  0.00     0.000 C
ATOM     84  C3  BDP B   6       9.505 -14.837  16.9170  0.00  0.00     0.000 C
ATOM     85  C4  BDP B   6      10.009 -13.495  17.4500  0.00  0.00     0.000 C
ATOM     86  C5  BDP B   6      10.788 -13.765  18.7590  0.00  0.00     0.000 C
ATOM     87  O5  BDP B   6       9.980 -14.499  19.7330  0.00  0.00     0.000 O
ATOM     88   O  BDP B   6       8.570 -16.978  17.5320  0.00  0.00     0.000 O
ATOM     90  HD  BDP B   6       8.569 -17.436  16.7970  0.00  0.00     0.000 HD
ATOM     90   O  BDP B   6       8.635 -14.650  15.7970  0.00  0.00     0.000 O
ATOM     92  HD  BDP B   6       8.634 -15.108  15.0620  0.00  0.00     0.000 HD
BRANCH 86 92
ATOM     92   C  BDP B   6      11.109 -12.468  19.4620  0.00  0.00     0.000 C
ATOM     93   O  BDP B   6      10.241 -11.545  19.4950  0.00  0.00     0.000 OA
ATOM     94   O  BDP B   6      12.247 -12.369  20.0170  0.00  0.00     0.000 OA
ENDBRANCH 86 92
BRANCH 82 95
ATOM     95  O3  NAG B   7       8.766 -16.389  20.2860  0.00  0.00     0.000 O
BRANCH 95 98
ATOM     96  C1  NAG B   7       8.815 -19.399  22.3540  0.00  0.00     0.000 C
ATOM     97  C2  NAG B   7       8.195 -18.334  21.4590  0.00  0.00     0.000 C
ATOM     98  C3  NAG B   7       9.330 -17.352  21.1760  0.00  0.00     0.000 C
ATOM     99  C4  NAG B   7       9.839 -16.754  22.4850  0.00  0.00     0.000 C
ATOM    100  C5  NAG B   7      10.228 -17.856  23.4730  0.00  0.00     0.000 C
ATOM    101  O5  NAG B   7       9.146 -18.766  23.5950  0.00  0.00     0.000 O
BRANCH 97 104
ATOM    102   N  NAG B   7       7.751 -18.600  20.0840  0.00  0.00     0.000 N
ATOM    104  HD  NAG B   7       7.572 -18.509  19.2420  0.00  0.00     0.000 HD
ATOM    104   O  NAG B   7       6.280 -19.074  18.4280  0.00  0.00     0.000 OA
ATOM    105   C  NAG B   7       6.524 -18.937  19.6430  0.00  0.00     0.000 C
ATOM    106   C  NAG B   7       5.428 -19.136  20.6340  0.00  0.00     0.000 C
ENDBRANCH 97 104
ATOM    107   O  NAG B   7      11.225 -18.261  25.5570  0.00  0.00     0.000 O
ATOM    109  HD  NAG B   7      11.148 -18.544  24.7420  0.00  0.00     0.000 HD
ATOM    109   O  NAG B   7      11.225 -18.261  25.5570  0.00  0.00     0.000 O
ATOM    111  HD  NAG B   7      11.148 -18.544  24.7420  0.00  0.00     0.000 HD
ENDBRANCH 95 98
ENDBRANCH 82 95
ENDBRANCH 81 85
ENDBRANCH 65 81
ENDBRANCH 64 67
ENDBRANCH 51 64
ENDBRANCH 50 54
ENDBRANCH 34 50
ENDBRANCH 33 36
ENDBRANCH 20 33
ENDBRANCH 19 23
ENDBRANCH 1 19
TORSDOF 19
ENDMDL
MODEL 90
REMARK VINA RESULT:      -5.1      9.306     19.129
ROOT
ATOM      1  C1  NAG B   1      10.263   7.008  14.5760  0.00  0.00     0.000 C
ATOM      2  C2  NAG B   1       9.847   7.694  13.2770  0.00  0.00     0.000 C
ATOM      3  C3  NAG B   1       9.564   9.168  13.4840  0.00  0.00     0.000 C
ATOM      4  C4  NAG B   1       8.474   9.229  14.5480  0.00  0.00     0.000 C
ATOM      5  C5  NAG B   1       9.016   8.641  15.8570  0.00  0.00     0.000 C
ATOM      6  O5  NAG B   1       9.391   7.257  15.6900  0.00  0.00     0.000 O
ATOM      7   O  NAG B   1       9.132   9.816  12.2650  0.00  0.00     0.000 O
ATOM      9  HD  NAG B   1       9.701   9.232  11.9740  0.00  0.00     0.000 HD
ATOM      9   O  NAG B   1       8.070  10.572  14.7560  0.00  0.00     0.000 O
ATOM     11  HD  NAG B   1       8.639   9.988  14.4650  0.00  0.00     0.000 HD
ATOM     11   C  NAG B   1       7.983   8.817  16.9780  0.00  0.00     0.000 C
ATOM     12   O  NAG B   1       8.101   7.787  17.9580  0.00  0.00     0.000 O
ATOM     14  HD  NAG B   1       8.670   7.203  17.6660  0.00  0.00     0.000 HD
ENDROOT
BRANCH 2 16
ATOM     14   N  NAG B   1       9.699   6.845  12.0820  0.00  0.00     0.000 N
ATOM     16  HD  NAG B   1       9.498   6.870  11.2400  0.00  0.00     0.000 HD
ATOM     16   C  NAG B   1      10.640   6.751  11.1260  0.00  0.00     0.000 C
ATOM     17   C  NAG B   1      11.907   7.557  11.2370  0.00  0.00     0.000 C
ATOM     18   O  NAG B   1      10.502   5.993  10.1670  0.00  0.00     0.000 OA
ENDBRANCH 2 16
BRANCH 1 19
ATOM     19  O4  BDP B   2      10.123   5.627  14.2710  0.00  0.00     0.000 O
BRANCH 19 23
ATOM     20  C1  BDP B   2      11.386   2.087  15.9500  0.00  0.00     0.000 C
ATOM     21  C2  BDP B   2      10.469   2.945  16.7980  0.00  0.00     0.000 C
ATOM     22  C3  BDP B   2       9.748   3.973  15.9560  0.00  0.00     0.000 C
ATOM     23  C4  BDP B   2      10.785   4.761  15.1620  0.00  0.00     0.000 C
ATOM     24  C5  BDP B   2      11.632   3.802  14.3480  0.00  0.00     0.000 C
ATOM     25  O5  BDP B   2      12.291   2.899  15.2150  0.00  0.00     0.000 O
ATOM     26   O  BDP B   2       9.528   2.137  17.4720  0.00  0.00     0.000 O
ATOM     28  HD  BDP B   2      10.073   1.532  17.1780  0.00  0.00     0.000 HD
ATOM     28   O  BDP B   2       8.965   4.821  16.8110  0.00  0.00     0.000 O
ATOM     30  HD  BDP B   2       9.510   4.215  16.5180  0.00  0.00     0.000 HD
BRANCH 24 30
ATOM     30   C  BDP B   2      12.675   4.507  13.5560  0.00  0.00     0.000 C
ATOM     31   O  BDP B   2      13.417   5.308  14.1690  0.00  0.00     0.000 OA
ATOM     32   O  BDP B   2      12.752   4.269  12.3170  0.00  0.00     0.000 OA
ENDBRANCH 24 30
BRANCH 20 33
ATOM     33  O3  NAG B   3      12.106   1.327  16.8900  0.00  0.00     0.000 O
BRANCH 33 36
ATOM     34  C1  NAG B   3      12.695  -2.336  16.2730  0.00  0.00     0.000 C
ATOM     35  C2  NAG B   3      11.961  -1.083  16.7100  0.00  0.00     0.000 C
ATOM     36  C3  NAG B   3      12.720   0.185  16.2880  0.00  0.00     0.000 C
ATOM     37  C4  NAG B   3      14.166   0.092  16.7670  0.00  0.00     0.000 C
ATOM     38  C5  NAG B   3      14.778  -1.242  16.3450  0.00  0.00     0.000 C
ATOM     39  O5  NAG B   3      13.995  -2.312  16.8450  0.00  0.00     0.000 O
ATOM     40   O  NAG B   3      14.938   1.168  16.2120  0.00  0.00     0.000 O
ATOM     42  HD  NAG B   3      15.436   0.511  15.9480  0.00  0.00     0.000 HD
ATOM     42   C  NAG B   3      16.183  -1.477  16.8940  0.00  0.00     0.000 C
ATOM     43   O  NAG B   3      16.128  -1.590  18.3210  0.00  0.00     0.000 O
ATOM     45  HD  NAG B   3      16.626  -2.248  18.0580  0.00  0.00     0.000 HD
BRANCH 35 47
ATOM     45   N  NAG B   3      10.616  -0.962  16.1630  0.00  0.00     0.000 N
ATOM     47  HD  NAG B   3      11.109  -1.517  15.7160  0.00  0.00     0.000 HD
ATOM     47   C  NAG B   3       9.543  -0.834  16.9180  0.00  0.00     0.000 C
ATOM     48   C  NAG B   3       8.232  -0.743  16.1950  0.00  0.00     0.000 C
ATOM     49   O  NAG B   3       9.609  -0.817  18.1460  0.00  0.00     0.000 OA
ENDBRANCH 35 47
BRANCH 34 50
ATOM     50  O4  BDP B   4      11.930  -3.383  16.8320  0.00  0.00     0.000 O
BRANCH 50 54
ATOM     51  C1  BDP B   4      10.911  -7.296  16.3770  0.00  0.00     0.000 C
ATOM     52  C2  BDP B   4      12.400  -7.008  16.2160  0.00  0.00     0.000 C
ATOM     53  C3  BDP B   4      12.687  -5.645  16.7660  0.00  0.00     0.000 C
ATOM     54  C4  BDP B   4      11.766  -4.596  16.0780  0.00  0.00     0.000 C
ATOM     55  C5  BDP B   4      10.303  -5.017  16.0830  0.00  0.00     0.000 C
ATOM     56  O5  BDP B   4      10.169  -6.358  15.6200  0.00  0.00     0.000 O
ATOM     57   O  BDP B   4      13.163  -7.966  16.9190  0.00  0.00     0.000 O
ATOM     59  HD  BDP B   4      13.461  -8.499  16.3050  0.00  0.00     0.000 HD
ATOM     59   O  BDP B   4      14.052  -5.332  16.4230  0.00  0.00     0.000 O
ATOM     61  HD  BDP B   4      14.350  -5.865  15.8100  0.00  0.00     0.000 HD
BRANCH 55 61
ATOM     61   C  BDP B   4       9.513  -4.094  15.1730  0.00  0.00     0.000 C
ATOM     62   O  BDP B   4      10.153  -3.370  14.3650  0.00  0.00     0.000 OA
ATOM     63   O  BDP B   4       8.248  -4.095  15.2680  0.00  0.00     0.000 OA
ENDBRANCH 55 61
BRANCH 51 64
ATOM     64  O3  NAG B   5      10.682  -8.635  15.9000  0.00  0.00     0.000 O
BRANCH 64 67
ATOM     65  C1  NAG B   5       8.248 -10.921  17.4650  0.00  0.00     0.000 C
ATOM     66  C2  NAG B   5       9.562 -10.192  17.2420  0.00  0.00     0.000 C
ATOM     67  C3  NAG B   5       9.380  -9.102  16.1940  0.00  0.00     0.000 C
ATOM     68  C4  NAG B   5       8.738  -9.666  14.9180  0.00  0.00     0.000 C
ATOM     69  C5  NAG B   5       7.482 -10.455  15.2520  0.00  0.00     0.000 C
ATOM     70  O5  NAG B   5       7.778 -11.448  16.2450  0.00  0.00     0.000 O
ATOM     71   O  NAG B   5       8.452  -8.594  14.0450  0.00  0.00     0.000 O
ATOM     73  HD  NAG B   5       8.760  -9.150  13.4570  0.00  0.00     0.000 HD
ATOM     73   C  NAG B   5       6.843 -11.164  14.0490  0.00  0.00     0.000 C
ATOM     74   O  NAG B   5       7.751 -12.161  13.5370  0.00  0.00     0.000 O
ATOM     76  HD  NAG B   5       8.058 -12.717  12.9490  0.00  0.00     0.000 HD
BRANCH 66 78
ATOM     76   N  NAG B   5      10.570 -10.628  18.2280  0.00  0.00     0.000 N
ATOM     78  HD  NAG B   5      10.248  -9.880  17.9340  0.00  0.00     0.000 HD
ATOM     78   C  NAG B   5      11.164  -9.849  19.1460  0.00  0.00     0.000 C
ATOM     79   C  NAG B   5      12.136 -10.591  20.0230  0.00  0.00     0.000 C
ATOM     80   O  NAG B   5      10.932  -8.593  19.2580  0.00  0.00     0.000 OA
ENDBRANCH 66 78
BRANCH 65 81
ATOM     81  O4  BDP B   6       8.426 -11.978  18.4160  0.00  0.00     0.000 O
BRANCH 81 85
ATOM     82  C1  BDP B   6       6.154 -14.164  21.3190  0.00  0.00     0.000 C
ATOM     83  C2  BDP B   6       6.107 -14.651  19.8740  0.00  0.00     0.000 C
ATOM     84  C3  BDP B   6       7.240 -14.081  19.0160  0.00  0.00     0.000 C
ATOM     85  C4  BDP B   6       7.327 -12.557  19.1240  0.00  0.00     0.000 C
ATOM     86  C5  BDP B   6       7.333 -12.186  20.6260  0.00  0.00     0.000 C
ATOM     87  O5  BDP B   6       6.176 -12.743  21.3300  0.00  0.00     0.000 O
ATOM     88   O  BDP B   6       6.232 -16.069  19.9460  0.00  0.00     0.000 O
ATOM     90  HD  BDP B   6       6.634 -16.725  19.5480  0.00  0.00     0.000 HD
ATOM     90   O  BDP B   6       7.064 -14.488  17.6570  0.00  0.00     0.000 O
ATOM     92  HD  BDP B   6       7.466 -15.144  17.2580  0.00  0.00     0.000 HD
BRANCH 86 92
ATOM     92   C  BDP B   6       7.178 -10.695  20.8050  0.00  0.00     0.000 C
ATOM     93   O  BDP B   6       6.037 -10.164  20.6530  0.00  0.00     0.000 OA
ATOM     94   O  BDP B   6       8.213 -10.033  21.1260  0.00  0.00     0.000 OA
ENDBRANCH 86 92
BRANCH 82 95
ATOM     95  O3  NAG B   7       4.948 -14.593  21.9820  0.00  0.00     0.000 O
BRANCH 95 98
ATOM     96  C1  NAG B   7       4.118 -16.384  25.0550  0.00  0.00     0.000 C
ATOM     97  C2  NAG B   7       4.029 -16.044  23.5730  0.00  0.00     0.000 C
ATOM     98  C3  NAG B   7       4.985 -14.869  23.3810  0.00  0.00     0.000 C
ATOM     99  C4  NAG B   7       4.546 -13.694  24.2510  0.00  0.00     0.000 C
ATOM    100  C5  NAG B   7       4.401 -14.121  25.7130  0.00  0.00     0.000 C
ATOM    101  O5  NAG B   7       3.573 -15.273  25.7750  0.00  0.00     0.000 O
BRANCH 97 104
ATOM    102   N  NAG B   7       4.524 -16.984  22.5580  0.00  0.00     0.000 N
ATOM    104  HD  NAG B   7       4.916 -17.315  21.8610  0.00  0.00     0.000 HD
ATOM    104   O  NAG B   7       4.383 -18.507  20.8880  0.00  0.00     0.000 OA
ATOM    105   C  NAG B   7       3.823 -17.802  21.7500  0.00  0.00     0.000 C
ATOM    106   C  NAG B   7       2.339 -17.853  21.8820  0.00  0.00     0.000 C
ENDBRANCH 97 104
ATOM    107   O  NAG B   7       4.010 -13.327  27.8850  0.00  0.00     0.000 O
ATOM    109  HD  NAG B   7       4.464 -13.889  27.4080  0.00  0.00     0.000 HD
ATOM    109   O  NAG B   7       4.010 -13.327  27.8850  0.00  0.00     0.000 O
ATOM    111  HD  NAG B   7       4.464 -13.889  27.4080  0.00  0.00     0.000 HD
ENDBRANCH 95 98
ENDBRANCH 82 95
ENDBRANCH 81 85
ENDBRANCH 65 81
ENDBRANCH 64 67
ENDBRANCH 51 64
ENDBRANCH 50 54
ENDBRANCH 34 50
ENDBRANCH 33 36
ENDBRANCH 20 33
ENDBRANCH 19 23
ENDBRANCH 1 19
TORSDOF 19
ENDMDL
MODEL 91
REMARK VINA RESULT:      -5.1     26.650     32.787
ROOT
ATOM      1  C1  NAG B   1     -10.021   9.553   5.1610  0.00  0.00     0.000 C
ATOM      2  C2  NAG B   1      -9.740   8.149   5.6870  0.00  0.00     0.000 C
ATOM      3  C3  NAG B   1      -9.143   8.177   7.0790  0.00  0.00     0.000 C
ATOM      4  C4  NAG B   1      -7.877   9.019   6.9640  0.00  0.00     0.000 C
ATOM      5  C5  NAG B   1      -8.259  10.449   6.5590  0.00  0.00     0.000 C
ATOM      6  O5  NAG B   1      -8.920  10.468   5.2760  0.00  0.00     0.000 O
ATOM      7   O  NAG B   1      -8.837   6.851   7.5690  0.00  0.00     0.000 O
ATOM      9  HD  NAG B   1      -9.554   6.717   7.1020  0.00  0.00     0.000 HD
ATOM      9   O  NAG B   1      -7.188   9.038   8.2030  0.00  0.00     0.000 O
ATOM     11  HD  NAG B   1      -7.905   8.904   7.7360  0.00  0.00     0.000 HD
ATOM     11   C  NAG B   1      -7.015  11.346   6.5700  0.00  0.00     0.000 C
ATOM     12   O  NAG B   1      -7.138  12.414   5.6320  0.00  0.00     0.000 O
ATOM     14  HD  NAG B   1      -7.855  12.279   5.1650  0.00  0.00     0.000 HD
ENDROOT
BRANCH 2 16
ATOM     14   N  NAG B   1     -11.018   7.503   5.3390  0.00  0.00     0.000 N
ATOM     16  HD  NAG B   1     -11.538   7.318   4.6720  0.00  0.00     0.000 HD
ATOM     16   C  NAG B   1     -11.100   6.262   4.8310  0.00  0.00     0.000 C
ATOM     17   C  NAG B   1      -9.845   5.474   4.5660  0.00  0.00     0.000 C
ATOM     18   O  NAG B   1     -12.189   5.737   4.5990  0.00  0.00     0.000 OA
ENDBRANCH 2 16
BRANCH 1 19
ATOM     19  O4  BDP B   2     -10.213   9.345   3.7680  0.00  0.00     0.000 O
BRANCH 19 23
ATOM     20  C1  BDP B   2      -8.691  10.956   0.3000  0.00  0.00     0.000 C
ATOM     21  C2  BDP B   2      -7.719  10.180   1.1640  0.00  0.00     0.000 C
ATOM     22  C3  BDP B   2      -8.449   9.302   2.1560  0.00  0.00     0.000 C
ATOM     23  C4  BDP B   2      -9.429  10.169   2.9400  0.00  0.00     0.000 C
ATOM     24  C5  BDP B   2     -10.354  10.884   1.9740  0.00  0.00     0.000 C
ATOM     25  O5  BDP B   2      -9.592  11.702   1.1060  0.00  0.00     0.000 O
ATOM     26   O  BDP B   2      -6.873   9.388   0.3600  0.00  0.00     0.000 O
ATOM     28  HD  BDP B   2      -7.242   9.887  -0.2440  0.00  0.00     0.000 HD
ATOM     28   O  BDP B   2      -7.492   8.660   3.0130  0.00  0.00     0.000 O
ATOM     30  HD  BDP B   2      -7.860   9.160   2.4090  0.00  0.00     0.000 HD
BRANCH 24 30
ATOM     30   C  BDP B   2     -11.331  11.759   2.6740  0.00  0.00     0.000 C
ATOM     31   O  BDP B   2     -10.918  12.868   3.0840  0.00  0.00     0.000 OA
ATOM     32   O  BDP B   2     -12.513  11.338   2.8250  0.00  0.00     0.000 OA
ENDBRANCH 24 30
BRANCH 20 33
ATOM     33  O3  NAG B   3      -7.872  11.844  -0.4210  0.00  0.00     0.000 O
BRANCH 33 36
ATOM     34  C1  NAG B   3      -9.322  12.444  -3.8390  0.00  0.00     0.000 C
ATOM     35  C2  NAG B   3      -8.736  11.667  -2.6760  0.00  0.00     0.000 C
ATOM     36  C3  NAG B   3      -8.608  12.548  -1.4230  0.00  0.00     0.000 C
ATOM     37  C4  NAG B   3      -7.857  13.829  -1.7800  0.00  0.00     0.000 C
ATOM     38  C5  NAG B   3      -8.479  14.480  -3.0130  0.00  0.00     0.000 C
ATOM     39  O5  NAG B   3      -8.485  13.563  -4.0930  0.00  0.00     0.000 O
ATOM     40   O  NAG B   3      -7.904  14.749  -0.6790  0.00  0.00     0.000 O
ATOM     42  HD  NAG B   3      -8.217  15.274  -1.2920  0.00  0.00     0.000 HD
ATOM     42   C  NAG B   3      -7.711  15.699  -3.5200  0.00  0.00     0.000 C
ATOM     43   O  NAG B   3      -6.422  15.289  -3.9930  0.00  0.00     0.000 O
ATOM     45  HD  NAG B   3      -6.735  15.815  -4.6060  0.00  0.00     0.000 HD
BRANCH 35 47
ATOM     45   N  NAG B   3      -8.287  10.281  -2.6930  0.00  0.00     0.000 N
ATOM     47  HD  NAG B   3      -7.650  10.836  -2.5000  0.00  0.00     0.000 HD
ATOM     47   C  NAG B   3      -9.024   9.282  -2.2510  0.00  0.00     0.000 C
ATOM     48   C  NAG B   3      -8.402   7.919  -2.3230  0.00  0.00     0.000 C
ATOM     49   O  NAG B   3     -10.146   9.459  -1.7820  0.00  0.00     0.000 OA
ENDBRANCH 35 47
BRANCH 34 50
ATOM     50  O4  BDP B   4      -9.262  11.530  -4.9150  0.00  0.00     0.000 O
BRANCH 50 54
ATOM     51  C1  BDP B   4     -10.347  10.900  -8.7850  0.00  0.00     0.000 C
ATOM     52  C2  BDP B   4      -9.154  11.833  -8.6070  0.00  0.00     0.000 C
ATOM     53  C3  BDP B   4      -8.634  11.685  -7.2100  0.00  0.00     0.000 C
ATOM     54  C4  BDP B   4      -9.783  11.934  -6.1920  0.00  0.00     0.000 C
ATOM     55  C5  BDP B   4     -11.033  11.130  -6.5210  0.00  0.00     0.000 C
ATOM     56  O5  BDP B   4     -11.378  11.284  -7.8950  0.00  0.00     0.000 O
ATOM     57   O  BDP B   4      -8.133  11.504  -9.5240  0.00  0.00     0.000 O
ATOM     59  HD  BDP B   4      -8.189  12.110 -10.1400  0.00  0.00     0.000 HD
ATOM     59   O  BDP B   4      -7.641  12.714  -7.0210  0.00  0.00     0.000 O
ATOM     61  HD  BDP B   4      -7.697  13.320  -7.6370  0.00  0.00     0.000 HD
BRANCH 55 61
ATOM     61   C  BDP B   4     -12.184  11.617  -5.6590  0.00  0.00     0.000 C
ATOM     62   O  BDP B   4     -12.336  12.860  -5.5250  0.00  0.00     0.000 OA
ATOM     63   O  BDP B   4     -12.938  10.752  -5.1180  0.00  0.00     0.000 OA
ENDBRANCH 55 61
BRANCH 51 64
ATOM     64  O3  NAG B   5     -10.781  11.019 -10.1530  0.00  0.00     0.000 O
BRANCH 64 67
ATOM     65  C1  NAG B   5     -11.443   7.984 -12.1390  0.00  0.00     0.000 C
ATOM     66  C2  NAG B   5     -10.642   9.074 -11.4470  0.00  0.00     0.000 C
ATOM     67  C3  NAG B   5     -11.562   9.917 -10.5740  0.00  0.00     0.000 C
ATOM     68  C4  NAG B   5     -12.770  10.423 -11.3740  0.00  0.00     0.000 C
ATOM     69  C5  NAG B   5     -13.451   9.276 -12.1030  0.00  0.00     0.000 C
ATOM     70  O5  NAG B   5     -12.489   8.558 -12.8890  0.00  0.00     0.000 O
ATOM     71   O  NAG B   5     -13.662  11.066 -10.4870  0.00  0.00     0.000 O
ATOM     73  HD  NAG B   5     -13.709  11.634 -11.1390  0.00  0.00     0.000 HD
ATOM     73   C  NAG B   5     -14.595   9.706 -13.0320  0.00  0.00     0.000 C
ATOM     74   O  NAG B   5     -14.071  10.529 -14.0950  0.00  0.00     0.000 O
ATOM     76  HD  NAG B   5     -14.119  11.097 -14.7470  0.00  0.00     0.000 HD
BRANCH 66 78
ATOM     76   N  NAG B   5      -9.181   9.024 -11.6480  0.00  0.00     0.000 N
ATOM     78  HD  NAG B   5      -9.735   8.970 -10.9850  0.00  0.00     0.000 HD
ATOM     78   C  NAG B   5      -8.271   8.651 -10.7350  0.00  0.00     0.000 C
ATOM     79   C  NAG B   5      -6.857   8.687 -11.2470  0.00  0.00     0.000 C
ATOM     80   O  NAG B   5      -8.577   8.305  -9.5380  0.00  0.00     0.000 OA
ENDBRANCH 66 78
BRANCH 65 81
ATOM     81  O4  BDP B   6     -10.591   7.215 -12.9980  0.00  0.00     0.000 O
BRANCH 81 85
ATOM     82  C1  BDP B   6     -10.629   3.153 -14.3600  0.00  0.00     0.000 C
ATOM     83  C2  BDP B   6     -10.707   4.251 -15.4160  0.00  0.00     0.000 C
ATOM     84  C3  BDP B   6     -10.281   5.621 -14.8820  0.00  0.00     0.000 C
ATOM     85  C4  BDP B   6     -11.017   5.987 -13.5920  0.00  0.00     0.000 C
ATOM     86  C5  BDP B   6     -10.897   4.789 -12.6200  0.00  0.00     0.000 C
ATOM     87  O5  BDP B   6     -11.383   3.547 -13.2220  0.00  0.00     0.000 O
ATOM     88   O  BDP B   6      -9.818   3.846 -16.4530  0.00  0.00     0.000 O
ATOM     90  HD  BDP B   6      -9.219   4.175 -16.9850  0.00  0.00     0.000 HD
ATOM     90   O  BDP B   6     -10.489   6.615 -15.8890  0.00  0.00     0.000 O
ATOM     92  HD  BDP B   6      -9.890   6.944 -16.4220  0.00  0.00     0.000 HD
BRANCH 86 92
ATOM     92   C  BDP B   6     -11.797   4.985 -11.4240  0.00  0.00     0.000 C
ATOM     93   O  BDP B   6     -11.283   5.147 -10.2760  0.00  0.00     0.000 OA
ATOM     94   O  BDP B   6     -13.050   5.000 -11.6290  0.00  0.00     0.000 OA
ENDBRANCH 86 92
BRANCH 82 95
ATOM     95  O3  NAG B   7     -11.234   1.961 -14.8990  0.00  0.00     0.000 O
BRANCH 95 98
ATOM     96  C1  NAG B   7     -10.552  -1.625 -15.0460  0.00  0.00     0.000 C
ATOM     97  C2  NAG B   7     -11.045  -0.278 -15.5590  0.00  0.00     0.000 C
ATOM     98  C3  NAG B   7     -10.830   0.688 -14.3960  0.00  0.00     0.000 C
ATOM     99  C4  NAG B   7     -11.631   0.225 -13.1820  0.00  0.00     0.000 C
ATOM    100  C5  NAG B   7     -11.300  -1.226 -12.8300  0.00  0.00     0.000 C
ATOM    101  O5  NAG B   7     -11.438  -2.025 -13.9950  0.00  0.00     0.000 O
BRANCH 97 104
ATOM    102   N  NAG B   7     -10.956   0.463 -16.8250  0.00  0.00     0.000 N
ATOM    104  HD  NAG B   7     -11.098   0.735 -17.6340  0.00  0.00     0.000 HD
ATOM    104   O  NAG B   7      -9.997   1.204 -18.7390  0.00  0.00     0.000 OA
ATOM    105   C  NAG B   7      -9.906   0.585 -17.6600  0.00  0.00     0.000 C
ATOM    106   C  NAG B   7      -8.609  -0.050 -17.2910  0.00  0.00     0.000 C
ENDBRANCH 97 104
ATOM    107   O  NAG B   7     -11.653  -2.914 -11.2400  0.00  0.00     0.000 O
ATOM    109  HD  NAG B   7     -11.071  -2.548 -11.7670  0.00  0.00     0.000 HD
ATOM    109   O  NAG B   7     -11.653  -2.914 -11.2400  0.00  0.00     0.000 O
ATOM    111  HD  NAG B   7     -11.071  -2.548 -11.7670  0.00  0.00     0.000 HD
ENDBRANCH 95 98
ENDBRANCH 82 95
ENDBRANCH 81 85
ENDBRANCH 65 81
ENDBRANCH 64 67
ENDBRANCH 51 64
ENDBRANCH 50 54
ENDBRANCH 34 50
ENDBRANCH 33 36
ENDBRANCH 20 33
ENDBRANCH 19 23
ENDBRANCH 1 19
TORSDOF 19
ENDMDL
MODEL 92
REMARK VINA RESULT:      -5.1      8.315     17.805
ROOT
ATOM      1  C1  NAG B   1      12.128   6.744  14.0670  0.00  0.00     0.000 C
ATOM      2  C2  NAG B   1      11.228   7.610  13.1900  0.00  0.00     0.000 C
ATOM      3  C3  NAG B   1      10.835   8.898  13.8830  0.00  0.00     0.000 C
ATOM      4  C4  NAG B   1      10.150   8.472  15.1780  0.00  0.00     0.000 C
ATOM      5  C5  NAG B   1      11.158   7.723  16.0580  0.00  0.00     0.000 C
ATOM      6  O5  NAG B   1      11.639   6.531  15.4000  0.00  0.00     0.000 O
ATOM      7   O  NAG B   1       9.950   9.706  13.0730  0.00  0.00     0.000 O
ATOM      9  HD  NAG B   1      10.467   9.343  12.4800  0.00  0.00     0.000 HD
ATOM      9   O  NAG B   1       9.661   9.610  15.8680  0.00  0.00     0.000 O
ATOM     11  HD  NAG B   1      10.177   9.247  15.2750  0.00  0.00     0.000 HD
ATOM     11   C  NAG B   1      10.530   7.406  17.4200  0.00  0.00     0.000 C
ATOM     12   O  NAG B   1      11.093   6.225  17.9880  0.00  0.00     0.000 O
ATOM     14  HD  NAG B   1      11.610   5.862  17.3950  0.00  0.00     0.000 HD
ENDROOT
BRANCH 2 16
ATOM     14   N  NAG B   1      11.963   7.673  11.9140  0.00  0.00     0.000 N
ATOM     16  HD  NAG B   1      12.364   7.181  11.3240  0.00  0.00     0.000 HD
ATOM     16   C  NAG B   1      11.400   7.391  10.7260  0.00  0.00     0.000 C
ATOM     17   C  NAG B   1       9.958   6.962  10.6610  0.00  0.00     0.000 C
ATOM     18   O  NAG B   1      12.033   7.503   9.6770  0.00  0.00     0.000 OA
ENDBRANCH 2 16
BRANCH 1 19
ATOM     19  O4  BDP B   2      12.081   5.476  13.4260  0.00  0.00     0.000 O
BRANCH 19 23
ATOM     20  C1  BDP B   2      12.982   1.607  14.5030  0.00  0.00     0.000 C
ATOM     21  C2  BDP B   2      11.661   2.154  15.0010  0.00  0.00     0.000 C
ATOM     22  C3  BDP B   2      11.247   3.382  14.2230  0.00  0.00     0.000 C
ATOM     23  C4  BDP B   2      12.396   4.387  14.2600  0.00  0.00     0.000 C
ATOM     24  C5  BDP B   2      13.656   3.733  13.7290  0.00  0.00     0.000 C
ATOM     25  O5  BDP B   2      13.983   2.614  14.5320  0.00  0.00     0.000 O
ATOM     26   O  BDP B   2      10.655   1.169  14.9050  0.00  0.00     0.000 O
ATOM     28  HD  BDP B   2      11.361   0.688  14.7590  0.00  0.00     0.000 HD
ATOM     28   O  BDP B   2      10.042   3.919  14.7900  0.00  0.00     0.000 O
ATOM     30  HD  BDP B   2      10.748   3.438  14.6440  0.00  0.00     0.000 HD
BRANCH 24 30
ATOM     30   C  BDP B   2      14.820   4.657  13.7490  0.00  0.00     0.000 C
ATOM     31   O  BDP B   2      15.303   4.995  12.6440  0.00  0.00     0.000 OA
ATOM     32   O  BDP B   2      15.263   5.043  14.8680  0.00  0.00     0.000 OA
ENDBRANCH 24 30
BRANCH 20 33
ATOM     33  O3  NAG B   3      13.308   0.604  15.4330  0.00  0.00     0.000 O
BRANCH 33 36
ATOM     34  C1  NAG B   3      14.269  -2.978  14.8010  0.00  0.00     0.000 C
ATOM     35  C2  NAG B   3      13.412  -1.808  15.2460  0.00  0.00     0.000 C
ATOM     36  C3  NAG B   3      14.033  -0.467  14.8250  0.00  0.00     0.000 C
ATOM     37  C4  NAG B   3      15.485  -0.412  15.2960  0.00  0.00     0.000 C
ATOM     38  C5  NAG B   3      16.228  -1.674  14.8670  0.00  0.00     0.000 C
ATOM     39  O5  NAG B   3      15.563  -2.821  15.3660  0.00  0.00     0.000 O
ATOM     40   O  NAG B   3      16.138   0.739  14.7400  0.00  0.00     0.000 O
ATOM     42  HD  NAG B   3      16.700   0.138  14.4720  0.00  0.00     0.000 HD
ATOM     42   C  NAG B   3      17.653  -1.765  15.4070  0.00  0.00     0.000 C
ATOM     43   O  NAG B   3      17.617  -1.887  16.8340  0.00  0.00     0.000 O
ATOM     45  HD  NAG B   3      18.180  -2.489  16.5660  0.00  0.00     0.000 HD
BRANCH 35 47
ATOM     45   N  NAG B   3      12.065  -2.099  14.7730  0.00  0.00     0.000 N
ATOM     47  HD  NAG B   3      12.633  -2.720  14.5660  0.00  0.00     0.000 HD
ATOM     47   C  NAG B   3      10.983  -1.811  15.4670  0.00  0.00     0.000 C
ATOM     48   C  NAG B   3       9.674  -2.197  14.8430  0.00  0.00     0.000 C
ATOM     49   O  NAG B   3      11.042  -1.280  16.5750  0.00  0.00     0.000 OA
ENDBRANCH 35 47
BRANCH 34 50
ATOM     50  O4  BDP B   4      13.620  -4.100  15.3600  0.00  0.00     0.000 O
BRANCH 50 54
ATOM     51  C1  BDP B   4      12.864  -8.062  14.8280  0.00  0.00     0.000 C
ATOM     52  C2  BDP B   4      14.189  -7.759  15.5180  0.00  0.00     0.000 C
ATOM     53  C3  BDP B   4      14.172  -6.335  15.9830  0.00  0.00     0.000 C
ATOM     54  C4  BDP B   4      13.860  -5.394  14.7840  0.00  0.00     0.000 C
ATOM     55  C5  BDP B   4      12.639  -5.847  13.9950  0.00  0.00     0.000 C
ATOM     56  O5  BDP B   4      12.732  -7.235  13.6860  0.00  0.00     0.000 O
ATOM     57   O  BDP B   4      14.369  -8.611  16.6290  0.00  0.00     0.000 O
ATOM     59  HD  BDP B   4      14.939  -9.204  16.3590  0.00  0.00     0.000 HD
ATOM     59   O  BDP B   4      15.502  -6.031  16.4530  0.00  0.00     0.000 O
ATOM     61  HD  BDP B   4      16.072  -6.624  16.1830  0.00  0.00     0.000 HD
BRANCH 55 61
ATOM     61   C  BDP B   4      12.554  -5.053  12.7040  0.00  0.00     0.000 C
ATOM     62   O  BDP B   4      11.649  -4.184  12.6030  0.00  0.00     0.000 OA
ATOM     63   O  BDP B   4      13.399  -5.300  11.7900  0.00  0.00     0.000 OA
ENDBRANCH 55 61
BRANCH 51 64
ATOM     64  O3  NAG B   5      12.887  -9.452  14.4520  0.00  0.00     0.000 O
BRANCH 64 67
ATOM     65  C1  NAG B   5       9.832 -11.477  14.8560  0.00  0.00     0.000 C
ATOM     66  C2  NAG B   5      11.093 -10.727  15.2490  0.00  0.00     0.000 C
ATOM     67  C3  NAG B   5      11.615  -9.931  14.0600  0.00  0.00     0.000 C
ATOM     68  C4  NAG B   5      11.765 -10.825  12.8210  0.00  0.00     0.000 C
ATOM     69  C5  NAG B   5      10.485 -11.604  12.5620  0.00  0.00     0.000 C
ATOM     70  O5  NAG B   5      10.094 -12.310  13.7490  0.00  0.00     0.000 O
ATOM     71   O  NAG B   5      12.103 -10.014  11.7170  0.00  0.00     0.000 O
ATOM     73  HD  NAG B   5      12.646 -10.669  11.5560  0.00  0.00     0.000 HD
ATOM     73   C  NAG B   5      10.585 -12.621  11.4170  0.00  0.00     0.000 C
ATOM     74   O  NAG B   5      11.546 -13.642  11.7590  0.00  0.00     0.000 O
ATOM     76  HD  NAG B   5      12.089 -14.297  11.5980  0.00  0.00     0.000 HD
BRANCH 66 78
ATOM     76   N  NAG B   5      10.748  -9.850  16.3850  0.00  0.00     0.000 N
ATOM     78  HD  NAG B   5      11.247 -10.544  16.2440  0.00  0.00     0.000 HD
ATOM     78   C  NAG B   5      11.362  -9.827  17.5790  0.00  0.00     0.000 C
ATOM     79   C  NAG B   5      10.791  -8.807  18.5270  0.00  0.00     0.000 C
ATOM     80   O  NAG B   5      12.334 -10.606  17.8850  0.00  0.00     0.000 OA
ENDBRANCH 66 78
BRANCH 65 81
ATOM     81  O4  BDP B   6       9.363 -12.264  15.9580  0.00  0.00     0.000 O
BRANCH 81 85
ATOM     82  C1  BDP B   6       5.720 -13.827  17.5870  0.00  0.00     0.000 C
ATOM     83  C2  BDP B   6       6.150 -14.329  16.2110  0.00  0.00     0.000 C
ATOM     84  C3  BDP B   6       7.623 -14.041  15.9060  0.00  0.00     0.000 C
ATOM     85  C4  BDP B   6       7.978 -12.571  16.1380  0.00  0.00     0.000 C
ATOM     86  C5  BDP B   6       7.464 -12.173  17.5420  0.00  0.00     0.000 C
ATOM     87  O5  BDP B   6       6.034 -12.446  17.6970  0.00  0.00     0.000 O
ATOM     88   O  BDP B   6       5.935 -15.737  16.2360  0.00  0.00     0.000 O
ATOM     90  HD  BDP B   6       6.314 -16.475  15.9860  0.00  0.00     0.000 HD
ATOM     90   O  BDP B   6       7.921 -14.435  14.5650  0.00  0.00     0.000 O
ATOM     92  HD  BDP B   6       8.300 -15.172  14.3150  0.00  0.00     0.000 HD
BRANCH 86 92
ATOM     92   C  BDP B   6       7.568 -10.680  17.7410  0.00  0.00     0.000 C
ATOM     93   O  BDP B   6       7.786 -10.219  18.9020  0.00  0.00     0.000 OA
ATOM     94   O  BDP B   6       7.454  -9.942  16.7130  0.00  0.00     0.000 OA
ENDBRANCH 86 92
BRANCH 82 95
ATOM     95  O3  NAG B   7       4.290 -13.965  17.6930  0.00  0.00     0.000 O
BRANCH 95 98
ATOM     96  C1  NAG B   7       1.625 -15.044  19.9470  0.00  0.00     0.000 C
ATOM     97  C2  NAG B   7       2.224 -14.367  18.7210  0.00  0.00     0.000 C
ATOM     98  C3  NAG B   7       3.733 -14.543  18.8730  0.00  0.00     0.000 C
ATOM     99  C4  NAG B   7       4.205 -13.879  20.1640  0.00  0.00     0.000 C
ATOM    100  C5  NAG B   7       3.413 -14.397  21.3660  0.00  0.00     0.000 C
ATOM    101  O5  NAG B   7       2.027 -14.278  21.0880  0.00  0.00     0.000 O
BRANCH 97 104
ATOM    102   N  NAG B   7       1.797 -14.979  17.4550  0.00  0.00     0.000 N
ATOM    104  HD  NAG B   7       1.787 -15.445  16.7250  0.00  0.00     0.000 HD
ATOM    104   O  NAG B   7       1.142 -15.035  15.2880  0.00  0.00     0.000 OA
ATOM    105   C  NAG B   7       1.424 -14.378  16.3090  0.00  0.00     0.000 C
ATOM    106   C  NAG B   7       1.360 -12.890  16.2600  0.00  0.00     0.000 C
ENDBRANCH 97 104
ATOM    107   O  NAG B   7       3.277 -14.342  23.7070  0.00  0.00     0.000 O
ATOM    109  HD  NAG B   7       3.201 -14.843  23.0050  0.00  0.00     0.000 HD
ATOM    109   O  NAG B   7       3.277 -14.342  23.7070  0.00  0.00     0.000 O
ATOM    111  HD  NAG B   7       3.201 -14.843  23.0050  0.00  0.00     0.000 HD
ENDBRANCH 95 98
ENDBRANCH 82 95
ENDBRANCH 81 85
ENDBRANCH 65 81
ENDBRANCH 64 67
ENDBRANCH 51 64
ENDBRANCH 50 54
ENDBRANCH 34 50
ENDBRANCH 33 36
ENDBRANCH 20 33
ENDBRANCH 19 23
ENDBRANCH 1 19
TORSDOF 19
ENDMDL
MODEL 93
REMARK VINA RESULT:      -5.0      9.685     13.463
ROOT
ATOM      1  C1  NAG B   1       8.164   4.401  21.6200  0.00  0.00     0.000 C
ATOM      2  C2  NAG B   1       9.144   5.101  22.5590  0.00  0.00     0.000 C
ATOM      3  C3  NAG B   1       8.944   6.602  22.5660  0.00  0.00     0.000 C
ATOM      4  C4  NAG B   1       9.112   7.044  21.1160  0.00  0.00     0.000 C
ATOM      5  C5  NAG B   1       8.010   6.402  20.2640  0.00  0.00     0.000 C
ATOM      6  O5  NAG B   1       8.097   4.961  20.2990  0.00  0.00     0.000 O
ATOM      7   O  NAG B   1       9.894   7.275  23.4240  0.00  0.00     0.000 O
ATOM      9  HD  NAG B   1       9.753   6.533  23.8480  0.00  0.00     0.000 HD
ATOM      9   O  NAG B   1       9.029   8.456  21.0230  0.00  0.00     0.000 O
ATOM     11  HD  NAG B   1       8.887   7.715  21.4470  0.00  0.00     0.000 HD
ATOM     11   C  NAG B   1       8.077   6.940  18.8290  0.00  0.00     0.000 C
ATOM     12   O  NAG B   1       7.588   5.981  17.8930  0.00  0.00     0.000 O
ATOM     14  HD  NAG B   1       7.446   5.239  18.3170  0.00  0.00     0.000 HD
ENDROOT
BRANCH 2 16
ATOM     14   N  NAG B   1      10.207   4.367  23.2690  0.00  0.00     0.000 N
ATOM     16  HD  NAG B   1      10.809   4.452  23.8860  0.00  0.00     0.000 HD
ATOM     16   C  NAG B   1      10.043   3.840  24.4940  0.00  0.00     0.000 C
ATOM     17   C  NAG B   1       8.733   4.010  25.2170  0.00  0.00     0.000 C
ATOM     18   O  NAG B   1      10.938   3.191  25.0350  0.00  0.00     0.000 OA
ENDBRANCH 2 16
BRANCH 1 19
ATOM     19  O4  BDP B   2       8.729   3.106  21.4690  0.00  0.00     0.000 O
BRANCH 19 23
ATOM     20  C1  BDP B   2       9.797   0.701  18.3040  0.00  0.00     0.000 C
ATOM     21  C2  BDP B   2      10.661   1.923  18.5420  0.00  0.00     0.000 C
ATOM     22  C3  BDP B   2      10.450   2.480  19.9320  0.00  0.00     0.000 C
ATOM     23  C4  BDP B   2       8.956   2.719  20.1350  0.00  0.00     0.000 C
ATOM     24  C5  BDP B   2       8.200   1.430  19.8810  0.00  0.00     0.000 C
ATOM     25  O5  BDP B   2       8.431   0.999  18.5530  0.00  0.00     0.000 O
ATOM     26   O  BDP B   2      12.023   1.603  18.3600  0.00  0.00     0.000 O
ATOM     28  HD  BDP B   2      11.649   0.892  18.0350  0.00  0.00     0.000 HD
ATOM     28   O  BDP B   2      11.215   3.687  20.0790  0.00  0.00     0.000 O
ATOM     30  HD  BDP B   2      10.841   2.976  19.7540  0.00  0.00     0.000 HD
BRANCH 24 30
ATOM     30   C  BDP B   2       6.733   1.597  20.0510  0.00  0.00     0.000 C
ATOM     31   O  BDP B   2       6.254   1.352  21.1830  0.00  0.00     0.000 OA
ATOM     32   O  BDP B   2       6.049   1.964  19.0530  0.00  0.00     0.000 OA
ENDBRANCH 24 30
BRANCH 20 33
ATOM     33  O3  NAG B   3       9.968   0.426  16.9350  0.00  0.00     0.000 O
BRANCH 33 36
ATOM     34  C1  NAG B   3      11.117  -2.577  14.9820  0.00  0.00     0.000 C
ATOM     35  C2  NAG B   3      10.997  -1.118  15.3790  0.00  0.00     0.000 C
ATOM     36  C3  NAG B   3      10.233  -0.959  16.7030  0.00  0.00     0.000 C
ATOM     37  C4  NAG B   3       8.905  -1.708  16.6120  0.00  0.00     0.000 C
ATOM     38  C5  NAG B   3       9.135  -3.136  16.1230  0.00  0.00     0.000 C
ATOM     39  O5  NAG B   3       9.807  -3.117  14.8760  0.00  0.00     0.000 O
ATOM     40   O  NAG B   3       8.271  -1.741  17.9000  0.00  0.00     0.000 O
ATOM     42  HD  NAG B   3       8.268  -2.592  17.7400  0.00  0.00     0.000 HD
ATOM     42   C  NAG B   3       7.848  -3.919  15.8790  0.00  0.00     0.000 C
ATOM     43   O  NAG B   3       7.124  -3.324  14.7940  0.00  0.00     0.000 O
ATOM     45  HD  NAG B   3       7.120  -4.175  14.6330  0.00  0.00     0.000 HD
BRANCH 35 47
ATOM     45   N  NAG B   3      12.304  -0.484  15.5020  0.00  0.00     0.000 N
ATOM     47  HD  NAG B   3      12.353  -1.348  15.4720  0.00  0.00     0.000 HD
ATOM     47   C  NAG B   3      12.616   0.640  14.8900  0.00  0.00     0.000 C
ATOM     48   C  NAG B   3      14.012   1.146  15.1080  0.00  0.00     0.000 C
ATOM     49   O  NAG B   3      11.820   1.228  14.1610  0.00  0.00     0.000 OA
ENDBRANCH 35 47
BRANCH 34 50
ATOM     50  O4  BDP B   4      11.733  -2.528  13.7120  0.00  0.00     0.000 O
BRANCH 50 54
ATOM     51  C1  BDP B   4      13.334  -5.174  11.0690  0.00  0.00     0.000 C
ATOM     52  C2  BDP B   4      12.496  -5.811  12.1720  0.00  0.00     0.000 C
ATOM     53  C3  BDP B   4      11.678  -4.743  12.8300  0.00  0.00     0.000 C
ATOM     54  C4  BDP B   4      12.609  -3.601  13.3300  0.00  0.00     0.000 C
ATOM     55  C5  BDP B   4      13.573  -3.126  12.2510  0.00  0.00     0.000 C
ATOM     56  O5  BDP B   4      14.226  -4.236  11.6420  0.00  0.00     0.000 O
ATOM     57   O  BDP B   4      11.636  -6.791  11.6300  0.00  0.00     0.000 O
ATOM     59  HD  BDP B   4      12.011  -7.545  11.8310  0.00  0.00     0.000 HD
ATOM     59   O  BDP B   4      11.053  -5.343  13.9830  0.00  0.00     0.000 O
ATOM     61  HD  BDP B   4      11.427  -6.098  14.1840  0.00  0.00     0.000 HD
BRANCH 55 61
ATOM     61   C  BDP B   4      14.615  -2.215  12.8760  0.00  0.00     0.000 C
ATOM     62   O  BDP B   4      14.747  -2.240  14.1280  0.00  0.00     0.000 OA
ATOM     63   O  BDP B   4      15.304  -1.475  12.1100  0.00  0.00     0.000 OA
ENDBRANCH 55 61
BRANCH 51 64
ATOM     64  O3  NAG B   5      14.057  -6.235  10.4150  0.00  0.00     0.000 O
BRANCH 64 67
ATOM     65  C1  NAG B   5      13.819  -7.704   7.0430  0.00  0.00     0.000 C
ATOM     66  C2  NAG B   5      13.721  -7.616   8.5560  0.00  0.00     0.000 C
ATOM     67  C3  NAG B   5      13.950  -6.179   9.0060  0.00  0.00     0.000 C
ATOM     68  C4  NAG B   5      15.252  -5.617   8.4170  0.00  0.00     0.000 C
ATOM     69  C5  NAG B   5      15.298  -5.835   6.9130  0.00  0.00     0.000 C
ATOM     70  O5  NAG B   5      15.070  -7.220   6.6120  0.00  0.00     0.000 O
ATOM     71   O  NAG B   5      15.338  -4.245   8.7380  0.00  0.00     0.000 O
ATOM     73  HD  NAG B   5      16.164  -4.457   8.8900  0.00  0.00     0.000 HD
ATOM     73   C  NAG B   5      16.621  -5.419   6.2540  0.00  0.00     0.000 C
ATOM     74   O  NAG B   5      17.692  -6.246   6.7560  0.00  0.00     0.000 O
ATOM     76  HD  NAG B   5      18.518  -6.457   6.9080  0.00  0.00     0.000 HD
BRANCH 66 78
ATOM     76   N  NAG B   5      13.358  -8.771   9.3990  0.00  0.00     0.000 N
ATOM     78  HD  NAG B   5      12.978  -8.048   9.1100  0.00  0.00     0.000 HD
ATOM     78   C  NAG B   5      12.122  -9.087   9.8150  0.00  0.00     0.000 C
ATOM     79   C  NAG B   5      12.071 -10.339  10.6480  0.00  0.00     0.000 C
ATOM     80   O  NAG B   5      11.085  -8.385   9.5360  0.00  0.00     0.000 OA
ENDBRANCH 66 78
BRANCH 65 81
ATOM     81  O4  BDP B   6      13.650  -9.063   6.6170  0.00  0.00     0.000 O
BRANCH 81 85
ATOM     82  C1  BDP B   6      12.178 -11.217   3.2170  0.00  0.00     0.000 C
ATOM     83  C2  BDP B   6      13.667 -10.883   3.2500  0.00  0.00     0.000 C
ATOM     84  C3  BDP B   6      14.159 -10.494   4.6470  0.00  0.00     0.000 C
ATOM     85  C4  BDP B   6      13.292  -9.400   5.2740  0.00  0.00     0.000 C
ATOM     86  C5  BDP B   6      11.812  -9.836   5.1500  0.00  0.00     0.000 C
ATOM     87  O5  BDP B   6      11.445 -10.130   3.7640  0.00  0.00     0.000 O
ATOM     88   O  BDP B   6      14.333 -12.068   2.8230  0.00  0.00     0.000 O
ATOM     90  HD  BDP B   6      15.026 -12.550   3.0160  0.00  0.00     0.000 HD
ATOM     90   O  BDP B   6      15.527 -10.085   4.5770  0.00  0.00     0.000 O
ATOM     92  HD  BDP B   6      16.221 -10.568   4.7700  0.00  0.00     0.000 HD
BRANCH 86 92
ATOM     92   C  BDP B   6      10.892  -8.702   5.5320  0.00  0.00     0.000 C
ATOM     93   O  BDP B   6      10.478  -8.611   6.7270  0.00  0.00     0.000 OA
ATOM     94   O  BDP B   6      10.588  -7.863   4.6280  0.00  0.00     0.000 OA
ENDBRANCH 86 92
BRANCH 82 95
ATOM     95  O3  NAG B   7      11.779 -11.373   1.8410  0.00  0.00     0.000 O
BRANCH 95 98
ATOM     96  C1  NAG B   7       9.588 -13.666   0.0290  0.00  0.00     0.000 C
ATOM     97  C2  NAG B   7      10.869 -12.891   0.3070  0.00  0.00     0.000 C
ATOM     98  C3  NAG B   7      10.559 -12.050   1.5440  0.00  0.00     0.000 C
ATOM     99  C4  NAG B   7       9.390 -11.112   1.2540  0.00  0.00     0.000 C
ATOM    100  C5  NAG B   7       8.180 -11.891   0.7350  0.00  0.00     0.000 C
ATOM    101  O5  NAG B   7       8.591 -12.710  -0.3490  0.00  0.00     0.000 O
BRANCH 97 104
ATOM    102   N  NAG B   7      12.308 -13.186   0.2810  0.00  0.00     0.000 N
ATOM    104  HD  NAG B   7      13.119 -13.320   0.0080  0.00  0.00     0.000 HD
ATOM    104   O  NAG B   7      14.181 -14.435   0.5380  0.00  0.00     0.000 OA
ATOM    105   C  NAG B   7      12.949 -14.303   0.6770  0.00  0.00     0.000 C
ATOM    106   C  NAG B   7      12.161 -15.414   1.2830  0.00  0.00     0.000 C
ENDBRANCH 97 104
ATOM    107   O  NAG B   7       5.916 -11.700   0.1510  0.00  0.00     0.000 O
ATOM    109  HD  NAG B   7       6.509 -12.202   0.5330  0.00  0.00     0.000 HD
ATOM    109   O  NAG B   7       5.916 -11.700   0.1510  0.00  0.00     0.000 O
ATOM    111  HD  NAG B   7       6.509 -12.202   0.5330  0.00  0.00     0.000 HD
ENDBRANCH 95 98
ENDBRANCH 82 95
ENDBRANCH 81 85
ENDBRANCH 65 81
ENDBRANCH 64 67
ENDBRANCH 51 64
ENDBRANCH 50 54
ENDBRANCH 34 50
ENDBRANCH 33 36
ENDBRANCH 20 33
ENDBRANCH 19 23
ENDBRANCH 1 19
TORSDOF 19
ENDMDL
MODEL 94
REMARK VINA RESULT:      -5.0     21.142     28.088
ROOT
ATOM      1  C1  NAG B   1      -9.043  16.950  23.2440  0.00  0.00     0.000 C
ATOM      2  C2  NAG B   1      -9.582  16.824  24.6660  0.00  0.00     0.000 C
ATOM      3  C3  NAG B   1      -9.432  18.116  25.4430  0.00  0.00     0.000 C
ATOM      4  C4  NAG B   1      -7.942  18.441  25.4120  0.00  0.00     0.000 C
ATOM      5  C5  NAG B   1      -7.510  18.683  23.9600  0.00  0.00     0.000 C
ATOM      6  O5  NAG B   1      -7.722  17.506  23.1510  0.00  0.00     0.000 O
ATOM      7   O  NAG B   1      -9.905  17.993  26.8040  0.00  0.00     0.000 O
ATOM      9  HD  NAG B   1     -10.451  17.480  26.3690  0.00  0.00     0.000 HD
ATOM      9   O  NAG B   1      -7.678  19.596  26.1900  0.00  0.00     0.000 O
ATOM     11  HD  NAG B   1      -8.224  19.083  25.7560  0.00  0.00     0.000 HD
ATOM     11   C  NAG B   1      -6.048  19.144  23.9190  0.00  0.00     0.000 C
ATOM     12   O  NAG B   1      -5.418  18.761  22.6970  0.00  0.00     0.000 O
ATOM     14  HD  NAG B   1      -5.964  18.248  22.2630  0.00  0.00     0.000 HD
ENDROOT
BRANCH 2 16
ATOM     14   N  NAG B   1     -10.942  16.280  24.5010  0.00  0.00     0.000 N
ATOM     16  HD  NAG B   1     -11.395  15.672  24.0830  0.00  0.00     0.000 HD
ATOM     16   C  NAG B   1     -11.367  15.166  25.1200  0.00  0.00     0.000 C
ATOM     17   C  NAG B   1     -10.429  14.395  26.0100  0.00  0.00     0.000 C
ATOM     18   O  NAG B   1     -12.526  14.770  24.9960  0.00  0.00     0.000 OA
ENDBRANCH 2 16
BRANCH 1 19
ATOM     19  O4  BDP B   2      -8.930  15.599  22.8190  0.00  0.00     0.000 O
BRANCH 19 23
ATOM     20  C1  BDP B   2      -5.924  13.203  21.3480  0.00  0.00     0.000 C
ATOM     21  C2  BDP B   2      -5.779  13.660  22.7850  0.00  0.00     0.000 C
ATOM     22  C3  BDP B   2      -7.095  14.158  23.3380  0.00  0.00     0.000 C
ATOM     23  C4  BDP B   2      -7.642  15.225  22.3940  0.00  0.00     0.000 C
ATOM     24  C5  BDP B   2      -7.754  14.651  20.9950  0.00  0.00     0.000 C
ATOM     25  O5  BDP B   2      -6.476  14.239  20.5480  0.00  0.00     0.000 O
ATOM     26   O  BDP B   2      -5.295  12.604  23.5880  0.00  0.00     0.000 O
ATOM     28  HD  BDP B   2      -5.168  12.272  22.7980  0.00  0.00     0.000 HD
ATOM     28   O  BDP B   2      -6.889  14.666  24.6650  0.00  0.00     0.000 O
ATOM     30  HD  BDP B   2      -6.762  14.334  23.8760  0.00  0.00     0.000 HD
BRANCH 24 30
ATOM     30   C  BDP B   2      -8.271  15.647  20.0190  0.00  0.00     0.000 C
ATOM     31   O  BDP B   2      -7.597  16.688  19.8480  0.00  0.00     0.000 OA
ATOM     32   O  BDP B   2      -9.359  15.396  19.4250  0.00  0.00     0.000 OA
ENDBRANCH 24 30
BRANCH 20 33
ATOM     33  O3  NAG B   3      -4.602  12.954  20.9350  0.00  0.00     0.000 O
BRANCH 33 36
ATOM     34  C1  NAG B   3      -3.922  10.271  18.3880  0.00  0.00     0.000 C
ATOM     35  C2  NAG B   3      -4.191  10.884  19.7500  0.00  0.00     0.000 C
ATOM     36  C3  NAG B   3      -4.557  12.371  19.6310  0.00  0.00     0.000 C
ATOM     37  C4  NAG B   3      -3.492  13.089  18.8050  0.00  0.00     0.000 C
ATOM     38  C5  NAG B   3      -3.242  12.342  17.4980  0.00  0.00     0.000 C
ATOM     39  O5  NAG B   3      -2.871  11.001  17.7720  0.00  0.00     0.000 O
ATOM     40   O  NAG B   3      -3.918  14.430  18.5140  0.00  0.00     0.000 O
ATOM     42  HD  NAG B   3      -3.757  14.173  17.7030  0.00  0.00     0.000 HD
ATOM     42   C  NAG B   3      -2.098  12.917  16.6670  0.00  0.00     0.000 C
ATOM     43   O  NAG B   3      -0.862  12.748  17.3710  0.00  0.00     0.000 O
ATOM     45  HD  NAG B   3      -0.701  12.491  16.5600  0.00  0.00     0.000 HD
BRANCH 35 47
ATOM     45   N  NAG B   3      -4.085  10.231  21.0480  0.00  0.00     0.000 N
ATOM     47  HD  NAG B   3      -3.558  10.914  20.9750  0.00  0.00     0.000 HD
ATOM     47   C  NAG B   3      -5.124   9.729  21.6850  0.00  0.00     0.000 C
ATOM     48   C  NAG B   3      -4.844   9.109  23.0220  0.00  0.00     0.000 C
ATOM     49   O  NAG B   3      -6.262   9.788  21.2230  0.00  0.00     0.000 OA
ENDBRANCH 35 47
BRANCH 34 50
ATOM     50  O4  BDP B   4      -3.498   8.958  18.6910  0.00  0.00     0.000 O
BRANCH 50 54
ATOM     51  C1  BDP B   4      -3.291   5.151  17.2720  0.00  0.00     0.000 C
ATOM     52  C2  BDP B   4      -2.180   6.071  16.7780  0.00  0.00     0.000 C
ATOM     53  C3  BDP B   4      -2.150   7.293  17.6420  0.00  0.00     0.000 C
ATOM     54  C4  BDP B   4      -3.556   7.960  17.6580  0.00  0.00     0.000 C
ATOM     55  C5  BDP B   4      -4.666   6.963  17.9610  0.00  0.00     0.000 C
ATOM     56  O5  BDP B   4      -4.538   5.809  17.1360  0.00  0.00     0.000 O
ATOM     57   O  BDP B   4      -0.932   5.415  16.8510  0.00  0.00     0.000 O
ATOM     59  HD  BDP B   4      -0.757   5.187  16.0340  0.00  0.00     0.000 HD
ATOM     59   O  BDP B   4      -1.227   8.217  17.0300  0.00  0.00     0.000 O
ATOM     61  HD  BDP B   4      -1.051   7.989  16.2140  0.00  0.00     0.000 HD
BRANCH 55 61
ATOM     61   C  BDP B   4      -6.011   7.617  17.6980  0.00  0.00     0.000 C
ATOM     62   O  BDP B   4      -6.345   7.823  16.5020  0.00  0.00     0.000 OA
ATOM     63   O  BDP B   4      -6.735   7.923  18.6950  0.00  0.00     0.000 OA
ENDBRANCH 55 61
BRANCH 51 64
ATOM     64  O3  NAG B   5      -3.251   3.960  16.4620  0.00  0.00     0.000 O
BRANCH 64 67
ATOM     65  C1  NAG B   5      -3.956   0.647  17.9190  0.00  0.00     0.000 C
ATOM     66  C2  NAG B   5      -3.168   1.896  17.5630  0.00  0.00     0.000 C
ATOM     67  C3  NAG B   5      -4.097   2.939  16.9550  0.00  0.00     0.000 C
ATOM     68  C4  NAG B   5      -4.909   2.345  15.7960  0.00  0.00     0.000 C
ATOM     69  C5  NAG B   5      -5.585   1.051  16.2210  0.00  0.00     0.000 C
ATOM     70  O5  NAG B   5      -4.614   0.151  16.7760  0.00  0.00     0.000 O
ATOM     71   O  NAG B   5      -5.856   3.301  15.3710  0.00  0.00     0.000 O
ATOM     73  HD  NAG B   5      -5.605   3.025  14.5900  0.00  0.00     0.000 HD
ATOM     73   C  NAG B   5      -6.317   0.318  15.0880  0.00  0.00     0.000 C
ATOM     74   O  NAG B   5      -5.365  -0.103  14.0900  0.00  0.00     0.000 O
ATOM     76  HD  NAG B   5      -5.114  -0.380  13.3080  0.00  0.00     0.000 HD
BRANCH 66 78
ATOM     76   N  NAG B   5      -2.465   2.129  18.8390  0.00  0.00     0.000 N
ATOM     78  HD  NAG B   5      -2.267   2.114  17.9960  0.00  0.00     0.000 HD
ATOM     78   C  NAG B   5      -1.222   2.617  18.9780  0.00  0.00     0.000 C
ATOM     79   C  NAG B   5      -0.790   2.759  20.4130  0.00  0.00     0.000 C
ATOM     80   O  NAG B   5      -0.472   2.925  17.9840  0.00  0.00     0.000 OA
ENDBRANCH 66 78
BRANCH 65 81
ATOM     81  O4  BDP B   6      -3.078  -0.355  18.4490  0.00  0.00     0.000 O
BRANCH 81 85
ATOM     82  C1  BDP B   6      -3.198  -3.887  20.8730  0.00  0.00     0.000 C
ATOM     83  C2  BDP B   6      -3.713  -3.997  19.4410  0.00  0.00     0.000 C
ATOM     84  C3  BDP B   6      -3.259  -2.834  18.5540  0.00  0.00     0.000 C
ATOM     85  C4  BDP B   6      -3.564  -1.476  19.1910  0.00  0.00     0.000 C
ATOM     86  C5  BDP B   6      -3.028  -1.500  20.6420  0.00  0.00     0.000 C
ATOM     87  O5  BDP B   6      -3.572  -2.624  21.4060  0.00  0.00     0.000 O
ATOM     88   O  BDP B   6      -3.177  -5.218  18.9370  0.00  0.00     0.000 O
ATOM     90  HD  BDP B   6      -2.816  -5.542  18.2200  0.00  0.00     0.000 HD
ATOM     90   O  BDP B   6      -3.870  -2.945  17.2670  0.00  0.00     0.000 O
ATOM     92  HD  BDP B   6      -3.509  -3.270  16.5500  0.00  0.00     0.000 HD
BRANCH 86 92
ATOM     92   C  BDP B   6      -3.503  -0.286  21.4020  0.00  0.00     0.000 C
ATOM     93   O  BDP B   6      -4.704   0.102  21.2720  0.00  0.00     0.000 OA
ATOM     94   O  BDP B   6      -2.669   0.289  22.1690  0.00  0.00     0.000 OA
ENDBRANCH 86 92
BRANCH 82 95
ATOM     95  O3  NAG B   7      -3.837  -4.908  21.6640  0.00  0.00     0.000 O
BRANCH 95 98
ATOM     96  C1  NAG B   7      -3.214  -7.376  24.2840  0.00  0.00     0.000 C
ATOM     97  C2  NAG B   7      -4.058  -6.488  23.3790  0.00  0.00     0.000 C
ATOM     98  C3  NAG B   7      -3.046  -5.693  22.5560  0.00  0.00     0.000 C
ATOM     99  C4  NAG B   7      -2.159  -4.865  23.4820  0.00  0.00     0.000 C
ATOM    100  C5  NAG B   7      -1.508  -5.748  24.5480  0.00  0.00     0.000 C
ATOM    101  O5  NAG B   7      -2.517  -6.513  25.1890  0.00  0.00     0.000 O
BRANCH 97 104
ATOM    102   N  NAG B   7      -4.900  -7.191  22.4020  0.00  0.00     0.000 N
ATOM    104  HD  NAG B   7      -5.235  -7.482  21.6580  0.00  0.00     0.000 HD
ATOM    104   O  NAG B   7      -6.805  -7.718  21.2950  0.00  0.00     0.000 OA
ATOM    105   C  NAG B   7      -6.230  -7.099  22.2120  0.00  0.00     0.000 C
ATOM    106   C  NAG B   7      -7.032  -6.222  23.1120  0.00  0.00     0.000 C
ENDBRANCH 97 104
ATOM    107   O  NAG B   7       0.062  -5.763  26.2900  0.00  0.00     0.000 O
ATOM    109  HD  NAG B   7      -0.260  -6.212  25.6240  0.00  0.00     0.000 HD
ATOM    109   O  NAG B   7       0.062  -5.763  26.2900  0.00  0.00     0.000 O
ATOM    111  HD  NAG B   7      -0.260  -6.212  25.6240  0.00  0.00     0.000 HD
ENDBRANCH 95 98
ENDBRANCH 82 95
ENDBRANCH 81 85
ENDBRANCH 65 81
ENDBRANCH 64 67
ENDBRANCH 51 64
ENDBRANCH 50 54
ENDBRANCH 34 50
ENDBRANCH 33 36
ENDBRANCH 20 33
ENDBRANCH 19 23
ENDBRANCH 1 19
TORSDOF 19
ENDMDL
MODEL 95
REMARK VINA RESULT:      -4.9      5.366     19.500
ROOT
ATOM      1  C1  NAG B   1      16.641  -6.040  -6.8340  0.00  0.00     0.000 C
ATOM      2  C2  NAG B   1      17.899  -6.566  -7.5200  0.00  0.00     0.000 C
ATOM      3  C3  NAG B   1      17.573  -7.324  -8.7910  0.00  0.00     0.000 C
ATOM      4  C4  NAG B   1      16.630  -8.445  -8.3670  0.00  0.00     0.000 C
ATOM      5  C5  NAG B   1      15.338  -7.833  -7.8110  0.00  0.00     0.000 C
ATOM      6  O5  NAG B   1      15.606  -7.018  -6.6490  0.00  0.00     0.000 O
ATOM      7   O  NAG B   1      18.757  -7.859  -9.4260  0.00  0.00     0.000 O
ATOM      9  HD  NAG B   1      19.045  -7.113  -9.0930  0.00  0.00     0.000 HD
ATOM      9   O  NAG B   1      16.329  -9.275  -9.4760  0.00  0.00     0.000 O
ATOM     11  HD  NAG B   1      16.617  -8.529  -9.1430  0.00  0.00     0.000 HD
ATOM     11   C  NAG B   1      14.322  -8.940  -7.5060  0.00  0.00     0.000 C
ATOM     12   O  NAG B   1      13.447  -8.562  -6.4460  0.00  0.00     0.000 O
ATOM     14  HD  NAG B   1      13.734  -7.816  -6.1130  0.00  0.00     0.000 HD
ENDROOT
BRANCH 2 16
ATOM     14   N  NAG B   1      18.867  -5.494  -7.8110  0.00  0.00     0.000 N
ATOM     16  HD  NAG B   1      19.150  -4.725  -7.5290  0.00  0.00     0.000 HD
ATOM     16   C  NAG B   1      20.039  -5.366  -7.1650  0.00  0.00     0.000 C
ATOM     17   C  NAG B   1      20.400  -6.331  -6.0660  0.00  0.00     0.000 C
ATOM     18   O  NAG B   1      20.844  -4.487  -7.4700  0.00  0.00     0.000 OA
ENDBRANCH 2 16
BRANCH 1 19
ATOM     19  O4  BDP B   2      17.099  -5.704  -5.5320  0.00  0.00     0.000 O
BRANCH 19 23
ATOM     20  C1  BDP B   2      15.613  -6.004  -1.7050  0.00  0.00     0.000 C
ATOM     21  C2  BDP B   2      15.939  -7.307  -2.4050  0.00  0.00     0.000 C
ATOM     22  C3  BDP B   2      16.846  -7.079  -3.5930  0.00  0.00     0.000 C
ATOM     23  C4  BDP B   2      16.205  -6.028  -4.4950  0.00  0.00     0.000 C
ATOM     24  C5  BDP B   2      15.936  -4.771  -3.6910  0.00  0.00     0.000 C
ATOM     25  O5  BDP B   2      15.059  -5.070  -2.6220  0.00  0.00     0.000 O
ATOM     26   O  BDP B   2      16.552  -8.206  -1.5050  0.00  0.00     0.000 O
ATOM     28  HD  BDP B   2      16.272  -7.598  -0.9550  0.00  0.00     0.000 HD
ATOM     28   O  BDP B   2      17.051  -8.325  -4.2780  0.00  0.00     0.000 O
ATOM     30  HD  BDP B   2      16.771  -7.717  -3.7280  0.00  0.00     0.000 HD
BRANCH 24 30
ATOM     30   C  BDP B   2      15.299  -3.706  -4.5100  0.00  0.00     0.000 C
ATOM     31   O  BDP B   2      14.047  -3.669  -4.5310  0.00  0.00     0.000 OA
ATOM     32   O  BDP B   2      16.046  -2.906  -5.1430  0.00  0.00     0.000 OA
ENDBRANCH 24 30
BRANCH 20 33
ATOM     33  O3  NAG B   3      14.633  -6.361  -0.7610  0.00  0.00     0.000 O
BRANCH 33 36
ATOM     34  C1  NAG B   3      14.502  -5.974   2.9780  0.00  0.00     0.000 C
ATOM     35  C2  NAG B   3      14.496  -6.679   1.6350  0.00  0.00     0.000 C
ATOM     36  C3  NAG B   3      14.846  -5.711   0.4940  0.00  0.00     0.000 C
ATOM     37  C4  NAG B   3      13.941  -4.484   0.5760  0.00  0.00     0.000 C
ATOM     38  C5  NAG B   3      13.958  -3.908   1.9890  0.00  0.00     0.000 C
ATOM     39  O5  NAG B   3      13.571  -4.903   2.9220  0.00  0.00     0.000 O
ATOM     40   O  NAG B   3      14.385  -3.484  -0.3540  0.00  0.00     0.000 O
ATOM     42  HD  NAG B   3      14.386  -2.996   0.3620  0.00  0.00     0.000 HD
ATOM     42   C  NAG B   3      12.979  -2.755   2.1970  0.00  0.00     0.000 C
ATOM     43   O  NAG B   3      11.636  -3.237   2.0660  0.00  0.00     0.000 O
ATOM     45  HD  NAG B   3      11.637  -2.749   2.7820  0.00  0.00     0.000 HD
BRANCH 35 47
ATOM     45   N  NAG B   3      15.429  -7.798   1.5970  0.00  0.00     0.000 N
ATOM     47  HD  NAG B   3      15.573  -7.267   2.2650  0.00  0.00     0.000 HD
ATOM     47   C  NAG B   3      15.073  -9.016   1.2390  0.00  0.00     0.000 C
ATOM     48   C  NAG B   3      16.153 -10.057   1.2740  0.00  0.00     0.000 C
ATOM     49   O  NAG B   3      13.918  -9.290   0.9200  0.00  0.00     0.000 OA
ENDBRANCH 35 47
BRANCH 34 50
ATOM     50  O4  BDP B   4      14.056  -6.966   3.8790  0.00  0.00     0.000 O
BRANCH 50 54
ATOM     51  C1  BDP B   4      14.183  -8.103   7.7830  0.00  0.00     0.000 C
ATOM     52  C2  BDP B   4      14.006  -6.604   7.5670  0.00  0.00     0.000 C
ATOM     53  C3  BDP B   4      13.604  -6.369   6.1430  0.00  0.00     0.000 C
ATOM     54  C4  BDP B   4      14.645  -7.022   5.1890  0.00  0.00     0.000 C
ATOM     55  C5  BDP B   4      14.946  -8.468   5.5620  0.00  0.00     0.000 C
ATOM     56  O5  BDP B   4      15.229  -8.574   6.9540  0.00  0.00     0.000 O
ATOM     57   O  BDP B   4      13.004  -6.100   8.4250  0.00  0.00     0.000 O
ATOM     59  HD  BDP B   4      13.439  -5.698   9.0560  0.00  0.00     0.000 HD
ATOM     59   O  BDP B   4      13.635  -4.944   5.9270  0.00  0.00     0.000 O
ATOM     61  HD  BDP B   4      14.071  -4.541   6.5590  0.00  0.00     0.000 HD
BRANCH 55 61
ATOM     61   C  BDP B   4      16.148  -8.949   4.7690  0.00  0.00     0.000 C
ATOM     62   O  BDP B   4      16.295 -10.190   4.6150  0.00  0.00     0.000 OA
ATOM     63   O  BDP B   4      16.945  -8.081   4.2990  0.00  0.00     0.000 OA
ENDBRANCH 55 61
BRANCH 51 64
ATOM     64  O3  NAG B   5      14.505  -8.298   9.1740  0.00  0.00     0.000 O
BRANCH 64 67
ATOM     65  C1  NAG B   5      13.277 -11.094  11.2400  0.00  0.00     0.000 C
ATOM     66  C2  NAG B   5      13.298  -9.724  10.5840  0.00  0.00     0.000 C
ATOM     67  C3  NAG B   5      14.427  -9.655   9.5640  0.00  0.00     0.000 C
ATOM     68  C4  NAG B   5      15.762 -10.083  10.1900  0.00  0.00     0.000 C
ATOM     69  C5  NAG B   5      15.618 -11.420  10.9010  0.00  0.00     0.000 C
ATOM     70  O5  NAG B   5      14.527 -11.363  11.8320  0.00  0.00     0.000 O
ATOM     71   O  NAG B   5      16.738 -10.148   9.1720  0.00  0.00     0.000 O
ATOM     73  HD  NAG B   5      17.224  -9.769   9.7810  0.00  0.00     0.000 HD
ATOM     73   C  NAG B   5      16.871 -11.867  11.6660  0.00  0.00     0.000 C
ATOM     74   O  NAG B   5      17.145 -10.936  12.7340  0.00  0.00     0.000 O
ATOM     76  HD  NAG B   5      17.630 -10.557  13.3420  0.00  0.00     0.000 HD
BRANCH 66 78
ATOM     76   N  NAG B   5      11.921  -9.577  10.0740  0.00  0.00     0.000 N
ATOM     78  HD  NAG B   5      12.459  -9.138  10.5920  0.00  0.00     0.000 HD
ATOM     78   C  NAG B   5      11.156  -8.479  10.1740  0.00  0.00     0.000 C
ATOM     79   C  NAG B   5       9.801  -8.632   9.5370  0.00  0.00     0.000 C
ATOM     80   O  NAG B   5      11.539  -7.406  10.7630  0.00  0.00     0.000 OA
ENDBRANCH 66 78
BRANCH 65 81
ATOM     81  O4  BDP B   6      12.245 -11.148  12.2340  0.00  0.00     0.000 O
BRANCH 81 85
ATOM     82  C1  BDP B   6       9.646 -14.164  13.8200  0.00  0.00     0.000 C
ATOM     83  C2  BDP B   6      10.883 -14.629  13.0560  0.00  0.00     0.000 C
ATOM     84  C3  BDP B   6      11.932 -13.526  12.8940  0.00  0.00     0.000 C
ATOM     85  C4  BDP B   6      11.329 -12.242  12.3200  0.00  0.00     0.000 C
ATOM     86  C5  BDP B   6      10.071 -11.895  13.1520  0.00  0.00     0.000 C
ATOM     87  O5  BDP B   6       9.119 -13.005  13.1900  0.00  0.00     0.000 O
ATOM     88   O  BDP B   6      11.428 -15.696  13.8270  0.00  0.00     0.000 O
ATOM     90  HD  BDP B   6      12.191 -16.000  14.1000  0.00  0.00     0.000 HD
ATOM     90   O  BDP B   6      13.004 -14.000  12.0740  0.00  0.00     0.000 O
ATOM     92  HD  BDP B   6      13.767 -14.304  12.3470  0.00  0.00     0.000 HD
BRANCH 86 92
ATOM     92   C  BDP B   6       9.295 -10.778  12.4960  0.00  0.00     0.000 C
ATOM     93   O  BDP B   6       8.955 -10.885  11.2790  0.00  0.00     0.000 OA
ATOM     94   O  BDP B   6       8.994  -9.774  13.2140  0.00  0.00     0.000 OA
ENDBRANCH 86 92
BRANCH 82 95
ATOM     95  O3  NAG B   7       8.649 -15.202  13.7440  0.00  0.00     0.000 O
BRANCH 95 98
ATOM     96  C1  NAG B   7       5.979 -16.297  15.9830  0.00  0.00     0.000 C
ATOM     97  C2  NAG B   7       7.221 -16.453  15.1150  0.00  0.00     0.000 C
ATOM     98  C3  NAG B   7       7.450 -15.071  14.5070  0.00  0.00     0.000 C
ATOM     99  C4  NAG B   7       6.236 -14.660  13.6770  0.00  0.00     0.000 C
ATOM    100  C5  NAG B   7       4.954 -14.749  14.5050  0.00  0.00     0.000 C
ATOM    101  O5  NAG B   7       4.880 -16.034  15.1030  0.00  0.00     0.000 O
BRANCH 97 104
ATOM    102   N  NAG B   7       8.452 -16.793  15.8400  0.00  0.00     0.000 N
ATOM    104  HD  NAG B   7       9.244 -16.751  16.1890  0.00  0.00     0.000 HD
ATOM    104   O  NAG B   7      10.357 -17.936  16.2840  0.00  0.00     0.000 OA
ATOM    105   C  NAG B   7       9.311 -17.806  15.6170  0.00  0.00     0.000 C
ATOM    106   C  NAG B   7       9.011 -18.786  14.5350  0.00  0.00     0.000 C
ENDBRANCH 97 104
ATOM    107   O  NAG B   7       2.657 -14.270  14.4930  0.00  0.00     0.000 O
ATOM    109  HD  NAG B   7       3.377 -14.275  14.9740  0.00  0.00     0.000 HD
ATOM    109   O  NAG B   7       2.657 -14.270  14.4930  0.00  0.00     0.000 O
ATOM    111  HD  NAG B   7       3.377 -14.275  14.9740  0.00  0.00     0.000 HD
ENDBRANCH 95 98
ENDBRANCH 82 95
ENDBRANCH 81 85
ENDBRANCH 65 81
ENDBRANCH 64 67
ENDBRANCH 51 64
ENDBRANCH 50 54
ENDBRANCH 34 50
ENDBRANCH 33 36
ENDBRANCH 20 33
ENDBRANCH 19 23
ENDBRANCH 1 19
TORSDOF 19
ENDMDL
MODEL 96
REMARK VINA RESULT:      -4.9      6.908      9.815
ROOT
ATOM      1  C1  NAG B   1       1.554 -17.418  18.9620  0.00  0.00     0.000 C
ATOM      2  C2  NAG B   1       0.211 -17.017  18.3570  0.00  0.00     0.000 C
ATOM      3  C3  NAG B   1      -0.633 -18.225  18.0060  0.00  0.00     0.000 C
ATOM      4  C4  NAG B   1       0.215 -19.050  17.0440  0.00  0.00     0.000 C
ATOM      5  C5  NAG B   1       1.481 -19.524  17.7690  0.00  0.00     0.000 C
ATOM      6  O5  NAG B   1       2.278 -18.404  18.2110  0.00  0.00     0.000 O
ATOM      7   O  NAG B   1      -1.890 -17.854  17.3960  0.00  0.00     0.000 O
ATOM      9  HD  NAG B   1      -1.762 -17.213  17.9640  0.00  0.00     0.000 HD
ATOM      9   O  NAG B   1      -0.521 -20.170  16.5810  0.00  0.00     0.000 O
ATOM     11  HD  NAG B   1      -0.393 -19.529  17.1490  0.00  0.00     0.000 HD
ATOM     11   C  NAG B   1       2.281 -20.469  16.8630  0.00  0.00     0.000 C
ATOM     12   O  NAG B   1       3.676 -20.412  17.1590  0.00  0.00     0.000 O
ATOM     14  HD  NAG B   1       3.804 -19.771  17.7270  0.00  0.00     0.000 HD
ENDROOT
BRANCH 2 16
ATOM     14   N  NAG B   1      -0.411 -15.723  18.0260  0.00  0.00     0.000 N
ATOM     16  HD  NAG B   1      -1.172 -15.310  18.0010  0.00  0.00     0.000 HD
ATOM     16   C  NAG B   1      -0.753 -14.813  18.9550  0.00  0.00     0.000 C
ATOM     17   C  NAG B   1      -0.529 -15.109  20.4140  0.00  0.00     0.000 C
ATOM     18   O  NAG B   1      -1.226 -13.722  18.6370  0.00  0.00     0.000 OA
ENDBRANCH 2 16
BRANCH 1 19
ATOM     19  O4  BDP B   2       2.317 -16.222  18.8770  0.00  0.00     0.000 O
BRANCH 19 23
ATOM     20  C1  BDP B   2       5.629 -14.990  16.7660  0.00  0.00     0.000 C
ATOM     21  C2  BDP B   2       4.324 -15.046  15.9980  0.00  0.00     0.000 C
ATOM     22  C3  BDP B   2       3.139 -15.094  16.9360  0.00  0.00     0.000 C
ATOM     23  C4  BDP B   2       3.342 -16.250  17.9120  0.00  0.00     0.000 C
ATOM     24  C5  BDP B   2       4.668 -16.079  18.6260  0.00  0.00     0.000 C
ATOM     25  O5  BDP B   2       5.719 -16.075  17.6780  0.00  0.00     0.000 O
ATOM     26   O  BDP B   2       4.210 -13.929  15.1440  0.00  0.00     0.000 O
ATOM     28  HD  BDP B   2       5.041 -13.863  15.3780  0.00  0.00     0.000 HD
ATOM     28   O  BDP B   2       1.934 -15.242  16.1680  0.00  0.00     0.000 O
ATOM     30  HD  BDP B   2       2.765 -15.176  16.4020  0.00  0.00     0.000 HD
BRANCH 24 30
ATOM     30   C  BDP B   2       4.934 -17.182  19.5870  0.00  0.00     0.000 C
ATOM     31   O  BDP B   2       5.248 -18.297  19.1100  0.00  0.00     0.000 OA
ATOM     32   O  BDP B   2       4.823 -16.941  20.8230  0.00  0.00     0.000 OA
ENDBRANCH 24 30
BRANCH 20 33
ATOM     33  O3  NAG B   3       6.614 -15.138  15.7730  0.00  0.00     0.000 O
BRANCH 33 36
ATOM     34  C1  NAG B   3       9.960 -13.466  16.1720  0.00  0.00     0.000 C
ATOM     35  C2  NAG B   3       8.493 -13.611  15.8140  0.00  0.00     0.000 C
ATOM     36  C3  NAG B   3       7.930 -14.955  16.3010  0.00  0.00     0.000 C
ATOM     37  C4  NAG B   3       8.824 -16.088  15.8040  0.00  0.00     0.000 C
ATOM     38  C5  NAG B   3      10.284 -15.798  16.1420  0.00  0.00     0.000 C
ATOM     39  O5  NAG B   3      10.669 -14.550  15.5890  0.00  0.00     0.000 O
ATOM     40   O  NAG B   3       8.431 -17.328  16.4130  0.00  0.00     0.000 O
ATOM     42  HD  NAG B   3       9.268 -17.343  16.6330  0.00  0.00     0.000 HD
ATOM     42   C  NAG B   3      11.265 -16.816  15.5670  0.00  0.00     0.000 C
ATOM     43   O  NAG B   3      11.250 -16.741  14.1360  0.00  0.00     0.000 O
ATOM     45  HD  NAG B   3      12.087 -16.756  14.3560  0.00  0.00     0.000 HD
BRANCH 35 47
ATOM     45   N  NAG B   3       7.667 -12.673  15.0650  0.00  0.00     0.000 N
ATOM     47  HD  NAG B   3       7.715 -13.451  14.6870  0.00  0.00     0.000 HD
ATOM     47   C  NAG B   3       6.870 -11.798  15.6440  0.00  0.00     0.000 C
ATOM     48   C  NAG B   3       6.074 -10.919  14.7250  0.00  0.00     0.000 C
ATOM     49   O  NAG B   3       6.764 -11.723  16.8670  0.00  0.00     0.000 OA
ENDBRANCH 35 47
BRANCH 34 50
ATOM     50  O4  BDP B   4      10.333 -12.249  15.5600  0.00  0.00     0.000 O
BRANCH 50 54
ATOM     51  C1  BDP B   4      12.948  -9.136  15.7230  0.00  0.00     0.000 C
ATOM     52  C2  BDP B   4      13.507 -10.397  15.0760  0.00  0.00     0.000 C
ATOM     53  C3  BDP B   4      12.368 -11.311  14.7420  0.00  0.00     0.000 C
ATOM     54  C4  BDP B   4      11.522 -11.583  16.0190  0.00  0.00     0.000 C
ATOM     55  C5  BDP B   4      11.149 -10.301  16.7510  0.00  0.00     0.000 C
ATOM     56  O5  BDP B   4      12.299  -9.480  16.9340  0.00  0.00     0.000 O
ATOM     57   O  BDP B   4      14.208 -10.072  13.8940  0.00  0.00     0.000 O
ATOM     59  HD  BDP B   4      15.043 -10.123  14.1140  0.00  0.00     0.000 HD
ATOM     59   O  BDP B   4      12.944 -12.562  14.3150  0.00  0.00     0.000 O
ATOM     61  HD  BDP B   4      13.780 -12.613  14.5360  0.00  0.00     0.000 HD
BRANCH 55 61
ATOM     61   C  BDP B   4      10.566 -10.651  18.1080  0.00  0.00     0.000 C
ATOM     62   O  BDP B   4       9.492 -10.092  18.4520  0.00  0.00     0.000 OA
ATOM     63   O  BDP B   4      11.185 -11.491  18.8300  0.00  0.00     0.000 OA
ENDBRANCH 55 61
BRANCH 51 64
ATOM     64  O3  NAG B   5      14.060  -8.254  15.9710  0.00  0.00     0.000 O
BRANCH 64 67
ATOM     65  C1  NAG B   5      13.735  -4.584  16.1050  0.00  0.00     0.000 C
ATOM     66  C2  NAG B   5      13.912  -5.966  15.5010  0.00  0.00     0.000 C
ATOM     67  C3  NAG B   5      13.663  -7.031  16.5610  0.00  0.00     0.000 C
ATOM     68  C4  NAG B   5      14.510  -6.770  17.8140  0.00  0.00     0.000 C
ATOM     69  C5  NAG B   5      14.338  -5.336  18.2900  0.00  0.00     0.000 C
ATOM     70  O5  NAG B   5      14.597  -4.428  17.2090  0.00  0.00     0.000 O
ATOM     71   O  NAG B   5      14.131  -7.690  18.8150  0.00  0.00     0.000 O
ATOM     73  HD  NAG B   5      14.988  -7.727  18.9350  0.00  0.00     0.000 HD
ATOM     73   C  NAG B   5      15.245  -4.947  19.4650  0.00  0.00     0.000 C
ATOM     74   O  NAG B   5      16.626  -5.008  19.0510  0.00  0.00     0.000 O
ATOM     76  HD  NAG B   5      17.483  -5.046  19.1710  0.00  0.00     0.000 HD
BRANCH 66 78
ATOM     76   N  NAG B   5      13.077  -5.800  14.2960  0.00  0.00     0.000 N
ATOM     78  HD  NAG B   5      13.844  -6.148  14.4960  0.00  0.00     0.000 HD
ATOM     78   C  NAG B   5      13.274  -6.398  13.1100  0.00  0.00     0.000 C
ATOM     79   C  NAG B   5      12.238  -6.042  12.0790  0.00  0.00     0.000 C
ATOM     80   O  NAG B   5      14.256  -7.190  12.8770  0.00  0.00     0.000 OA
ENDBRANCH 66 78
BRANCH 65 81
ATOM     81  O4  BDP B   6      14.014  -3.577  15.1240  0.00  0.00     0.000 O
BRANCH 81 85
ATOM     82  C1  BDP B   6      14.060   0.686  14.6890  0.00  0.00     0.000 C
ATOM     83  C2  BDP B   6      15.121   0.057  15.5880  0.00  0.00     0.000 C
ATOM     84  C3  BDP B   6      15.279  -1.448  15.3580  0.00  0.00     0.000 C
ATOM     85  C4  BDP B   6      13.938  -2.181  15.4230  0.00  0.00     0.000 C
ATOM     86  C5  BDP B   6      12.942  -1.434  14.5040  0.00  0.00     0.000 C
ATOM     87  O5  BDP B   6      12.836  -0.016  14.8530  0.00  0.00     0.000 O
ATOM     88   O  BDP B   6      16.339   0.720  15.2590  0.00  0.00     0.000 O
ATOM     90  HD  BDP B   6      17.177   0.548  15.1250  0.00  0.00     0.000 HD
ATOM     90   O  BDP B   6      16.203  -1.985  16.3080  0.00  0.00     0.000 O
ATOM     92  HD  BDP B   6      17.041  -2.156  16.1740  0.00  0.00     0.000 HD
BRANCH 86 92
ATOM     92   C  BDP B   6      11.541  -1.959  14.7030  0.00  0.00     0.000 C
ATOM     93   O  BDP B   6      11.186  -3.028  14.1210  0.00  0.00     0.000 OA
ATOM     94   O  BDP B   6      10.775  -1.305  15.4770  0.00  0.00     0.000 OA
ENDBRANCH 86 92
BRANCH 82 95
ATOM     95  O3  NAG B   7      13.850   2.046  15.1180  0.00  0.00     0.000 O
BRANCH 95 98
ATOM     96  C1  NAG B   7      13.506   5.232  13.3660  0.00  0.00     0.000 C
ATOM     97  C2  NAG B   7      14.085   4.257  14.3820  0.00  0.00     0.000 C
ATOM     98  C3  NAG B   7      13.266   2.979  14.2100  0.00  0.00     0.000 C
ATOM     99  C4  NAG B   7      11.792   3.265  14.4870  0.00  0.00     0.000 C
ATOM    100  C5  NAG B   7      11.290   4.424  13.6250  0.00  0.00     0.000 C
ATOM    101  O5  NAG B   7      12.167   5.528  13.7810  0.00  0.00     0.000 O
BRANCH 97 104
ATOM    102   N  NAG B   7      15.477   3.838  14.1730  0.00  0.00     0.000 N
ATOM    104  HD  NAG B   7      16.183   3.356  14.0310  0.00  0.00     0.000 HD
ATOM    104   O  NAG B   7      17.657   3.522  14.7020  0.00  0.00     0.000 OA
ATOM    105   C  NAG B   7      16.536   3.985  14.9920  0.00  0.00     0.000 C
ATOM    106   C  NAG B   7      16.358   4.707  16.2840  0.00  0.00     0.000 C
ENDBRANCH 97 104
ATOM    107   O  NAG B   7       9.373   5.624  13.0010  0.00  0.00     0.000 O
ATOM    109  HD  NAG B   7      10.121   5.288  12.7210  0.00  0.00     0.000 HD
ATOM    109   O  NAG B   7       9.373   5.624  13.0010  0.00  0.00     0.000 O
ATOM    111  HD  NAG B   7      10.121   5.288  12.7210  0.00  0.00     0.000 HD
ENDBRANCH 95 98
ENDBRANCH 82 95
ENDBRANCH 81 85
ENDBRANCH 65 81
ENDBRANCH 64 67
ENDBRANCH 51 64
ENDBRANCH 50 54
ENDBRANCH 34 50
ENDBRANCH 33 36
ENDBRANCH 20 33
ENDBRANCH 19 23
ENDBRANCH 1 19
TORSDOF 19
ENDMDL
MODEL 97
REMARK VINA RESULT:      -4.4     10.443     19.447
ROOT
ATOM      1  C1  NAG B   1      12.217   7.984  13.7430  0.00  0.00     0.000 C
ATOM      2  C2  NAG B   1      11.647   8.310  12.3650  0.00  0.00     0.000 C
ATOM      3  C3  NAG B   1      11.088   9.717  12.3050  0.00  0.00     0.000 C
ATOM      4  C4  NAG B   1      10.030   9.783  13.4010  0.00  0.00     0.000 C
ATOM      5  C5  NAG B   1      10.704   9.576  14.7640  0.00  0.00     0.000 C
ATOM      6  O5  NAG B   1      11.338   8.281  14.8400  0.00  0.00     0.000 O
ATOM      7   O  NAG B   1      10.511  10.020  11.0140  0.00  0.00     0.000 O
ATOM      9  HD  NAG B   1      11.177   9.506  10.8050  0.00  0.00     0.000 HD
ATOM      9   O  NAG B   1       9.377  11.041  13.3750  0.00  0.00     0.000 O
ATOM     11  HD  NAG B   1      10.042  10.527  13.1660  0.00  0.00     0.000 HD
ATOM     11   C  NAG B   1       9.681   9.774  15.8890  0.00  0.00     0.000 C
ATOM     12   O  NAG B   1      10.019   8.999  17.0380  0.00  0.00     0.000 O
ATOM     14  HD  NAG B   1      10.684   8.485  16.8300  0.00  0.00     0.000 HD
ENDROOT
BRANCH 2 16
ATOM     14   N  NAG B   1      12.712   8.008  11.3920  0.00  0.00     0.000 N
ATOM     16  HD  NAG B   1      13.326   7.428  11.2000  0.00  0.00     0.000 HD
ATOM     16   C  NAG B   1      12.562   7.126  10.3890  0.00  0.00     0.000 C
ATOM     17   C  NAG B   1      11.267   6.374  10.2380  0.00  0.00     0.000 C
ATOM     18   O  NAG B   1      13.457   6.937   9.5660  0.00  0.00     0.000 OA
ENDBRANCH 2 16
BRANCH 1 19
ATOM     19  O4  BDP B   2      12.342   6.569  13.7150  0.00  0.00     0.000 O
BRANCH 19 23
ATOM     20  C1  BDP B   2      11.430   3.481  16.2800  0.00  0.00     0.000 C
ATOM     21  C2  BDP B   2      10.268   4.100  15.5300  0.00  0.00     0.000 C
ATOM     22  C3  BDP B   2      10.747   4.903  14.3420  0.00  0.00     0.000 C
ATOM     23  C4  BDP B   2      11.786   5.909  14.8270  0.00  0.00     0.000 C
ATOM     24  C5  BDP B   2      12.900   5.177  15.5480  0.00  0.00     0.000 C
ATOM     25  O5  BDP B   2      12.368   4.479  16.6580  0.00  0.00     0.000 O
ATOM     26   O  BDP B   2       9.375   3.096  15.0970  0.00  0.00     0.000 O
ATOM     28  HD  BDP B   2       9.875   2.639  15.6370  0.00  0.00     0.000 HD
ATOM     28   O  BDP B   2       9.623   5.544  13.7200  0.00  0.00     0.000 O
ATOM     30  HD  BDP B   2      10.123   5.088  14.2600  0.00  0.00     0.000 HD
BRANCH 24 30
ATOM     30   C  BDP B   2      13.944   6.103  16.0580  0.00  0.00     0.000 C
ATOM     31   O  BDP B   2      15.118   5.923  15.6580  0.00  0.00     0.000 OA
ATOM     32   O  BDP B   2      13.599   7.011  16.8680  0.00  0.00     0.000 OA
ENDBRANCH 24 30
BRANCH 20 33
ATOM     33  O3  NAG B   3      10.839   2.940  17.4360  0.00  0.00     0.000 O
BRANCH 33 36
ATOM     34  C1  NAG B   3      11.725  -0.301  19.1290  0.00  0.00     0.000 C
ATOM     35  C2  NAG B   3      10.934   0.669  18.2720  0.00  0.00     0.000 C
ATOM     36  C3  NAG B   3      11.696   1.988  18.0710  0.00  0.00     0.000 C
ATOM     37  C4  NAG B   3      12.123   2.537  19.4300  0.00  0.00     0.000 C
ATOM     38  C5  NAG B   3      12.833   1.455  20.2400  0.00  0.00     0.000 C
ATOM     39  O5  NAG B   3      11.990   0.323  20.3770  0.00  0.00     0.000 O
ATOM     40   O  NAG B   3      13.005   3.657  19.2530  0.00  0.00     0.000 O
ATOM     42  HD  NAG B   3      13.512   3.181  19.7690  0.00  0.00     0.000 HD
ATOM     42   C  NAG B   3      13.179   1.878  21.6650  0.00  0.00     0.000 C
ATOM     43   O  NAG B   3      11.973   2.090  22.4080  0.00  0.00     0.000 O
ATOM     45  HD  NAG B   3      12.480   1.614  22.9250  0.00  0.00     0.000 HD
BRANCH 35 47
ATOM     45   N  NAG B   3      10.567  -0.054  17.0610  0.00  0.00     0.000 N
ATOM     47  HD  NAG B   3      11.045  -0.531  17.6020  0.00  0.00     0.000 HD
ATOM     47   C  NAG B   3       9.390   0.072  16.4800  0.00  0.00     0.000 C
ATOM     48   C  NAG B   3       9.167  -0.761  15.2520  0.00  0.00     0.000 C
ATOM     49   O  NAG B   3       8.515   0.807  16.9330  0.00  0.00     0.000 OA
ENDBRANCH 35 47
BRANCH 34 50
ATOM     50  O4  BDP B   4      10.844  -1.390  19.3010  0.00  0.00     0.000 O
BRANCH 50 54
ATOM     51  C1  BDP B   4      10.632  -5.400  19.9590  0.00  0.00     0.000 C
ATOM     52  C2  BDP B   4      10.923  -4.569  21.2040  0.00  0.00     0.000 C
ATOM     53  C3  BDP B   4      10.606  -3.136  20.9090  0.00  0.00     0.000 C
ATOM     54  C4  BDP B   4      11.392  -2.673  19.6490  0.00  0.00     0.000 C
ATOM     55  C5  BDP B   4      11.237  -3.638  18.4820  0.00  0.00     0.000 C
ATOM     56  O5  BDP B   4      11.480  -4.976  18.9060  0.00  0.00     0.000 O
ATOM     57   O  BDP B   4      10.128  -5.011  22.2840  0.00  0.00     0.000 O
ATOM     59  HD  BDP B   4      10.669  -5.473  22.7780  0.00  0.00     0.000 HD
ATOM     59   O  BDP B   4      11.073  -2.362  22.0330  0.00  0.00     0.000 O
ATOM     61  HD  BDP B   4      11.614  -2.824  22.5270  0.00  0.00     0.000 HD
BRANCH 55 61
ATOM     61   C  BDP B   4      12.229  -3.272  17.3930  0.00  0.00     0.000 C
ATOM     62   O  BDP B   4      11.778  -2.799  16.3170  0.00  0.00     0.000 OA
ATOM     63   O  BDP B   4      13.464  -3.458  17.6180  0.00  0.00     0.000 OA
ENDBRANCH 55 61
BRANCH 51 64
ATOM     64  O3  NAG B   5      10.885  -6.777  20.2960  0.00  0.00     0.000 O
BRANCH 64 67
ATOM     65  C1  NAG B   5       8.499  -9.422  19.3430  0.00  0.00     0.000 C
ATOM     66  C2  NAG B   5       9.090  -8.271  20.1400  0.00  0.00     0.000 C
ATOM     67  C3  NAG B   5      10.277  -7.679  19.3910  0.00  0.00     0.000 C
ATOM     68  C4  NAG B   5      11.284  -8.770  19.0030  0.00  0.00     0.000 C
ATOM     69  C5  NAG B   5      10.585  -9.919  18.2940  0.00  0.00     0.000 C
ATOM     70  O5  NAG B   5       9.490 -10.392  19.0920  0.00  0.00     0.000 O
ATOM     71   O  NAG B   5      12.281  -8.195  18.1860  0.00  0.00     0.000 O
ATOM     73  HD  NAG B   5      12.797  -8.687  18.6770  0.00  0.00     0.000 HD
ATOM     73   C  NAG B   5      11.495 -11.116  17.9810  0.00  0.00     0.000 C
ATOM     74   O  NAG B   5      11.961 -11.704  19.2130  0.00  0.00     0.000 O
ATOM     76  HD  NAG B   5      12.477 -12.196  19.7040  0.00  0.00     0.000 HD
BRANCH 66 78
ATOM     76   N  NAG B   5       8.068  -7.226  20.3380  0.00  0.00     0.000 N
ATOM     78  HD  NAG B   5       8.472  -7.821  20.8200  0.00  0.00     0.000 HD
ATOM     78   C  NAG B   5       7.607  -6.787  21.5200  0.00  0.00     0.000 C
ATOM     79   C  NAG B   5       6.577  -5.697  21.3950  0.00  0.00     0.000 C
ATOM     80   O  NAG B   5       7.999  -7.259  22.6470  0.00  0.00     0.000 OA
ENDBRANCH 66 78
BRANCH 65 81
ATOM     81  O4  BDP B   6       7.410 -10.013  20.0640  0.00  0.00     0.000 O
BRANCH 81 85
ATOM     82  C1  BDP B   6       3.676 -11.985  19.3360  0.00  0.00     0.000 C
ATOM     83  C2  BDP B   6       4.899 -12.484  18.5710  0.00  0.00     0.000 C
ATOM     84  C3  BDP B   6       6.219 -12.012  19.1850  0.00  0.00     0.000 C
ATOM     85  C4  BDP B   6       6.237 -10.498  19.4070  0.00  0.00     0.000 C
ATOM     86  C5  BDP B   6       4.939 -10.112  20.1560  0.00  0.00     0.000 C
ATOM     87  O5  BDP B   6       3.743 -10.571  19.4480  0.00  0.00     0.000 O
ATOM     88   O  BDP B   6       4.828 -13.907  18.6280  0.00  0.00     0.000 O
ATOM     90  HD  BDP B   6       5.339 -14.596  18.7480  0.00  0.00     0.000 HD
ATOM     90   O  BDP B   6       7.308 -12.420  18.3540  0.00  0.00     0.000 O
ATOM     92  HD  BDP B   6       7.819 -13.109  18.4730  0.00  0.00     0.000 HD
BRANCH 86 92
ATOM     92   C  BDP B   6       4.778  -8.611  20.1980  0.00  0.00     0.000 C
ATOM     93   O  BDP B   6       4.287  -8.065  21.2320  0.00  0.00     0.000 OA
ATOM     94   O  BDP B   6       5.171  -7.951  19.1870  0.00  0.00     0.000 OA
ENDBRANCH 86 92
BRANCH 82 95
ATOM     95  O3  NAG B   7       2.498 -12.313  18.5730  0.00  0.00     0.000 O
BRANCH 95 98
ATOM     96  C1  NAG B   7      -0.719 -14.032  18.7660  0.00  0.00     0.000 C
ATOM     97  C2  NAG B   7       0.373 -13.186  18.1230  0.00  0.00     0.000 C
ATOM     98  C3  NAG B   7       1.450 -13.052  19.1980  0.00  0.00     0.000 C
ATOM     99  C4  NAG B   7       0.868 -12.370  20.4330  0.00  0.00     0.000 C
ATOM    100  C5  NAG B   7      -0.384 -13.100  20.9220  0.00  0.00     0.000 C
ATOM    101  O5  NAG B   7      -1.279 -13.258  19.8320  0.00  0.00     0.000 O
BRANCH 97 104
ATOM    102   N  NAG B   7       0.892 -13.118  16.7500  0.00  0.00     0.000 N
ATOM    104  HD  NAG B   7       0.946 -13.022  15.8910  0.00  0.00     0.000 HD
ATOM    104   O  NAG B   7       1.838 -13.892  14.8430  0.00  0.00     0.000 OA
ATOM    105   C  NAG B   7       1.501 -14.079  16.0290  0.00  0.00     0.000 C
ATOM    106   C  NAG B   7       1.764 -15.402  16.6610  0.00  0.00     0.000 C
ENDBRANCH 97 104
ATOM    107   O  NAG B   7      -1.966 -13.191  22.6520  0.00  0.00     0.000 O
ATOM    109  HD  NAG B   7      -1.487 -13.661  22.1050  0.00  0.00     0.000 HD
ATOM    109   O  NAG B   7      -1.966 -13.191  22.6520  0.00  0.00     0.000 O
ATOM    111  HD  NAG B   7      -1.487 -13.661  22.1050  0.00  0.00     0.000 HD
ENDBRANCH 95 98
ENDBRANCH 82 95
ENDBRANCH 81 85
ENDBRANCH 65 81
ENDBRANCH 64 67
ENDBRANCH 51 64
ENDBRANCH 50 54
ENDBRANCH 34 50
ENDBRANCH 33 36
ENDBRANCH 20 33
ENDBRANCH 19 23
ENDBRANCH 1 19
TORSDOF 19
ENDMDL
MODEL 98
REMARK VINA RESULT:      -4.2     24.793     31.115
ROOT
ATOM      1  C1  NAG B   1     -10.608   8.899   5.6210  0.00  0.00     0.000 C
ATOM      2  C2  NAG B   1      -9.881   7.603   5.9680  0.00  0.00     0.000 C
ATOM      3  C3  NAG B   1      -9.281   7.648   7.3580  0.00  0.00     0.000 C
ATOM      4  C4  NAG B   1      -8.349   8.856   7.3610  0.00  0.00     0.000 C
ATOM      5  C5  NAG B   1      -9.175  10.129   7.1370  0.00  0.00     0.000 C
ATOM      6  O5  NAG B   1      -9.848  10.094   5.8600  0.00  0.00     0.000 O
ATOM      7   O  NAG B   1      -8.557   6.438   7.6800  0.00  0.00     0.000 O
ATOM      9  HD  NAG B   1      -9.209   6.142   7.1920  0.00  0.00     0.000 HD
ATOM      9   O  NAG B   1      -7.664   8.940   8.5990  0.00  0.00     0.000 O
ATOM     11  HD  NAG B   1      -8.316   8.644   8.1120  0.00  0.00     0.000 HD
ATOM     11   C  NAG B   1      -8.278  11.366   7.2730  0.00  0.00     0.000 C
ATOM     12   O  NAG B   1      -8.761  12.446   6.4760  0.00  0.00     0.000 O
ATOM     14  HD  NAG B   1      -9.413  12.150   5.9890  0.00  0.00     0.000 HD
ENDROOT
BRANCH 2 16
ATOM     14   N  NAG B   1      -9.693   6.477   5.0360  0.00  0.00     0.000 N
ATOM     16  HD  NAG B   1      -9.465   5.642   5.0010  0.00  0.00     0.000 HD
ATOM     16   C  NAG B   1     -10.603   5.502   4.8680  0.00  0.00     0.000 C
ATOM     17   C  NAG B   1     -11.876   5.516   5.6720  0.00  0.00     0.000 C
ATOM     18   O  NAG B   1     -10.432   4.605   4.0440  0.00  0.00     0.000 OA
ENDBRANCH 2 16
BRANCH 1 19
ATOM     19  O4  BDP B   2     -10.768   8.813   4.2110  0.00  0.00     0.000 O
BRANCH 19 23
ATOM     20  C1  BDP B   2      -9.673  11.106   0.9720  0.00  0.00     0.000 C
ATOM     21  C2  BDP B   2      -8.549  10.622   1.8650  0.00  0.00     0.000 C
ATOM     22  C3  BDP B   2      -9.001   9.477   2.7430  0.00  0.00     0.000 C
ATOM     23  C4  BDP B   2     -10.256   9.912   3.4960  0.00  0.00     0.000 C
ATOM     24  C5  BDP B   2     -11.309  10.362   2.5020  0.00  0.00     0.000 C
ATOM     25  O5  BDP B   2     -10.813  11.450   1.7470  0.00  0.00     0.000 O
ATOM     26   O  BDP B   2      -7.445  10.216   1.0850  0.00  0.00     0.000 O
ATOM     28  HD  BDP B   2      -7.924  10.615   0.4840  0.00  0.00     0.000 HD
ATOM     28   O  BDP B   2      -7.935   9.116   3.6350  0.00  0.00     0.000 O
ATOM     30  HD  BDP B   2      -8.414   9.515   3.0340  0.00  0.00     0.000 HD
BRANCH 24 30
ATOM     30   C  BDP B   2     -12.558  10.811   3.1720  0.00  0.00     0.000 C
ATOM     31   O  BDP B   2     -12.456  11.720   4.0280  0.00  0.00     0.000 OA
ATOM     32   O  BDP B   2     -13.646  10.253   2.8530  0.00  0.00     0.000 OA
ENDBRANCH 24 30
BRANCH 20 33
ATOM     33  O3  NAG B   3      -9.155  12.267   0.3710  0.00  0.00     0.000 O
BRANCH 33 36
ATOM     34  C1  NAG B   3      -9.720  12.789  -3.3110  0.00  0.00     0.000 C
ATOM     35  C2  NAG B   3      -9.084  12.238  -2.0490  0.00  0.00     0.000 C
ATOM     36  C3  NAG B   3      -9.890  12.629  -0.8000  0.00  0.00     0.000 C
ATOM     37  C4  NAG B   3     -10.113  14.140  -0.7960  0.00  0.00     0.000 C
ATOM     38  C5  NAG B   3     -10.673  14.596  -2.1410  0.00  0.00     0.000 C
ATOM     39  O5  NAG B   3      -9.801  14.202  -3.1870  0.00  0.00     0.000 O
ATOM     40   O  NAG B   3     -11.029  14.498   0.2500  0.00  0.00     0.000 O
ATOM     42  HD  NAG B   3     -11.444  14.873  -0.4120  0.00  0.00     0.000 HD
ATOM     42   C  NAG B   3     -10.806  16.111  -2.2720  0.00  0.00     0.000 C
ATOM     43   O  NAG B   3      -9.504  16.709  -2.2520  0.00  0.00     0.000 O
ATOM     45  HD  NAG B   3      -9.919  17.084  -2.9130  0.00  0.00     0.000 HD
BRANCH 35 47
ATOM     45   N  NAG B   3      -8.960  10.786  -2.0870  0.00  0.00     0.000 N
ATOM     47  HD  NAG B   3      -9.499  11.091  -2.6920  0.00  0.00     0.000 HD
ATOM     47   C  NAG B   3      -7.821  10.158  -1.8680  0.00  0.00     0.000 C
ATOM     48   C  NAG B   3      -7.863   8.662  -1.9660  0.00  0.00     0.000 C
ATOM     49   O  NAG B   3      -6.780  10.764  -1.6250  0.00  0.00     0.000 OA
ENDBRANCH 35 47
BRANCH 34 50
ATOM     50  O4  BDP B   4      -8.805  12.437  -4.3270  0.00  0.00     0.000 O
BRANCH 50 54
ATOM     51  C1  BDP B   4      -8.443  11.474  -8.2640  0.00  0.00     0.000 C
ATOM     52  C2  BDP B   4      -8.614  12.964  -7.9910  0.00  0.00     0.000 C
ATOM     53  C3  BDP B   4      -8.360  13.217  -6.5370  0.00  0.00     0.000 C
ATOM     54  C4  BDP B   4      -9.287  12.312  -5.6760  0.00  0.00     0.000 C
ATOM     55  C5  BDP B   4      -9.238  10.853  -6.1110  0.00  0.00     0.000 C
ATOM     56  O5  BDP B   4      -9.407  10.749  -7.5220  0.00  0.00     0.000 O
ATOM     57   O  BDP B   4      -7.699  13.712  -8.7630  0.00  0.00     0.000 O
ATOM     59  HD  BDP B   4      -8.174  14.037  -9.4100  0.00  0.00     0.000 HD
ATOM     59   O  BDP B   4      -8.719  14.591  -6.2810  0.00  0.00     0.000 O
ATOM     61  HD  BDP B   4      -9.194  14.916  -6.9280  0.00  0.00     0.000 HD
BRANCH 55 61
ATOM     61   C  BDP B   4     -10.350  10.086  -5.4170  0.00  0.00     0.000 C
ATOM     62   O  BDP B   4     -11.538  10.343  -5.7450  0.00  0.00     0.000 OA
ATOM     63   O  BDP B   4     -10.030   9.223  -4.5440  0.00  0.00     0.000 OA
ENDBRANCH 55 61
BRANCH 51 64
ATOM     64  O3  NAG B   5      -8.630  11.274  -9.6780  0.00  0.00     0.000 O
BRANCH 64 67
ATOM     65  C1  NAG B   5      -6.214   9.178 -11.5120  0.00  0.00     0.000 C
ATOM     66  C2  NAG B   5      -6.768  10.394 -10.7890  0.00  0.00     0.000 C
ATOM     67  C3  NAG B   5      -8.096  10.045 -10.1300  0.00  0.00     0.000 C
ATOM     68  C4  NAG B   5      -9.061   9.408 -11.1380  0.00  0.00     0.000 C
ATOM     69  C5  NAG B   5      -8.388   8.261 -11.8750  0.00  0.00     0.000 C
ATOM     70  O5  NAG B   5      -7.153   8.709 -12.4520  0.00  0.00     0.000 O
ATOM     71   O  NAG B   5     -10.210   8.967 -10.4460  0.00  0.00     0.000 O
ATOM     73  HD  NAG B   5     -10.608   9.304 -11.1380  0.00  0.00     0.000 HD
ATOM     73   C  NAG B   5      -9.238   7.644 -12.9950  0.00  0.00     0.000 C
ATOM     74   O  NAG B   5      -9.468   8.628 -14.0250  0.00  0.00     0.000 O
ATOM     76  HD  NAG B   5      -9.866   8.965 -14.7170  0.00  0.00     0.000 HD
BRANCH 66 78
ATOM     76   N  NAG B   5      -5.806  10.836  -9.7610  0.00  0.00     0.000 N
ATOM     78  HD  NAG B   5      -6.094  11.119 -10.5270  0.00  0.00     0.000 HD
ATOM     78   C  NAG B   5      -5.216  12.040  -9.6970  0.00  0.00     0.000 C
ATOM     79   C  NAG B   5      -4.296  12.195  -8.5160  0.00  0.00     0.000 C
ATOM     80   O  NAG B   5      -5.409  12.964 -10.5650  0.00  0.00     0.000 OA
ENDBRANCH 66 78
BRANCH 65 81
ATOM     81  O4  BDP B   6      -4.987   9.514 -12.1730  0.00  0.00     0.000 O
BRANCH 81 85
ATOM     82  C1  BDP B   6      -2.371   6.264 -11.1950  0.00  0.00     0.000 C
ATOM     83  C2  BDP B   6      -1.975   7.658 -10.7140  0.00  0.00     0.000 C
ATOM     84  C3  BDP B   6      -3.139   8.652 -10.7490  0.00  0.00     0.000 C
ATOM     85  C4  BDP B   6      -3.835   8.671 -12.1120  0.00  0.00     0.000 C
ATOM     86  C5  BDP B   6      -4.152   7.208 -12.5040  0.00  0.00     0.000 C
ATOM     87  O5  BDP B   6      -2.955   6.366 -12.4850  0.00  0.00     0.000 O
ATOM     88   O  BDP B   6      -1.535   7.486  -9.3700  0.00  0.00     0.000 O
ATOM     90  HD  BDP B   6      -1.597   7.865  -8.5940  0.00  0.00     0.000 HD
ATOM     90   O  BDP B   6      -2.667   9.955 -10.3970  0.00  0.00     0.000 O
ATOM     92  HD  BDP B   6      -2.729  10.335  -9.6210  0.00  0.00     0.000 HD
BRANCH 86 92
ATOM     92   C  BDP B   6      -4.622   7.133 -13.9360  0.00  0.00     0.000 C
ATOM     93   O  BDP B   6      -3.993   7.770 -14.8340  0.00  0.00     0.000 OA
ATOM     94   O  BDP B   6      -5.633   6.404 -14.1840  0.00  0.00     0.000 OA
ENDBRANCH 86 92
BRANCH 82 95
ATOM     95  O3  NAG B   7      -1.175   5.468 -11.3120  0.00  0.00     0.000 O
BRANCH 95 98
ATOM     96  C1  NAG B   7      -0.589   1.953 -10.5110  0.00  0.00     0.000 C
ATOM     97  C2  NAG B   7      -0.411   3.460 -10.3810  0.00  0.00     0.000 C
ATOM     98  C3  NAG B   7      -1.294   4.056 -11.4750  0.00  0.00     0.000 C
ATOM     99  C4  NAG B   7      -0.835   3.555 -12.8420  0.00  0.00     0.000 C
ATOM    100  C5  NAG B   7      -0.783   2.027 -12.8750  0.00  0.00     0.000 C
ATOM    101  O5  NAG B   7      -0.021   1.569 -11.7680  0.00  0.00     0.000 O
BRANCH 97 104
ATOM    102   N  NAG B   7      -0.735   4.430  -9.3250  0.00  0.00     0.000 N
ATOM    104  HD  NAG B   7      -0.774   5.155  -8.8540  0.00  0.00     0.000 HD
ATOM    104   O  NAG B   7      -0.766   5.294  -7.2320  0.00  0.00     0.000 OA
ATOM    105   C  NAG B   7      -0.483   4.357  -8.0050  0.00  0.00     0.000 C
ATOM    106   C  NAG B   7       0.165   3.131  -7.4570  0.00  0.00     0.000 C
ENDBRANCH 97 104
ATOM    107   O  NAG B   7      -0.455   0.175 -14.2770  0.00  0.00     0.000 O
ATOM    109  HD  NAG B   7      -0.915   0.488 -13.6130  0.00  0.00     0.000 HD
ATOM    109   O  NAG B   7      -0.455   0.175 -14.2770  0.00  0.00     0.000 O
ATOM    111  HD  NAG B   7      -0.915   0.488 -13.6130  0.00  0.00     0.000 HD
ENDBRANCH 95 98
ENDBRANCH 82 95
ENDBRANCH 81 85
ENDBRANCH 65 81
ENDBRANCH 64 67
ENDBRANCH 51 64
ENDBRANCH 50 54
ENDBRANCH 34 50
ENDBRANCH 33 36
ENDBRANCH 20 33
ENDBRANCH 19 23
ENDBRANCH 1 19
TORSDOF 19
ENDMDL
MODEL 99
REMARK VINA RESULT:      -3.9      8.168     12.936
ROOT
ATOM      1  C1  NAG B   1       9.879   3.852  18.9020  0.00  0.00     0.000 C
ATOM      2  C2  NAG B   1      11.058   4.453  19.6620  0.00  0.00     0.000 C
ATOM      3  C3  NAG B   1      11.351   5.872  19.2170  0.00  0.00     0.000 C
ATOM      4  C4  NAG B   1      11.610   5.784  17.7170  0.00  0.00     0.000 C
ATOM      5  C5  NAG B   1      10.336   5.298  17.0140  0.00  0.00     0.000 C
ATOM      6  O5  NAG B   1       9.957   3.983  17.4740  0.00  0.00     0.000 O
ATOM      7   O  NAG B   1      12.492   6.434  19.9050  0.00  0.00     0.000 O
ATOM      9  HD  NAG B   1      12.132   5.937  20.5160  0.00  0.00     0.000 HD
ATOM      9   O  NAG B   1      11.982   7.055  17.2110  0.00  0.00     0.000 O
ATOM     11  HD  NAG B   1      11.622   6.558  17.8220  0.00  0.00     0.000 HD
ATOM     11   C  NAG B   1      10.530   5.333  15.4930  0.00  0.00     0.000 C
ATOM     12   O  NAG B   1       9.732   4.344  14.8460  0.00  0.00     0.000 O
ATOM     14  HD  NAG B   1       9.372   3.847  15.4570  0.00  0.00     0.000 HD
ENDROOT
BRANCH 2 16
ATOM     14   N  NAG B   1      11.818   3.631  20.6200  0.00  0.00     0.000 N
ATOM     16  HD  NAG B   1      12.452   3.667  21.2080  0.00  0.00     0.000 HD
ATOM     16   C  NAG B   1      11.560   3.612  21.9390  0.00  0.00     0.000 C
ATOM     17   C  NAG B   1      10.468   4.480  22.5030  0.00  0.00     0.000 C
ATOM     18   O  NAG B   1      12.185   2.874  22.7010  0.00  0.00     0.000 OA
ENDBRANCH 2 16
BRANCH 1 19
ATOM     19  O4  BDP B   2       9.993   2.462  19.1750  0.00  0.00     0.000 O
BRANCH 19 23
ATOM     20  C1  BDP B   2      10.096  -0.990  16.9350  0.00  0.00     0.000 C
ATOM     21  C2  BDP B   2      11.220  -0.003  16.7020  0.00  0.00     0.000 C
ATOM     22  C3  BDP B   2      11.321   0.992  17.8360  0.00  0.00     0.000 C
ATOM     23  C4  BDP B   2       9.952   1.637  18.0350  0.00  0.00     0.000 C
ATOM     24  C5  BDP B   2       8.915   0.556  18.2710  0.00  0.00     0.000 C
ATOM     25  O5  BDP B   2       8.869  -0.309  17.1520  0.00  0.00     0.000 O
ATOM     26   O  BDP B   2      12.448  -0.684  16.5560  0.00  0.00     0.000 O
ATOM     28  HD  BDP B   2      11.893  -1.347  16.5100  0.00  0.00     0.000 HD
ATOM     28   O  BDP B   2      12.334   1.962  17.5270  0.00  0.00     0.000 O
ATOM     30  HD  BDP B   2      11.780   1.298  17.4800  0.00  0.00     0.000 HD
BRANCH 24 30
ATOM     30   C  BDP B   2       7.552   1.118  18.4620  0.00  0.00     0.000 C
ATOM     31   O  BDP B   2       7.352   1.802  19.4920  0.00  0.00     0.000 OA
ATOM     32   O  BDP B   2       6.672   0.870  17.5890  0.00  0.00     0.000 OA
ENDBRANCH 24 30
BRANCH 20 33
ATOM     33  O3  NAG B   3      10.019  -1.710  15.7290  0.00  0.00     0.000 O
BRANCH 33 36
ATOM     34  C1  NAG B   3      10.591  -5.303  14.7720  0.00  0.00     0.000 C
ATOM     35  C2  NAG B   3      10.655  -3.791  14.6670  0.00  0.00     0.000 C
ATOM     36  C3  NAG B   3      10.130  -3.119  15.9450  0.00  0.00     0.000 C
ATOM     37  C4  NAG B   3       8.749  -3.678  16.2800  0.00  0.00     0.000 C
ATOM     38  C5  NAG B   3       8.781  -5.204  16.2740  0.00  0.00     0.000 C
ATOM     39  O5  NAG B   3       9.243  -5.674  15.0190  0.00  0.00     0.000 O
ATOM     40   O  NAG B   3       8.331  -3.213  17.5720  0.00  0.00     0.000 O
ATOM     42  HD  NAG B   3       8.233  -4.063  17.7090  0.00  0.00     0.000 HD
ATOM     42   C  NAG B   3       7.412  -5.851  16.4710  0.00  0.00     0.000 C
ATOM     43   O  NAG B   3       6.574  -5.547  15.3500  0.00  0.00     0.000 O
ATOM     45  HD  NAG B   3       6.476  -6.397  15.4860  0.00  0.00     0.000 HD
BRANCH 35 47
ATOM     45   N  NAG B   3      11.975  -3.198  14.4880  0.00  0.00     0.000 N
ATOM     47  HD  NAG B   3      12.007  -3.972  14.8750  0.00  0.00     0.000 HD
ATOM     47   C  NAG B   3      12.311  -2.508  13.4170  0.00  0.00     0.000 C
ATOM     48   C  NAG B   3      13.716  -1.983  13.3830  0.00  0.00     0.000 C
ATOM     49   O  NAG B   3      11.529  -2.327  12.4860  0.00  0.00     0.000 OA
ENDBRANCH 35 47
BRANCH 34 50
ATOM     50  O4  BDP B   4      10.997  -5.744  13.4930  0.00  0.00     0.000 O
BRANCH 50 54
ATOM     51  C1  BDP B   4      12.529  -9.052  11.6890  0.00  0.00     0.000 C
ATOM     52  C2  BDP B   4      11.775  -9.331  12.9830  0.00  0.00     0.000 C
ATOM     53  C3  BDP B   4      10.962  -8.123  13.3340  0.00  0.00     0.000 C
ATOM     54  C4  BDP B   4      11.884  -6.871  13.4030  0.00  0.00     0.000 C
ATOM     55  C5  BDP B   4      12.770  -6.737  12.1720  0.00  0.00     0.000 C
ATOM     56  O5  BDP B   4      13.423  -7.972  11.8910  0.00  0.00     0.000 O
ATOM     57   O  BDP B   4      10.917 -10.441  12.8220  0.00  0.00     0.000 O
ATOM     59  HD  BDP B   4      11.326 -11.092  13.2200  0.00  0.00     0.000 HD
ATOM     59   O  BDP B   4      10.421  -8.349  14.6520  0.00  0.00     0.000 O
ATOM     61  HD  BDP B   4      10.830  -9.001  15.0510  0.00  0.00     0.000 HD
BRANCH 55 61
ATOM     61   C  BDP B   4      13.816  -5.666  12.4230  0.00  0.00     0.000 C
ATOM     62   O  BDP B   4      14.194  -5.475  13.6090  0.00  0.00     0.000 OA
ATOM     63   O  BDP B   4      14.262  -5.016  11.4280  0.00  0.00     0.000 OA
ENDBRANCH 55 61
BRANCH 51 64
ATOM     64  O3  NAG B   5      13.248 -10.253  11.3460  0.00  0.00     0.000 O
BRANCH 64 67
ATOM     65  C1  NAG B   5      13.120 -11.768   7.9870  0.00  0.00     0.000 C
ATOM     66  C2  NAG B   5      12.699 -11.451   9.4120  0.00  0.00     0.000 C
ATOM     67  C3  NAG B   5      13.561 -10.325   9.9690  0.00  0.00     0.000 C
ATOM     68  C4  NAG B   5      15.054 -10.640   9.8000  0.00  0.00     0.000 C
ATOM     69  C5  NAG B   5      15.360 -11.035   8.3640  0.00  0.00     0.000 C
ATOM     70  O5  NAG B   5      14.489 -12.099   7.9530  0.00  0.00     0.000 O
ATOM     71   O  NAG B   5      15.800  -9.507  10.1890  0.00  0.00     0.000 O
ATOM     73  HD  NAG B   5      16.296 -10.111  10.5620  0.00  0.00     0.000 HD
ATOM     73   C  NAG B   5      16.808 -11.490   8.1290  0.00  0.00     0.000 C
ATOM     74   O  NAG B   5      17.064 -12.695   8.8800  0.00  0.00     0.000 O
ATOM     76  HD  NAG B   5      17.559 -13.299   9.2530  0.00  0.00     0.000 HD
BRANCH 66 78
ATOM     76   N  NAG B   5      11.289 -11.018   9.4580  0.00  0.00     0.000 N
ATOM     78  HD  NAG B   5      11.746 -11.722   9.6700  0.00  0.00     0.000 HD
ATOM     78   C  NAG B   5      10.291 -11.647  10.0990  0.00  0.00     0.000 C
ATOM     79   C  NAG B   5       8.964 -10.948   9.9760  0.00  0.00     0.000 C
ATOM     80   O  NAG B   5      10.451 -12.743  10.7460  0.00  0.00     0.000 OA
ENDBRANCH 66 78
BRANCH 65 81
ATOM     81  O4  BDP B   6      12.342 -12.858   7.4750  0.00  0.00     0.000 O
BRANCH 81 85
ATOM     82  C1  BDP B   6      10.057 -13.547   3.9150  0.00  0.00     0.000 C
ATOM     83  C2  BDP B   6      11.305 -14.400   4.1290  0.00  0.00     0.000 C
ATOM     84  C3  BDP B   6      11.804 -14.372   5.5760  0.00  0.00     0.000 C
ATOM     85  C4  BDP B   6      11.967 -12.943   6.0980  0.00  0.00     0.000 C
ATOM     86  C5  BDP B   6      10.659 -12.173   5.7940  0.00  0.00     0.000 C
ATOM     87  O5  BDP B   6      10.313 -12.226   4.3730  0.00  0.00     0.000 O
ATOM     88   O  BDP B   6      10.921 -15.727   3.7820  0.00  0.00     0.000 O
ATOM     90  HD  BDP B   6      11.019 -16.543   4.0550  0.00  0.00     0.000 HD
ATOM     90   O  BDP B   6      13.033 -15.097   5.6730  0.00  0.00     0.000 O
ATOM     92  HD  BDP B   6      13.131 -15.913   5.9470  0.00  0.00     0.000 HD
BRANCH 86 92
ATOM     92   C  BDP B   6      10.837 -10.699   6.0660  0.00  0.00     0.000 C
ATOM     93   O  BDP B   6      11.714 -10.047   5.4230  0.00  0.00     0.000 OA
ATOM     94   O  BDP B   6      10.070 -10.166   6.9270  0.00  0.00     0.000 OA
ENDBRANCH 86 92
BRANCH 82 95
ATOM     95  O3  NAG B   7       9.790 -13.481   2.5010  0.00  0.00     0.000 O
BRANCH 95 98
ATOM     96  C1  NAG B   7       6.710 -13.765   0.5580  0.00  0.00     0.000 C
ATOM     97  C2  NAG B   7       8.126 -14.128   0.9860  0.00  0.00     0.000 C
ATOM     98  C3  NAG B   7       8.488 -13.101   2.0570  0.00  0.00     0.000 C
ATOM     99  C4  NAG B   7       8.425 -11.694   1.4690  0.00  0.00     0.000 C
ATOM    100  C5  NAG B   7       7.065 -11.433   0.8200  0.00  0.00     0.000 C
ATOM    101  O5  NAG B   7       6.778 -12.488  -0.0860  0.00  0.00     0.000 O
BRANCH 97 104
ATOM    102   N  NAG B   7       8.845 -15.390   1.2020  0.00  0.00     0.000 N
ATOM    104  HD  NAG B   7       9.251 -16.143   1.0670  0.00  0.00     0.000 HD
ATOM    104   O  NAG B   7       9.162 -17.500   1.9620  0.00  0.00     0.000 OA
ATOM    105   C  NAG B   7       8.466 -16.467   1.9170  0.00  0.00     0.000 C
ATOM    106   C  NAG B   7       7.175 -16.425   2.6610  0.00  0.00     0.000 C
ENDBRANCH 97 104
ATOM    107   O  NAG B   7       5.731  -9.782  -0.1790  0.00  0.00     0.000 O
ATOM    109  HD  NAG B   7       5.732 -10.467   0.3510  0.00  0.00     0.000 HD
ATOM    109   O  NAG B   7       5.731  -9.782  -0.1790  0.00  0.00     0.000 O
ATOM    111  HD  NAG B   7       5.732 -10.467   0.3510  0.00  0.00     0.000 HD
ENDBRANCH 95 98
ENDBRANCH 82 95
ENDBRANCH 81 85
ENDBRANCH 65 81
ENDBRANCH 64 67
ENDBRANCH 51 64
ENDBRANCH 50 54
ENDBRANCH 34 50
ENDBRANCH 33 36
ENDBRANCH 20 33
ENDBRANCH 19 23
ENDBRANCH 1 19
TORSDOF 19
ENDMDL
MODEL 100
REMARK VINA RESULT:      -3.9      7.532     11.049
ROOT
ATOM      1  C1  NAG B   1       1.290 -17.437  19.3630  0.00  0.00     0.000 C
ATOM      2  C2  NAG B   1      -0.199 -17.464  19.0320  0.00  0.00     0.000 C
ATOM      3  C3  NAG B   1      -0.680 -18.863  18.7060  0.00  0.00     0.000 C
ATOM      4  C4  NAG B   1       0.184 -19.329  17.5380  0.00  0.00     0.000 C
ATOM      5  C5  NAG B   1       1.647 -19.401  17.9910  0.00  0.00     0.000 C
ATOM      6  O5  NAG B   1       2.128 -18.105  18.4060  0.00  0.00     0.000 O
ATOM      7   O  NAG B   1      -2.082 -18.890  18.3530  0.00  0.00     0.000 O
ATOM      9  HD  NAG B   1      -2.052 -18.267  18.9540  0.00  0.00     0.000 HD
ATOM      9   O  NAG B   1      -0.245 -20.605  17.0930  0.00  0.00     0.000 O
ATOM     11  HD  NAG B   1      -0.215 -19.982  17.6940  0.00  0.00     0.000 HD
ATOM     11   C  NAG B   1       2.513 -19.997  16.8740  0.00  0.00     0.000 C
ATOM     12   O  NAG B   1       3.851 -19.508  16.9390  0.00  0.00     0.000 O
ATOM     14  HD  NAG B   1       3.881 -18.885  17.5400  0.00  0.00     0.000 HD
ENDROOT
BRANCH 2 16
ATOM     14   N  NAG B   1      -1.215 -16.401  18.9370  0.00  0.00     0.000 N
ATOM     16  HD  NAG B   1      -2.058 -16.240  19.0530  0.00  0.00     0.000 HD
ATOM     16   C  NAG B   1      -1.665 -15.716  20.0030  0.00  0.00     0.000 C
ATOM     17   C  NAG B   1      -1.148 -16.044  21.3790  0.00  0.00     0.000 C
ATOM     18   O  NAG B   1      -2.478 -14.801  19.8770  0.00  0.00     0.000 OA
ENDBRANCH 2 16
BRANCH 1 19
ATOM     19  O4  BDP B   2       1.617 -16.057  19.2740  0.00  0.00     0.000 O
BRANCH 19 23
ATOM     20  C1  BDP B   2       3.918 -13.735  16.7730  0.00  0.00     0.000 C
ATOM     21  C2  BDP B   2       2.563 -14.158  16.2420  0.00  0.00     0.000 C
ATOM     22  C3  BDP B   2       1.659 -14.626  17.3600  0.00  0.00     0.000 C
ATOM     23  C4  BDP B   2       2.388 -15.710  18.1500  0.00  0.00     0.000 C
ATOM     24  C5  BDP B   2       3.718 -15.169  18.6370  0.00  0.00     0.000 C
ATOM     25  O5  BDP B   2       4.508 -14.784  17.5280  0.00  0.00     0.000 O
ATOM     26   O  BDP B   2       1.953 -13.089  15.5520  0.00  0.00     0.000 O
ATOM     28  HD  BDP B   2       2.756 -12.778  15.6450  0.00  0.00     0.000 HD
ATOM     28   O  BDP B   2       0.425 -15.104  16.8010  0.00  0.00     0.000 O
ATOM     30  HD  BDP B   2       1.228 -14.793  16.8940  0.00  0.00     0.000 HD
BRANCH 24 30
ATOM     30   C  BDP B   2       4.488 -16.181  19.4070  0.00  0.00     0.000 C
ATOM     31   O  BDP B   2       5.018 -17.114  18.7600  0.00  0.00     0.000 OA
ATOM     32   O  BDP B   2       4.560 -16.054  20.6630  0.00  0.00     0.000 OA
ENDBRANCH 24 30
BRANCH 20 33
ATOM     33  O3  NAG B   3       4.683 -13.513  15.6140  0.00  0.00     0.000 O
BRANCH 33 36
ATOM     34  C1  NAG B   3       8.002 -11.787  16.0090  0.00  0.00     0.000 C
ATOM     35  C2  NAG B   3       6.496 -11.935  15.9080  0.00  0.00     0.000 C
ATOM     36  C3  NAG B   3       6.078 -13.413  15.9110  0.00  0.00     0.000 C
ATOM     37  C4  NAG B   3       6.867 -14.164  14.8410  0.00  0.00     0.000 C
ATOM     38  C5  NAG B   3       8.359 -13.876  14.9840  0.00  0.00     0.000 C
ATOM     39  O5  NAG B   3       8.590 -12.480  14.9170  0.00  0.00     0.000 O
ATOM     40   O  NAG B   3       6.638 -15.577  14.9640  0.00  0.00     0.000 O
ATOM     42  HD  NAG B   3       7.504 -15.588  14.9960  0.00  0.00     0.000 HD
ATOM     42   C  NAG B   3       9.213 -14.483  13.8740  0.00  0.00     0.000 C
ATOM     43   O  NAG B   3       8.888 -13.861  12.6250  0.00  0.00     0.000 O
ATOM     45  HD  NAG B   3       9.753 -13.872  12.6570  0.00  0.00     0.000 HD
BRANCH 35 47
ATOM     45   N  NAG B   3       5.530 -10.852  15.7750  0.00  0.00     0.000 N
ATOM     47  HD  NAG B   3       5.520 -11.393  15.0990  0.00  0.00     0.000 HD
ATOM     47   C  NAG B   3       4.839 -10.378  16.7920  0.00  0.00     0.000 C
ATOM     48   C  NAG B   3       3.871  -9.276  16.4770  0.00  0.00     0.000 C
ATOM     49   O  NAG B   3       4.959 -10.830  17.9290  0.00  0.00     0.000 OA
ENDBRANCH 35 47
BRANCH 34 50
ATOM     50  O4  BDP B   4       8.211 -10.396  15.8790  0.00  0.00     0.000 O
BRANCH 50 54
ATOM     51  C1  BDP B   4      10.719  -7.331  16.8090  0.00  0.00     0.000 C
ATOM     52  C2  BDP B   4      11.388  -8.502  16.0980  0.00  0.00     0.000 C
ATOM     53  C3  BDP B   4      10.326  -9.365  15.4900  0.00  0.00     0.000 C
ATOM     54  C4  BDP B   4       9.308  -9.795  16.5860  0.00  0.00     0.000 C
ATOM     55  C5  BDP B   4       8.811  -8.615  17.4100  0.00  0.00     0.000 C
ATOM     56  O5  BDP B   4       9.907  -7.824  17.8600  0.00  0.00     0.000 O
ATOM     57   O  BDP B   4      12.247  -8.031  15.0810  0.00  0.00     0.000 O
ATOM     59  HD  BDP B   4      13.043  -8.110  15.4130  0.00  0.00     0.000 HD
ATOM     59   O  BDP B   4      10.979 -10.553  14.9990  0.00  0.00     0.000 O
ATOM     61  HD  BDP B   4      11.775 -10.632  15.3320  0.00  0.00     0.000 HD
BRANCH 55 61
ATOM     61   C  BDP B   4       8.043  -9.133  18.6130  0.00  0.00     0.000 C
ATOM     62   O  BDP B   4       6.935  -8.599  18.8810  0.00  0.00     0.000 OA
ATOM     63   O  BDP B   4       8.552 -10.079  19.2890  0.00  0.00     0.000 OA
ENDBRANCH 55 61
BRANCH 51 64
ATOM     64  O3  NAG B   5      11.767  -6.489  17.3260  0.00  0.00     0.000 O
BRANCH 64 67
ATOM     65  C1  NAG B   5      11.717  -2.806  17.4990  0.00  0.00     0.000 C
ATOM     66  C2  NAG B   5      11.988  -4.191  16.9370  0.00  0.00     0.000 C
ATOM     67  C3  NAG B   5      11.286  -5.242  17.7880  0.00  0.00     0.000 C
ATOM     68  C4  NAG B   5      11.640  -5.076  19.2720  0.00  0.00     0.000 C
ATOM     69  C5  NAG B   5      11.425  -3.638  19.7180  0.00  0.00     0.000 C
ATOM     70  O5  NAG B   5      12.131  -2.745  18.8450  0.00  0.00     0.000 O
ATOM     71   O  NAG B   5      10.851  -5.969  20.0270  0.00  0.00     0.000 O
ATOM     73  HD  NAG B   5      11.600  -6.087  20.4460  0.00  0.00     0.000 HD
ATOM     73   C  NAG B   5      11.875  -3.349  21.1570  0.00  0.00     0.000 C
ATOM     74   O  NAG B   5      13.302  -3.533  21.2640  0.00  0.00     0.000 O
ATOM     76  HD  NAG B   5      14.051  -3.651  21.6820  0.00  0.00     0.000 HD
BRANCH 66 78
ATOM     76   N  NAG B   5      11.613  -3.989  15.5240  0.00  0.00     0.000 N
ATOM     78  HD  NAG B   5      12.275  -4.331  15.9650  0.00  0.00     0.000 HD
ATOM     78   C  NAG B   5      12.225  -4.533  14.4600  0.00  0.00     0.000 C
ATOM     79   C  NAG B   5      11.596  -4.151  13.1470  0.00  0.00     0.000 C
ATOM     80   O  NAG B   5      13.251  -5.297  14.5530  0.00  0.00     0.000 OA
ENDBRANCH 66 78
BRANCH 65 81
ATOM     81  O4  BDP B   6      12.414  -1.817  16.7290  0.00  0.00     0.000 O
BRANCH 81 85
ATOM     82  C1  BDP B   6      12.393   2.418  16.0810  0.00  0.00     0.000 C
ATOM     83  C2  BDP B   6      13.185   1.891  17.2740  0.00  0.00     0.000 C
ATOM     84  C3  BDP B   6      13.468   0.389  17.1840  0.00  0.00     0.000 C
ATOM     85  C4  BDP B   6      12.195  -0.417  16.9150  0.00  0.00     0.000 C
ATOM     86  C5  BDP B   6      11.467   0.231  15.7130  0.00  0.00     0.000 C
ATOM     87  O5  BDP B   6      11.205   1.654  15.9370  0.00  0.00     0.000 O
ATOM     88   O  BDP B   6      14.416   2.610  17.2600  0.00  0.00     0.000 O
ATOM     90  HD  BDP B   6      15.265   2.481  17.3750  0.00  0.00     0.000 HD
ATOM     90   O  BDP B   6      14.109  -0.051  18.3840  0.00  0.00     0.000 O
ATOM     92  HD  BDP B   6      14.957  -0.179  18.4990  0.00  0.00     0.000 HD
BRANCH 86 92
ATOM     92   C  BDP B   6      10.091  -0.366  15.5440  0.00  0.00     0.000 C
ATOM     93   O  BDP B   6       9.952  -1.434  14.8750  0.00  0.00     0.000 OA
ATOM     94   O  BDP B   6       9.120   0.229  16.1080  0.00  0.00     0.000 OA
ENDBRANCH 86 92
BRANCH 82 95
ATOM     95  O3  NAG B   7      12.012   3.781  16.3550  0.00  0.00     0.000 O
BRANCH 95 98
ATOM     96  C1  NAG B   7      12.192   6.951  14.5500  0.00  0.00     0.000 C
ATOM     97  C2  NAG B   7      12.361   6.012  15.7370  0.00  0.00     0.000 C
ATOM     98  C3  NAG B   7      11.795   4.675  15.2640  0.00  0.00     0.000 C
ATOM     99  C4  NAG B   7      10.325   4.838  14.8860  0.00  0.00     0.000 C
ATOM    100  C5  NAG B   7      10.145   5.964  13.8660  0.00  0.00     0.000 C
ATOM    101  O5  NAG B   7      10.785   7.133  14.3540  0.00  0.00     0.000 O
BRANCH 97 104
ATOM    102   N  NAG B   7      13.738   5.704  16.1470  0.00  0.00     0.000 N
ATOM    104  HD  NAG B   7      14.468   5.277  16.3340  0.00  0.00     0.000 HD
ATOM    104   O  NAG B   7      15.509   5.564  17.5530  0.00  0.00     0.000 OA
ATOM    105   C  NAG B   7      14.341   5.940  17.3280  0.00  0.00     0.000 C
ATOM    106   C  NAG B   7      13.588   6.656  18.3960  0.00  0.00     0.000 C
ENDBRANCH 97 104
ATOM    107   O  NAG B   7       8.585   7.013  12.4640  0.00  0.00     0.000 O
ATOM    109  HD  NAG B   7       9.404   6.742  12.5340  0.00  0.00     0.000 HD
ATOM    109   O  NAG B   7       8.585   7.013  12.4640  0.00  0.00     0.000 O
ATOM    111  HD  NAG B   7       9.404   6.742  12.5340  0.00  0.00     0.000 HD
ENDBRANCH 95 98
ENDBRANCH 82 95
ENDBRANCH 81 85
ENDBRANCH 65 81
ENDBRANCH 64 67
ENDBRANCH 51 64
ENDBRANCH 50 54
ENDBRANCH 34 50
ENDBRANCH 33 36
ENDBRANCH 20 33
ENDBRANCH 19 23
ENDBRANCH 1 19
TORSDOF 19
ENDMDL
