MODEL 1
REMARK VINA RESULT:      -7.9      0.000      0.000
ROOT
ATOM      1  C1  A00 X   1      37.052  31.934  51.2380  0.00  0.00     0.000 C
ATOM      2  C2  A00 X   1      36.447  33.345  51.4720  0.00  0.00     0.000 C
ATOM      3  C3  A00 X   1      37.080  34.180  52.6330  0.00  0.00     0.000 C
ATOM      4  C4  A00 X   1      37.959  33.381  53.6290  0.00  0.00     0.000 C
ATOM      5  C5  A00 X   1      37.621  31.890  53.6300  0.00  0.00     0.000 C
ATOM      6  O5  A00 X   1      37.922  31.445  52.2890  0.00  0.00     0.000 O
ATOM      7   O  A00 X   1      36.030  34.765  53.4000  0.00  0.00     0.000 O
ATOM      9  HD  A00 X   1      36.628  34.483  53.9590  0.00  0.00     0.000 HD
ATOM      9   O  A00 X   1      39.349  33.560  53.3580  0.00  0.00     0.000 O
ATOM     11  HD  A00 X   1      39.947  33.278  53.9180  0.00  0.00     0.000 HD
ENDROOT
BRANCH 2 11
ATOM     11   O  A00 X   1      36.571  34.084  50.2410  0.00  0.00     0.000 O
ATOM     12   O  A00 X   1      35.526  36.225  49.9350  0.00  0.00     0.000 OA
ATOM     13   O  A00 X   1      34.134  34.258  50.2710  0.00  0.00     0.000 OA
ATOM     14   O  A00 X   1      35.395  34.515  48.2700  0.00  0.00     0.000 OA
ATOM     15   S  A00 X   1      35.312  34.824  49.6720  0.00  0.00     0.000 S
ENDBRANCH 2 11
BRANCH 5 16
ATOM     16   C  A00 X   1      36.199  31.549  54.0850  0.00  0.00     0.000 C
ATOM     17   O  A00 X   1      35.565  32.388  54.6910  0.00  0.00     0.000 OA
ATOM     18   O  A00 X   1      35.681  30.473  53.8560  0.00  0.00     0.000 OA
ENDBRANCH 5 16
BRANCH 1 19
ATOM     19  O4  A00 X   2      36.054  30.949  50.8770  0.00  0.00     0.000 O
BRANCH 19 23
ATOM     20  C1  A00 X   2      36.796  27.129  49.0810  0.00  0.00     0.000 C
ATOM     21  C2  A00 X   2      36.166  27.144  50.4950  0.00  0.00     0.000 C
ATOM     22  C3  A00 X   2      35.570  28.530  50.8170  0.00  0.00     0.000 C
ATOM     23  C4  A00 X   2      36.632  29.636  50.6210  0.00  0.00     0.000 C
ATOM     24  C5  A00 X   2      37.196  29.503  49.1800  0.00  0.00     0.000 C
ATOM     25  O5  A00 X   2      37.790  28.187  49.0310  0.00  0.00     0.000 O
ATOM     26   O  A00 X   2      34.939  28.473  52.1070  0.00  0.00     0.000 O
ATOM     28  HD  A00 X   2      35.632  28.118  52.4860  0.00  0.00     0.000 HD
BRANCH 21 30
ATOM     28   N  A00 X   2      36.745  25.799  50.5810  0.00  0.00     0.000 N
ATOM     30  HD  A00 X   2      36.308  25.932  51.3170  0.00  0.00     0.000 HD
ATOM     30   O  A00 X   2      35.660  24.650  52.3010  0.00  0.00     0.000 OA
ATOM     31   S  A00 X   2      36.954  25.154  52.0090  0.00  0.00     0.000 S
ATOM     32   O  A00 X   2      37.955  24.157  51.7870  0.00  0.00     0.000 OA
ATOM     33   O  A00 X   2      37.460  26.183  52.8680  0.00  0.00     0.000 OA
ENDBRANCH 21 30
BRANCH 24 34
ATOM     34   C  A00 X   2      38.110  30.634  48.6510  0.00  0.00     0.000 C
ATOM     35   O  A00 X   2      38.106  31.819  45.2090  0.00  0.00     0.000 OA
ATOM     36   O  A00 X   2      38.147  30.645  47.2100  0.00  0.00     0.000 O
ATOM     37   O  A00 X   2      36.184  31.752  46.5860  0.00  0.00     0.000 OA
ATOM     38   S  A00 X   2      37.600  31.955  46.5350  0.00  0.00     0.000 S
ATOM     39   O  A00 X   2      38.139  33.051  47.2820  0.00  0.00     0.000 OA
ENDBRANCH 24 34
BRANCH 20 40
ATOM     40  O4  A00 X   3      35.725  27.434  48.1760  0.00  0.00     0.000 O
BRANCH 40 44
ATOM     41  C1  A00 X   3      33.283  27.981  45.5560  0.00  0.00     0.000 C
ATOM     42  C2  A00 X   3      33.164  26.908  46.6600  0.00  0.00     0.000 C
ATOM     43  C3  A00 X   3      34.458  26.060  46.7510  0.00  0.00     0.000 C
ATOM     44  C4  A00 X   3      35.743  26.873  46.8450  0.00  0.00     0.000 C
ATOM     45  C5  A00 X   3      35.792  27.925  45.7020  0.00  0.00     0.000 C
ATOM     46  O5  A00 X   3      34.548  28.695  45.6460  0.00  0.00     0.000 O
ATOM     47   O  A00 X   3      34.430  24.979  47.6810  0.00  0.00     0.000 O
ATOM     49  HD  A00 X   3      35.246  25.230  47.8270  0.00  0.00     0.000 HD
BRANCH 42 49
ATOM     49   O  A00 X   3      32.899  27.603  47.8980  0.00  0.00     0.000 O
ATOM     50   O  A00 X   3      32.694  27.009  50.2080  0.00  0.00     0.000 OA
ATOM     51   O  A00 X   3      31.717  25.603  48.5780  0.00  0.00     0.000 OA
ATOM     52   O  A00 X   3      30.789  27.750  48.9170  0.00  0.00     0.000 OA
ATOM     53   S  A00 X   3      31.973  26.965  48.9750  0.00  0.00     0.000 S
ENDBRANCH 42 49
BRANCH 45 54
ATOM     54   C  A00 X   3      36.167  27.286  44.3590  0.00  0.00     0.000 C
ATOM     55   O  A00 X   3      36.123  27.933  43.3320  0.00  0.00     0.000 OA
ATOM     56   O  A00 X   3      36.516  26.117  44.2980  0.00  0.00     0.000 OA
ENDBRANCH 45 54
BRANCH 41 57
ATOM     57  O4  A00 X   4      33.010  27.434  44.2470  0.00  0.00     0.000 O
BRANCH 57 61
ATOM     58  C1  A00 X   4      30.843  29.504  41.1390  0.00  0.00     0.000 C
ATOM     59  C2  A00 X   4      32.106  28.696  40.7500  0.00  0.00     0.000 C
ATOM     60  C3  A00 X   4      32.577  27.724  41.8510  0.00  0.00     0.000 C
ATOM     61  C4  A00 X   4      32.641  28.411  43.2330  0.00  0.00     0.000 C
ATOM     62  C5  A00 X   4      31.221  28.963  43.5110  0.00  0.00     0.000 C
ATOM     63  O5  A00 X   4      30.893  29.961  42.5100  0.00  0.00     0.000 O
BRANCH 59 66
ATOM     64   N  A00 X   4      32.434  27.911  39.5460  0.00  0.00     0.000 N
ATOM     66  HD  A00 X   4      33.233  27.582  39.4890  0.00  0.00     0.000 HD
ATOM     66   O  A00 X   4      32.363  29.974  38.3050  0.00  0.00     0.000 OA
ATOM     67   S  A00 X   4      32.162  28.571  38.1150  0.00  0.00     0.000 S
ATOM     68   O  A00 X   4      33.161  27.906  37.3300  0.00  0.00     0.000 OA
ATOM     69   O  A00 X   4      30.823  28.113  37.8750  0.00  0.00     0.000 OA
ENDBRANCH 59 66
BRANCH 62 70
ATOM     70   C  A00 X   4      31.054  29.598  44.9120  0.00  0.00     0.000 C
ATOM     71   O  A00 X   4      31.516  33.050  45.9000  0.00  0.00     0.000 OA
ATOM     72   O  A00 X   4      32.335  31.059  46.8530  0.00  0.00     0.000 OA
ATOM     73   O  A00 X   4      31.095  31.030  44.7930  0.00  0.00     0.000 O
ATOM     74   O  A00 X   4      33.337  31.912  44.8020  0.00  0.00     0.000 OA
ATOM     75   S  A00 X   4      32.175  31.804  45.6250  0.00  0.00     0.000 S
ENDBRANCH 62 70
ENDBRANCH 57 61
ENDBRANCH 41 57
ENDBRANCH 40 44
ENDBRANCH 20 40
ENDBRANCH 19 23
ENDBRANCH 1 19
TORSDOF 14
ENDMDL
MODEL 2
REMARK VINA RESULT:      -7.7     35.876     40.227
ROOT
ATOM      1  C1  A00 X   1       6.975  34.662  21.3130  0.00  0.00     0.000 C
ATOM      2  C2  A00 X   1       8.018  35.705  20.8320  0.00  0.00     0.000 C
ATOM      3  C3  A00 X   1       9.508  35.230  20.8170  0.00  0.00     0.000 C
ATOM      4  C4  A00 X   1       9.805  33.934  21.6150  0.00  0.00     0.000 C
ATOM      5  C5  A00 X   1       8.752  33.664  22.6890  0.00  0.00     0.000 C
ATOM      6  O5  A00 X   1       7.519  33.483  21.9570  0.00  0.00     0.000 O
ATOM      7   O  A00 X   1      10.320  36.253  21.3890  0.00  0.00     0.000 O
ATOM      9  HD  A00 X   1      10.614  35.495  21.6900  0.00  0.00     0.000 HD
ATOM      9   O  A00 X   1       9.915  32.803  20.7520  0.00  0.00     0.000 O
ATOM     11  HD  A00 X   1      10.208  32.046  21.0530  0.00  0.00     0.000 HD
ENDROOT
BRANCH 2 11
ATOM     11   O  A00 X   1       7.644  36.119  19.5040  0.00  0.00     0.000 O
ATOM     12   O  A00 X   1       9.056  37.530  18.1680  0.00  0.00     0.000 OA
ATOM     13   O  A00 X   1       8.119  38.400  20.2370  0.00  0.00     0.000 OA
ATOM     14   O  A00 X   1       6.710  37.938  18.3770  0.00  0.00     0.000 OA
ATOM     15   S  A00 X   1       7.927  37.596  19.0620  0.00  0.00     0.000 S
ENDBRANCH 2 11
BRANCH 5 16
ATOM     16   C  A00 X   1       8.661  34.726  23.7890  0.00  0.00     0.000 C
ATOM     17   O  A00 X   1       7.709  34.704  24.5420  0.00  0.00     0.000 OA
ATOM     18   O  A00 X   1       9.509  35.583  23.9390  0.00  0.00     0.000 OA
ENDBRANCH 5 16
BRANCH 1 19
ATOM     19  O4  A00 X   2       5.913  35.252  22.1020  0.00  0.00     0.000 O
BRANCH 19 23
ATOM     20  C1  A00 X   2       3.641  38.830  21.4680  0.00  0.00     0.000 C
ATOM     21  C2  A00 X   2       3.843  37.888  20.2570  0.00  0.00     0.000 C
ATOM     22  C3  A00 X   2       4.281  36.483  20.7210  0.00  0.00     0.000 C
ATOM     23  C4  A00 X   2       5.531  36.574  21.6250  0.00  0.00     0.000 C
ATOM     24  C5  A00 X   2       5.208  37.557  22.7840  0.00  0.00     0.000 C
ATOM     25  O5  A00 X   2       4.884  38.854  22.2190  0.00  0.00     0.000 O
ATOM     26   O  A00 X   2       4.388  35.630  19.5680  0.00  0.00     0.000 O
ATOM     28  HD  A00 X   2       4.878  36.196  19.1320  0.00  0.00     0.000 HD
BRANCH 21 30
ATOM     28   N  A00 X   2       3.703  37.081  19.0410  0.00  0.00     0.000 N
ATOM     30  HD  A00 X   2       3.286  37.826  18.8970  0.00  0.00     0.000 HD
ATOM     30   O  A00 X   2       3.012  38.489  17.3090  0.00  0.00     0.000 OA
ATOM     31   S  A00 X   2       2.506  37.393  18.0570  0.00  0.00     0.000 S
ATOM     32   O  A00 X   2       2.349  36.179  17.3180  0.00  0.00     0.000 OA
ATOM     33   O  A00 X   2       1.348  37.638  18.8640  0.00  0.00     0.000 OA
ENDBRANCH 21 30
BRANCH 24 34
ATOM     34   C  A00 X   2       6.211  37.650  23.9570  0.00  0.00     0.000 C
ATOM     35   O  A00 X   2       9.440  39.320  23.7550  0.00  0.00     0.000 OA
ATOM     36   O  A00 X   2       7.520  38.042  23.4970  0.00  0.00     0.000 O
ATOM     37   O  A00 X   2       7.378  40.364  23.2530  0.00  0.00     0.000 OA
ATOM     38   S  A00 X   2       8.053  39.405  24.0730  0.00  0.00     0.000 S
ATOM     39   O  A00 X   2       7.750  39.399  25.4730  0.00  0.00     0.000 OA
ENDBRANCH 24 34
BRANCH 20 40
ATOM     40  O4  A00 X   3       2.612  38.224  22.2630  0.00  0.00     0.000 O
BRANCH 40 44
ATOM     41  C1  A00 X   3       2.156  37.946  25.8460  0.00  0.00     0.000 C
ATOM     42  C2  A00 X   3       1.351  37.155  24.7930  0.00  0.00     0.000 C
ATOM     43  C3  A00 X   3       0.768  38.103  23.7140  0.00  0.00     0.000 C
ATOM     44  C4  A00 X   3       1.780  39.060  23.0970  0.00  0.00     0.000 C
ATOM     45  C5  A00 X   3       2.544  39.820  24.2170  0.00  0.00     0.000 C
ATOM     46  O5  A00 X   3       3.068  38.889  25.2180  0.00  0.00     0.000 O
ATOM     47   O  A00 X   3      -0.069  37.491  22.7340  0.00  0.00     0.000 O
ATOM     49  HD  A00 X   3       0.338  38.042  22.2050  0.00  0.00     0.000 HD
BRANCH 42 49
ATOM     49   O  A00 X   3       2.252  36.185  24.2130  0.00  0.00     0.000 O
ATOM     50   O  A00 X   3       2.095  34.422  22.6020  0.00  0.00     0.000 OA
ATOM     51   O  A00 X   3       0.353  34.685  24.1780  0.00  0.00     0.000 OA
ATOM     52   O  A00 X   3       2.469  33.965  24.9460  0.00  0.00     0.000 OA
ATOM     53   S  A00 X   3       1.778  34.724  23.9620  0.00  0.00     0.000 S
ENDBRANCH 42 49
BRANCH 45 54
ATOM     54   C  A00 X   3       1.692  40.942  24.8240  0.00  0.00     0.000 C
ATOM     55   O  A00 X   3       0.718  41.366  24.2370  0.00  0.00     0.000 OA
ATOM     56   O  A00 X   3       1.979  41.428  25.9070  0.00  0.00     0.000 OA
ENDBRANCH 45 54
BRANCH 41 57
ATOM     57  O4  A00 X   4       1.293  38.539  26.8430  0.00  0.00     0.000 O
BRANCH 57 61
ATOM     58  C1  A00 X   4       1.988  38.649  31.1020  0.00  0.00     0.000 C
ATOM     59  C2  A00 X   4       1.611  39.966  30.3780  0.00  0.00     0.000 C
ATOM     60  C3  A00 X   4       1.043  39.747  28.9610  0.00  0.00     0.000 C
ATOM     61  C4  A00 X   4       1.916  38.776  28.1370  0.00  0.00     0.000 C
ATOM     62  C5  A00 X   4       1.985  37.458  28.9480  0.00  0.00     0.000 C
ATOM     63  O5  A00 X   4       2.642  37.711  30.2160  0.00  0.00     0.000 O
BRANCH 59 66
ATOM     64   N  A00 X   4       3.058  40.157  30.5850  0.00  0.00     0.000 N
ATOM     66  HD  A00 X   4       3.515  39.478  30.8690  0.00  0.00     0.000 HD
ATOM     66   O  A00 X   4       2.504  41.554  32.4660  0.00  0.00     0.000 OA
ATOM     67   S  A00 X   4       3.539  41.381  31.4940  0.00  0.00     0.000 S
ATOM     68   O  A00 X   4       4.776  40.860  31.9970  0.00  0.00     0.000 OA
ATOM     69   O  A00 X   4       3.692  42.397  30.4910  0.00  0.00     0.000 OA
ENDBRANCH 59 66
BRANCH 62 70
ATOM     70   C  A00 X   4       2.733  36.311  28.2270  0.00  0.00     0.000 C
ATOM     71   O  A00 X   4       6.263  35.511  28.3100  0.00  0.00     0.000 OA
ATOM     72   O  A00 X   4       4.786  35.748  26.4920  0.00  0.00     0.000 OA
ATOM     73   O  A00 X   4       4.073  36.223  28.7390  0.00  0.00     0.000 O
ATOM     74   O  A00 X   4       5.600  37.733  27.6480  0.00  0.00     0.000 OA
ATOM     75   S  A00 X   4       5.257  36.349  27.7200  0.00  0.00     0.000 S
ENDBRANCH 62 70
ENDBRANCH 57 61
ENDBRANCH 41 57
ENDBRANCH 40 44
ENDBRANCH 20 40
ENDBRANCH 19 23
ENDBRANCH 1 19
TORSDOF 14
ENDMDL
MODEL 3
REMARK VINA RESULT:      -7.5     27.145     31.330
ROOT
ATOM      1  C1  A00 X   1      18.314  55.963  43.9140  0.00  0.00     0.000 C
ATOM      2  C2  A00 X   1      18.826  57.064  44.8810  0.00  0.00     0.000 C
ATOM      3  C3  A00 X   1      20.374  57.291  44.9070  0.00  0.00     0.000 C
ATOM      4  C4  A00 X   1      21.225  56.167  44.2610  0.00  0.00     0.000 C
ATOM      5  C5  A00 X   1      20.479  54.834  44.2120  0.00  0.00     0.000 C
ATOM      6  O5  A00 X   1      19.332  55.086  43.3700  0.00  0.00     0.000 O
ATOM      7   O  A00 X   1      20.798  57.391  46.2640  0.00  0.00     0.000 O
ATOM      9  HD  A00 X   1      21.387  56.912  45.8470  0.00  0.00     0.000 HD
ATOM      9   O  A00 X   1      21.656  56.527  42.9490  0.00  0.00     0.000 O
ATOM     11  HD  A00 X   1      22.245  56.048  42.5320  0.00  0.00     0.000 HD
ENDROOT
BRANCH 2 11
ATOM     11   O  A00 X   1      18.177  58.300  44.5210  0.00  0.00     0.000 O
ATOM     12   O  A00 X   1      18.823  60.402  45.4860  0.00  0.00     0.000 OA
ATOM     13   O  A00 X   1      17.881  58.674  46.9160  0.00  0.00     0.000 OA
ATOM     14   O  A00 X   1      16.528  59.762  45.2910  0.00  0.00     0.000 OA
ATOM     15   S  A00 X   1      17.857  59.344  45.6450  0.00  0.00     0.000 S
ENDBRANCH 2 11
BRANCH 5 16
ATOM     16   C  A00 X   1      20.118  54.243  45.5790  0.00  0.00     0.000 C
ATOM     17   O  A00 X   1      19.588  53.152  45.6190  0.00  0.00     0.000 OA
ATOM     18   O  A00 X   1      20.348  54.823  46.6210  0.00  0.00     0.000 OA
ENDBRANCH 5 16
BRANCH 1 19
ATOM     19  O4  A00 X   2      17.204  55.209  44.4600  0.00  0.00     0.000 O
BRANCH 19 23
ATOM     20  C1  A00 X   2      15.121  54.831  40.7340  0.00  0.00     0.000 C
ATOM     21  C2  A00 X   2      14.836  56.090  41.5880  0.00  0.00     0.000 C
ATOM     22  C3  A00 X   2      15.941  56.301  42.6430  0.00  0.00     0.000 C
ATOM     23  C4  A00 X   2      16.126  55.026  43.4980  0.00  0.00     0.000 C
ATOM     24  C5  A00 X   2      16.386  53.840  42.5300  0.00  0.00     0.000 C
ATOM     25  O5  A00 X   2      15.246  53.704  41.6410  0.00  0.00     0.000 O
ATOM     26   O  A00 X   2      15.668  57.516  43.3620  0.00  0.00     0.000 O
ATOM     28  HD  A00 X   2      14.846  57.294  43.5240  0.00  0.00     0.000 HD
BRANCH 21 30
ATOM     28   N  A00 X   2      13.446  56.050  41.1220  0.00  0.00     0.000 N
ATOM     30  HD  A00 X   2      13.575  56.838  41.4580  0.00  0.00     0.000 HD
ATOM     30   O  A00 X   2      12.655  58.245  41.0030  0.00  0.00     0.000 OA
ATOM     31   S  A00 X   2      12.406  57.063  41.7490  0.00  0.00     0.000 S
ATOM     32   O  A00 X   2      11.140  56.446  41.5000  0.00  0.00     0.000 OA
ATOM     33   O  A00 X   2      12.665  57.118  43.1570  0.00  0.00     0.000 OA
ENDBRANCH 21 30
BRANCH 24 34
ATOM     34   C  A00 X   2      16.832  52.490  43.1400  0.00  0.00     0.000 C
ATOM     35   O  A00 X   2      19.039  50.125  41.4680  0.00  0.00     0.000 OA
ATOM     36   O  A00 X   2      17.396  51.624  42.1350  0.00  0.00     0.000 O
ATOM     37   O  A00 X   2      19.591  52.388  41.8740  0.00  0.00     0.000 OA
ATOM     38   S  A00 X   2      18.903  51.231  42.3580  0.00  0.00     0.000 S
ATOM     39   O  A00 X   2      19.037  50.912  43.7470  0.00  0.00     0.000 OA
ENDBRANCH 24 34
BRANCH 20 40
ATOM     40  O4  A00 X   3      16.382  55.074  40.0940  0.00  0.00     0.000 O
BRANCH 40 44
ATOM     41  C1  A00 X   3      19.591  54.967  38.4160  0.00  0.00     0.000 C
ATOM     42  C2  A00 X   3      18.543  56.087  38.2400  0.00  0.00     0.000 C
ATOM     43  C3  A00 X   3      17.148  55.495  37.9130  0.00  0.00     0.000 C
ATOM     44  C4  A00 X   3      16.690  54.392  38.8590  0.00  0.00     0.000 C
ATOM     45  C5  A00 X   3      17.793  53.303  38.9810  0.00  0.00     0.000 C
ATOM     46  O5  A00 X   3      19.094  53.907  39.2790  0.00  0.00     0.000 O
ATOM     47   O  A00 X   3      16.116  56.442  37.6430  0.00  0.00     0.000 O
ATOM     49  HD  A00 X   3      15.637  55.879  38.0940  0.00  0.00     0.000 HD
BRANCH 42 49
ATOM     49   O  A00 X   3      18.520  56.843  39.4700  0.00  0.00     0.000 O
ATOM     50   O  A00 X   3      17.302  58.715  40.3310  0.00  0.00     0.000 OA
ATOM     51   O  A00 X   3      18.043  58.770  38.0870  0.00  0.00     0.000 OA
ATOM     52   O  A00 X   3      19.658  58.869  39.8090  0.00  0.00     0.000 OA
ATOM     53   S  A00 X   3      18.370  58.392  39.4390  0.00  0.00     0.000 S
ENDBRANCH 42 49
BRANCH 45 54
ATOM     54   C  A00 X   3      17.822  52.385  37.7520  0.00  0.00     0.000 C
ATOM     55   O  A00 X   3      18.536  51.403  37.7310  0.00  0.00     0.000 OA
ATOM     56   O  A00 X   3      17.130  52.626  36.7750  0.00  0.00     0.000 OA
ENDBRANCH 45 54
BRANCH 41 57
ATOM     57  O4  A00 X   4      20.094  54.501  37.1440  0.00  0.00     0.000 O
BRANCH 57 61
ATOM     58  C1  A00 X   4      23.547  52.124  36.1130  0.00  0.00     0.000 C
ATOM     59  C2  A00 X   4      22.162  51.433  36.1690  0.00  0.00     0.000 C
ATOM     60  C3  A00 X   4      20.981  52.425  36.1880  0.00  0.00     0.000 C
ATOM     61  C4  A00 X   4      21.193  53.549  37.2250  0.00  0.00     0.000 C
ATOM     62  C5  A00 X   4      22.528  54.240  36.8520  0.00  0.00     0.000 C
ATOM     63  O5  A00 X   4      23.611  53.282  36.9760  0.00  0.00     0.000 O
BRANCH 59 66
ATOM     64   N  A00 X   4      21.663  50.475  37.1720  0.00  0.00     0.000 N
ATOM     66  HD  A00 X   4      21.851  50.630  38.0030  0.00  0.00     0.000 HD
ATOM     66   O  A00 X   4      23.258  48.892  36.3060  0.00  0.00     0.000 OA
ATOM     67   S  A00 X   4      21.990  48.923  36.9640  0.00  0.00     0.000 S
ATOM     68   O  A00 X   4      21.990  48.474  38.3260  0.00  0.00     0.000 OA
ATOM     69   O  A00 X   4      20.836  48.519  36.2120  0.00  0.00     0.000 OA
ENDBRANCH 59 66
BRANCH 62 70
ATOM     70   C  A00 X   4      22.864  55.477  37.7190  0.00  0.00     0.000 C
ATOM     71   O  A00 X   4      24.111  55.587  41.1160  0.00  0.00     0.000 OA
ATOM     72   O  A00 X   4      22.320  56.730  40.1010  0.00  0.00     0.000 OA
ATOM     73   O  A00 X   4      23.559  55.053  38.9020  0.00  0.00     0.000 O
ATOM     74   O  A00 X   4      22.074  54.374  40.6750  0.00  0.00     0.000 OA
ATOM     75   S  A00 X   4      22.944  55.439  40.2920  0.00  0.00     0.000 S
ENDBRANCH 62 70
ENDBRANCH 57 61
ENDBRANCH 41 57
ENDBRANCH 40 44
ENDBRANCH 20 40
ENDBRANCH 19 23
ENDBRANCH 1 19
TORSDOF 14
ENDMDL
MODEL 4
REMARK VINA RESULT:      -7.5     34.909     39.802
ROOT
ATOM      1  C1  A00 X   1      11.278  35.792  21.6660  0.00  0.00     0.000 C
ATOM      2  C2  A00 X   1      10.282  36.039  22.8310  0.00  0.00     0.000 C
ATOM      3  C3  A00 X   1       9.733  34.761  23.5480  0.00  0.00     0.000 C
ATOM      4  C4  A00 X   1       9.951  33.425  22.7920  0.00  0.00     0.000 C
ATOM      5  C5  A00 X   1      10.154  33.637  21.2920  0.00  0.00     0.000 C
ATOM      6  O5  A00 X   1      11.362  34.425  21.1930  0.00  0.00     0.000 O
ATOM      7   O  A00 X   1       8.325  34.904  23.7220  0.00  0.00     0.000 O
ATOM      9  HD  A00 X   1       8.471  34.085  23.4800  0.00  0.00     0.000 HD
ATOM      9   O  A00 X   1      11.053  32.695  23.3300  0.00  0.00     0.000 O
ATOM     11  HD  A00 X   1      11.199  31.876  23.0880  0.00  0.00     0.000 HD
ENDROOT
BRANCH 2 11
ATOM     11   O  A00 X   1      10.941  36.875  23.8010  0.00  0.00     0.000 O
ATOM     12   O  A00 X   1      10.006  37.275  25.9770  0.00  0.00     0.000 OA
ATOM     13   O  A00 X   1       8.816  38.063  24.0070  0.00  0.00     0.000 OA
ATOM     14   O  A00 X   1      10.884  39.053  24.6420  0.00  0.00     0.000 OA
ATOM     15   S  A00 X   1      10.079  37.861  24.6630  0.00  0.00     0.000 S
ENDBRANCH 2 11
BRANCH 5 16
ATOM     16   C  A00 X   1       8.959  34.252  20.5570  0.00  0.00     0.000 C
ATOM     17   O  A00 X   1       7.880  34.269  21.1130  0.00  0.00     0.000 OA
ATOM     18   O  A00 X   1       9.054  34.727  19.4420  0.00  0.00     0.000 OA
ENDBRANCH 5 16
BRANCH 1 19
ATOM     19  O4  A00 X   2      11.098  36.721  20.5690  0.00  0.00     0.000 O
BRANCH 19 23
ATOM     20  C1  A00 X   2      10.312  40.933  20.6140  0.00  0.00     0.000 C
ATOM     21  C2  A00 X   2      11.377  40.395  21.5990  0.00  0.00     0.000 C
ATOM     22  C3  A00 X   2      11.854  38.989  21.1790  0.00  0.00     0.000 C
ATOM     23  C4  A00 X   2      10.651  38.033  21.0140  0.00  0.00     0.000 C
ATOM     24  C5  A00 X   2       9.653  38.692  20.0230  0.00  0.00     0.000 C
ATOM     25  O5  A00 X   2       9.227  39.968  20.5670  0.00  0.00     0.000 O
ATOM     26   O  A00 X   2      12.888  38.563  22.0820  0.00  0.00     0.000 O
ATOM     28  HD  A00 X   2      12.420  38.750  22.7860  0.00  0.00     0.000 HD
BRANCH 21 30
ATOM     28   N  A00 X   2      12.629  41.153  21.6840  0.00  0.00     0.000 N
ATOM     30  HD  A00 X   2      12.144  41.394  22.3590  0.00  0.00     0.000 HD
ATOM     30   O  A00 X   2      12.799  42.038  23.8390  0.00  0.00     0.000 OA
ATOM     31   S  A00 X   2      12.644  42.503  22.5070  0.00  0.00     0.000 S
ATOM     32   O  A00 X   2      13.770  43.209  21.9780  0.00  0.00     0.000 OA
ATOM     33   O  A00 X   2      11.431  43.200  22.1990  0.00  0.00     0.000 OA
ENDBRANCH 21 30
BRANCH 24 34
ATOM     34   C  A00 X   2       8.470  37.838  19.5080  0.00  0.00     0.000 C
ATOM     35   O  A00 X   2       6.854  38.323  16.2820  0.00  0.00     0.000 OA
ATOM     36   O  A00 X   2       7.818  38.469  18.3880  0.00  0.00     0.000 O
ATOM     37   O  A00 X   2       9.173  37.946  16.5550  0.00  0.00     0.000 OA
ATOM     38   S  A00 X   2       7.859  37.656  17.0430  0.00  0.00     0.000 S
ATOM     39   O  A00 X   2       7.562  36.297  17.3820  0.00  0.00     0.000 OA
ENDBRANCH 24 34
BRANCH 20 40
ATOM     40  O4  A00 X   3      10.960  40.989  19.3350  0.00  0.00     0.000 O
BRANCH 40 44
ATOM     41  C1  A00 X   3      12.117  41.302  15.9160  0.00  0.00     0.000 C
ATOM     42  C2  A00 X   3      12.774  41.987  17.1340  0.00  0.00     0.000 C
ATOM     43  C3  A00 X   3      11.720  42.749  17.9770  0.00  0.00     0.000 C
ATOM     44  C4  A00 X   3      10.490  41.929  18.3450  0.00  0.00     0.000 C
ATOM     45  C5  A00 X   3       9.884  41.277  17.0700  0.00  0.00     0.000 C
ATOM     46  O5  A00 X   3      10.915  40.579  16.3000  0.00  0.00     0.000 O
ATOM     47   O  A00 X   3      12.227  43.495  19.0830  0.00  0.00     0.000 O
ATOM     49  HD  A00 X   3      11.509  43.199  19.4660  0.00  0.00     0.000 HD
BRANCH 42 49
ATOM     49   O  A00 X   3      13.419  40.951  17.9060  0.00  0.00     0.000 O
ATOM     50   O  A00 X   3      14.728  40.842  19.9070  0.00  0.00     0.000 OA
ATOM     51   O  A00 X   3      15.136  42.591  18.3700  0.00  0.00     0.000 OA
ATOM     52   O  A00 X   3      15.691  40.383  17.7370  0.00  0.00     0.000 OA
ATOM     53   S  A00 X   3      14.827  41.192  18.5250  0.00  0.00     0.000 S
ENDBRANCH 42 49
BRANCH 45 54
ATOM     54   C  A00 X   3       9.092  42.291  16.2360  0.00  0.00     0.000 C
ATOM     55   O  A00 X   3       8.366  41.919  15.3370  0.00  0.00     0.000 OA
ATOM     56   O  A00 X   3       9.178  43.488  16.4600  0.00  0.00     0.000 OA
ENDBRANCH 45 54
BRANCH 41 57
ATOM     57  O4  A00 X   4      11.921  42.228  14.8240  0.00  0.00     0.000 O
BRANCH 57 61
ATOM     58  C1  A00 X   4      11.764  41.748  10.5360  0.00  0.00     0.000 C
ATOM     59  C2  A00 X   4      10.606  41.173  11.3890  0.00  0.00     0.000 C
ATOM     60  C3  A00 X   4      10.584  41.707  12.8360  0.00  0.00     0.000 C
ATOM     61  C4  A00 X   4      11.979  41.636  13.4950  0.00  0.00     0.000 C
ATOM     62  C5  A00 X   4      12.932  42.452  12.5860  0.00  0.00     0.000 C
ATOM     63  O5  A00 X   4      13.001  41.822  11.2810  0.00  0.00     0.000 O
BRANCH 59 66
ATOM     64   N  A00 X   4       9.168  41.122  11.0720  0.00  0.00     0.000 N
ATOM     66  HD  A00 X   4       8.645  40.739  11.6470  0.00  0.00     0.000 HD
ATOM     66   O  A00 X   4       9.707  39.531   9.3470  0.00  0.00     0.000 OA
ATOM     67   S  A00 X   4       8.725  40.522   9.6570  0.00  0.00     0.000 S
ATOM     68   O  A00 X   4       7.423  40.019   9.9850  0.00  0.00     0.000 OA
ATOM     69   O  A00 X   4       8.711  41.721   8.8680  0.00  0.00     0.000 OA
ENDBRANCH 59 66
BRANCH 62 70
ATOM     70   C  A00 X   4      14.369  42.591  13.1420  0.00  0.00     0.000 C
ATOM     71   O  A00 X   4      16.960  40.072  13.3710  0.00  0.00     0.000 OA
ATOM     72   O  A00 X   4      16.144  41.585  14.9800  0.00  0.00     0.000 OA
ATOM     73   O  A00 X   4      15.123  41.414  12.8090  0.00  0.00     0.000 O
ATOM     74   O  A00 X   4      14.823  39.624  14.3930  0.00  0.00     0.000 OA
ATOM     75   S  A00 X   4      15.775  40.605  13.9830  0.00  0.00     0.000 S
ENDBRANCH 62 70
ENDBRANCH 57 61
ENDBRANCH 41 57
ENDBRANCH 40 44
ENDBRANCH 20 40
ENDBRANCH 19 23
ENDBRANCH 1 19
TORSDOF 14
ENDMDL
MODEL 5
REMARK VINA RESULT:      -7.4     33.803     38.008
ROOT
ATOM      1  C1  A00 X   1       9.558  36.055  22.5250  0.00  0.00     0.000 C
ATOM      2  C2  A00 X   1       8.545  34.942  22.9060  0.00  0.00     0.000 C
ATOM      3  C3  A00 X   1       8.878  33.504  22.3890  0.00  0.00     0.000 C
ATOM      4  C4  A00 X   1       9.952  33.425  21.2740  0.00  0.00     0.000 C
ATOM      5  C5  A00 X   1      10.092  34.744  20.5140  0.00  0.00     0.000 C
ATOM      6  O5  A00 X   1      10.527  35.697  21.5090  0.00  0.00     0.000 O
ATOM      7   O  A00 X   1       7.691  32.926  21.8500  0.00  0.00     0.000 O
ATOM      9  HD  A00 X   1       8.342  32.716  21.3180  0.00  0.00     0.000 HD
ATOM      9   O  A00 X   1      11.221  33.034  21.7990  0.00  0.00     0.000 O
ATOM     11  HD  A00 X   1      11.871  32.825  21.2670  0.00  0.00     0.000 HD
ENDROOT
BRANCH 2 11
ATOM     11   O  A00 X   1       8.445  34.914  24.3430  0.00  0.00     0.000 O
ATOM     12   O  A00 X   1       6.676  33.744  25.4700  0.00  0.00     0.000 OA
ATOM     13   O  A00 X   1       6.132  35.643  24.0510  0.00  0.00     0.000 OA
ATOM     14   O  A00 X   1       7.309  35.962  26.0930  0.00  0.00     0.000 OA
ATOM     15   S  A00 X   1       7.033  35.061  25.0070  0.00  0.00     0.000 S
ENDBRANCH 2 11
BRANCH 5 16
ATOM     16   C  A00 X   1       8.840  35.186  19.7480  0.00  0.00     0.000 C
ATOM     17   O  A00 X   1       8.819  36.297  19.2620  0.00  0.00     0.000 OA
ATOM     18   O  A00 X   1       7.875  34.462  19.6050  0.00  0.00     0.000 OA
ENDBRANCH 5 16
BRANCH 1 19
ATOM     19  O4  A00 X   2       8.917  37.318  22.2220  0.00  0.00     0.000 O
BRANCH 19 23
ATOM     20  C1  A00 X   2      10.320  41.340  22.6890  0.00  0.00     0.000 C
ATOM     21  C2  A00 X   2      10.631  40.626  21.3510  0.00  0.00     0.000 C
ATOM     22  C3  A00 X   2       9.719  39.396  21.1610  0.00  0.00     0.000 C
ATOM     23  C4  A00 X   2       9.816  38.453  22.3810  0.00  0.00     0.000 C
ATOM     24  C5  A00 X   2       9.503  39.289  23.6530  0.00  0.00     0.000 C
ATOM     25  O5  A00 X   2      10.471  40.365  23.7540  0.00  0.00     0.000 O
ATOM     26   O  A00 X   2       9.998  38.809  19.8780  0.00  0.00     0.000 O
ATOM     28  HD  A00 X   2      10.853  38.791  20.0160  0.00  0.00     0.000 HD
BRANCH 21 30
ATOM     28   N  A00 X   2      11.886  41.383  21.3070  0.00  0.00     0.000 N
ATOM     30  HD  A00 X   2      11.769  41.046  20.5180  0.00  0.00     0.000 HD
ATOM     30   O  A00 X   2      12.451  41.724  19.0660  0.00  0.00     0.000 OA
ATOM     31   S  A00 X   2      12.950  41.023  20.1950  0.00  0.00     0.000 S
ATOM     32   O  A00 X   2      14.178  41.528  20.7260  0.00  0.00     0.000 OA
ATOM     33   O  A00 X   2      12.999  39.594  20.1030  0.00  0.00     0.000 OA
ENDBRANCH 21 30
BRANCH 24 34
ATOM     34   C  A00 X   2       9.307  38.533  24.9880  0.00  0.00     0.000 C
ATOM     35   O  A00 X   2      11.922  36.623  26.6530  0.00  0.00     0.000 OA
ATOM     36   O  A00 X   2      10.377  37.595  25.2190  0.00  0.00     0.000 O
ATOM     37   O  A00 X   2      12.127  38.902  26.0560  0.00  0.00     0.000 OA
ATOM     38   S  A00 X   2      11.244  37.868  26.5020  0.00  0.00     0.000 S
ATOM     39   O  A00 X   2      10.324  38.189  27.5510  0.00  0.00     0.000 OA
ENDBRANCH 24 34
BRANCH 20 40
ATOM     40  O4  A00 X   3       8.947  41.747  22.6010  0.00  0.00     0.000 O
BRANCH 40 44
ATOM     41  C1  A00 X   3       6.610  41.948  25.3620  0.00  0.00     0.000 C
ATOM     42  C2  A00 X   3       6.211  41.934  23.8700  0.00  0.00     0.000 C
ATOM     43  C3  A00 X   3       7.012  42.994  23.0710  0.00  0.00     0.000 C
ATOM     44  C4  A00 X   3       8.519  42.943  23.2870  0.00  0.00     0.000 C
ATOM     45  C5  A00 X   3       8.840  42.966  24.8080  0.00  0.00     0.000 C
ATOM     46  O5  A00 X   3       8.055  41.958  25.5230  0.00  0.00     0.000 O
ATOM     47   O  A00 X   3       6.664  43.131  21.6950  0.00  0.00     0.000 O
ATOM     49  HD  A00 X   3       7.520  43.221  21.6040  0.00  0.00     0.000 HD
BRANCH 42 49
ATOM     49   O  A00 X   3       6.463  40.600  23.3780  0.00  0.00     0.000 O
ATOM     50   O  A00 X   3       6.227  39.450  21.2910  0.00  0.00     0.000 OA
ATOM     51   O  A00 X   3       4.511  40.922  21.9830  0.00  0.00     0.000 OA
ATOM     52   O  A00 X   3       4.834  38.918  23.1940  0.00  0.00     0.000 OA
ATOM     53   S  A00 X   3       5.459  39.919  22.4010  0.00  0.00     0.000 S
ENDBRANCH 42 49
BRANCH 45 54
ATOM     54   C  A00 X   3       8.695  44.374  25.3970  0.00  0.00     0.000 C
ATOM     55   O  A00 X   3       9.100  44.622  26.5150  0.00  0.00     0.000 OA
ATOM     56   O  A00 X   3       8.168  45.270  24.7550  0.00  0.00     0.000 OA
ENDBRANCH 45 54
BRANCH 41 57
ATOM     57  O4  A00 X   4       5.931  42.998  26.0860  0.00  0.00     0.000 O
BRANCH 57 61
ATOM     58  C1  A00 X   4       4.561  43.311  30.1680  0.00  0.00     0.000 C
ATOM     59  C2  A00 X   4       5.971  43.848  29.8160  0.00  0.00     0.000 C
ATOM     60  C3  A00 X   4       6.205  44.014  28.3010  0.00  0.00     0.000 C
ATOM     61  C4  A00 X   4       5.768  42.760  27.5130  0.00  0.00     0.000 C
ATOM     62  C5  A00 X   4       4.274  42.531  27.8510  0.00  0.00     0.000 C
ATOM     63  O5  A00 X   4       4.142  42.258  29.2700  0.00  0.00     0.000 O
BRANCH 59 66
ATOM     64   N  A00 X   4       7.410  43.826  30.1350  0.00  0.00     0.000 N
ATOM     66  HD  A00 X   4       7.842  43.092  29.9810  0.00  0.00     0.000 HD
ATOM     66   O  A00 X   4       6.792  43.881  32.4620  0.00  0.00     0.000 OA
ATOM     67   S  A00 X   4       7.867  44.268  31.6030  0.00  0.00     0.000 S
ATOM     68   O  A00 X   4       9.072  43.504  31.7390  0.00  0.00     0.000 OA
ATOM     69   O  A00 X   4       8.081  45.671  31.3890  0.00  0.00     0.000 OA
ENDBRANCH 59 66
BRANCH 62 70
ATOM     70   C  A00 X   4       3.619  41.370  27.0650  0.00  0.00     0.000 C
ATOM     71   O  A00 X   4       2.682  38.080  28.2500  0.00  0.00     0.000 OA
ATOM     72   O  A00 X   4       3.907  38.735  26.3480  0.00  0.00     0.000 OA
ATOM     73   O  A00 X   4       3.200  40.350  27.9850  0.00  0.00     0.000 O
ATOM     74   O  A00 X   4       4.963  38.805  28.5430  0.00  0.00     0.000 OA
ATOM     75   S  A00 X   4       3.762  38.900  27.7780  0.00  0.00     0.000 S
ENDBRANCH 62 70
ENDBRANCH 57 61
ENDBRANCH 41 57
ENDBRANCH 40 44
ENDBRANCH 20 40
ENDBRANCH 19 23
ENDBRANCH 1 19
TORSDOF 14
ENDMDL
MODEL 6
REMARK VINA RESULT:      -7.4      3.383      4.888
ROOT
ATOM      1  C1  A00 X   1      37.435  35.069  53.3980  0.00  0.00     0.000 C
ATOM      2  C2  A00 X   1      36.740  36.386  53.8350  0.00  0.00     0.000 C
ATOM      3  C3  A00 X   1      36.837  36.743  55.3550  0.00  0.00     0.000 C
ATOM      4  C4  A00 X   1      37.282  35.586  56.2860  0.00  0.00     0.000 C
ATOM      5  C5  A00 X   1      37.021  34.214  55.6670  0.00  0.00     0.000 C
ATOM      6  O5  A00 X   1      37.839  34.187  54.4750  0.00  0.00     0.000 O
ATOM      7   O  A00 X   1      35.552  37.159  55.8100  0.00  0.00     0.000 O
ATOM      9  HD  A00 X   1      35.891  36.655  56.4280  0.00  0.00     0.000 HD
ATOM      9   O  A00 X   1      38.660  35.702  56.6410  0.00  0.00     0.000 O
ATOM     11  HD  A00 X   1      38.999  35.198  57.2590  0.00  0.00     0.000 HD
ENDROOT
BRANCH 2 11
ATOM     11   O  A00 X   1      37.312  37.460  53.0630  0.00  0.00     0.000 O
ATOM     12   O  A00 X   1      37.221  39.743  53.8020  0.00  0.00     0.000 OA
ATOM     13   O  A00 X   1      35.150  38.576  53.2860  0.00  0.00     0.000 OA
ATOM     14   O  A00 X   1      36.686  39.129  51.5550  0.00  0.00     0.000 OA
ATOM     15   S  A00 X   1      36.527  38.812  52.9490  0.00  0.00     0.000 S
ENDBRANCH 2 11
BRANCH 5 16
ATOM     16   C  A00 X   1      35.546  33.890  55.4050  0.00  0.00     0.000 C
ATOM     17   O  A00 X   1      35.273  32.881  54.7880  0.00  0.00     0.000 OA
ATOM     18   O  A00 X   1      34.644  34.602  55.7970  0.00  0.00     0.000 OA
ENDBRANCH 5 16
BRANCH 1 19
ATOM     19  O4  A00 X   2      36.693  34.353  52.3810  0.00  0.00     0.000 O
BRANCH 19 23
ATOM     20  C1  A00 X   2      37.921  31.438  49.4890  0.00  0.00     0.000 C
ATOM     21  C2  A00 X   2      37.834  30.986  50.9670  0.00  0.00     0.000 C
ATOM     22  C3  A00 X   2      36.986  31.975  51.7950  0.00  0.00     0.000 C
ATOM     23  C4  A00 X   2      37.524  33.415  51.6390  0.00  0.00     0.000 C
ATOM     24  C5  A00 X   2      37.580  33.739  50.1210  0.00  0.00     0.000 C
ATOM     25  O5  A00 X   2      38.462  32.786  49.4720  0.00  0.00     0.000 O
ATOM     26   O  A00 X   2      36.879  31.476  53.1390  0.00  0.00     0.000 O
ATOM     28  HD  A00 X   2      37.732  31.352  53.2150  0.00  0.00     0.000 HD
BRANCH 21 30
ATOM     28   N  A00 X   2      38.983  30.108  50.7270  0.00  0.00     0.000 N
ATOM     30  HD  A00 X   2      38.618  29.847  51.4680  0.00  0.00     0.000 HD
ATOM     30   O  A00 X   2      38.761  28.229  52.0970  0.00  0.00     0.000 OA
ATOM     31   S  A00 X   2      39.625  29.347  51.9550  0.00  0.00     0.000 S
ATOM     32   O  A00 X   2      40.947  29.035  51.5060  0.00  0.00     0.000 OA
ATOM     33   O  A00 X   2      39.676  30.272  53.0470  0.00  0.00     0.000 OA
ENDBRANCH 21 30
BRANCH 24 34
ATOM     34   C  A00 X   2      37.867  35.200  49.7000  0.00  0.00     0.000 C
ATOM     35   O  A00 X   2      36.442  36.792  46.7520  0.00  0.00     0.000 OA
ATOM     36   O  A00 X   2      37.466  35.439  48.3370  0.00  0.00     0.000 O
ATOM     37   O  A00 X   2      35.155  35.783  48.4610  0.00  0.00     0.000 OA
ATOM     38   S  A00 X   2      36.340  36.522  48.1490  0.00  0.00     0.000 S
ATOM     39   O  A00 X   2      36.685  37.617  49.0050  0.00  0.00     0.000 OA
ENDBRANCH 24 34
BRANCH 20 40
ATOM     40  O4  A00 X   3      36.568  31.459  49.0090  0.00  0.00     0.000 O
BRANCH 40 44
ATOM     41  C1  A00 X   3      33.603  30.616  47.1070  0.00  0.00     0.000 C
ATOM     42  C2  A00 X   3      34.815  29.681  47.3070  0.00  0.00     0.000 C
ATOM     43  C3  A00 X   3      36.140  30.406  46.9540  0.00  0.00     0.000 C
ATOM     44  C4  A00 X   3      36.316  31.764  47.6210  0.00  0.00     0.000 C
ATOM     45  C5  A00 X   3      35.061  32.647  47.3710  0.00  0.00     0.000 C
ATOM     46  O5  A00 X   3      33.835  31.920  47.7080  0.00  0.00     0.000 O
ATOM     47   O  A00 X   3      37.321  29.610  47.0190  0.00  0.00     0.000 O
ATOM     49  HD  A00 X   3      37.657  30.337  47.3480  0.00  0.00     0.000 HD
BRANCH 42 49
ATOM     49   O  A00 X   3      34.798  29.256  48.6880  0.00  0.00     0.000 O
ATOM     50   O  A00 X   3      36.156  27.871  50.0910  0.00  0.00     0.000 OA
ATOM     51   O  A00 X   3      35.700  27.159  47.8830  0.00  0.00     0.000 OA
ATOM     52   O  A00 X   3      33.923  27.211  49.4400  0.00  0.00     0.000 OA
ATOM     53   S  A00 X   3      35.166  27.791  49.0640  0.00  0.00     0.000 S
ENDBRANCH 42 49
BRANCH 45 54
ATOM     54   C  A00 X   3      35.048  33.226  45.9510  0.00  0.00     0.000 C
ATOM     55   O  A00 X   3      35.684  32.698  45.0620  0.00  0.00     0.000 OA
ATOM     56   O  A00 X   3      34.400  34.228  45.6900  0.00  0.00     0.000 OA
ENDBRANCH 45 54
BRANCH 41 57
ATOM     57  O4  A00 X   4      33.195  30.673  45.7220  0.00  0.00     0.000 O
BRANCH 57 61
ATOM     58  C1  A00 X   4      29.475  31.827  43.8600  0.00  0.00     0.000 C
ATOM     59  C2  A00 X   4      30.637  32.851  43.8930  0.00  0.00     0.000 C
ATOM     60  C3  A00 X   4      32.000  32.223  44.2450  0.00  0.00     0.000 C
ATOM     61  C4  A00 X   4      31.905  31.304  45.4820  0.00  0.00     0.000 C
ATOM     62  C5  A00 X   4      30.838  30.232  45.1470  0.00  0.00     0.000 C
ATOM     63  O5  A00 X   4      29.556  30.881  44.9500  0.00  0.00     0.000 O
BRANCH 59 66
ATOM     64   N  A00 X   4      31.199  34.088  43.3200  0.00  0.00     0.000 N
ATOM     66  HD  A00 X   4      31.703  34.572  43.8320  0.00  0.00     0.000 HD
ATOM     66   O  A00 X   4      28.970  34.998  43.3520  0.00  0.00     0.000 OA
ATOM     67   S  A00 X   4      30.198  35.127  42.6310  0.00  0.00     0.000 S
ATOM     68   O  A00 X   4      30.911  36.353  42.8430  0.00  0.00     0.000 OA
ATOM     69   O  A00 X   4      30.233  34.653  41.2770  0.00  0.00     0.000 OA
ENDBRANCH 59 66
BRANCH 62 70
ATOM     70   C  A00 X   4      30.675  29.141  46.2330  0.00  0.00     0.000 C
ATOM     71   O  A00 X   4      27.726  27.224  47.0880  0.00  0.00     0.000 OA
ATOM     72   O  A00 X   4      29.228  28.419  48.4520  0.00  0.00     0.000 OA
ATOM     73   O  A00 X   4      29.413  28.479  46.0550  0.00  0.00     0.000 O
ATOM     74   O  A00 X   4      27.586  29.631  47.1220  0.00  0.00     0.000 OA
ATOM     75   S  A00 X   4      28.411  28.475  47.2610  0.00  0.00     0.000 S
ENDBRANCH 62 70
ENDBRANCH 57 61
ENDBRANCH 41 57
ENDBRANCH 40 44
ENDBRANCH 20 40
ENDBRANCH 19 23
ENDBRANCH 1 19
TORSDOF 14
ENDMDL
MODEL 7
REMARK VINA RESULT:      -7.3     32.946     39.343
ROOT
ATOM      1  C1  A00 X   1      10.007  37.649  24.3140  0.00  0.00     0.000 C
ATOM      2  C2  A00 X   1      11.255  38.500  23.9580  0.00  0.00     0.000 C
ATOM      3  C3  A00 X   1      12.332  38.646  25.0840  0.00  0.00     0.000 C
ATOM      4  C4  A00 X   1      11.868  38.246  26.5080  0.00  0.00     0.000 C
ATOM      5  C5  A00 X   1      10.348  38.308  26.6590  0.00  0.00     0.000 C
ATOM      6  O5  A00 X   1       9.846  37.331  25.7190  0.00  0.00     0.000 O
ATOM      7   O  A00 X   1      12.735  40.011  25.1570  0.00  0.00     0.000 O
ATOM      9  HD  A00 X   1      12.659  39.723  25.9700  0.00  0.00     0.000 HD
ATOM      9   O  A00 X   1      12.335  36.945  26.8640  0.00  0.00     0.000 O
ATOM     11  HD  A00 X   1      12.260  36.657  27.6770  0.00  0.00     0.000 HD
ENDROOT
BRANCH 2 11
ATOM     11   O  A00 X   1      11.869  37.913  22.7950  0.00  0.00     0.000 O
ATOM     12   O  A00 X   1      13.365  39.154  21.3850  0.00  0.00     0.000 OA
ATOM     13   O  A00 X   1      11.041  39.850  21.5590  0.00  0.00     0.000 OA
ATOM     14   O  A00 X   1      11.610  37.810  20.4760  0.00  0.00     0.000 OA
ATOM     15   S  A00 X   1      11.981  38.766  21.4840  0.00  0.00     0.000 S
ENDBRANCH 2 11
BRANCH 5 16
ATOM     16   C  A00 X   1       9.735  39.701  26.4810  0.00  0.00     0.000 C
ATOM     17   O  A00 X   1       8.537  39.791  26.3070  0.00  0.00     0.000 OA
ATOM     18   O  A00 X   1      10.403  40.716  26.5150  0.00  0.00     0.000 OA
ENDBRANCH 5 16
BRANCH 1 19
ATOM     19  O4  A00 X   2       8.784  38.182  23.7500  0.00  0.00     0.000 O
BRANCH 19 23
ATOM     20  C1  A00 X   2       5.488  35.947  22.1660  0.00  0.00     0.000 C
ATOM     21  C2  A00 X   2       5.243  36.763  23.4580  0.00  0.00     0.000 C
ATOM     22  C3  A00 X   2       6.345  37.825  23.6540  0.00  0.00     0.000 C
ATOM     23  C4  A00 X   2       7.744  37.171  23.6140  0.00  0.00     0.000 C
ATOM     24  C5  A00 X   2       7.857  36.372  22.2870  0.00  0.00     0.000 C
ATOM     25  O5  A00 X   2       6.815  35.363  22.2590  0.00  0.00     0.000 O
ATOM     26   O  A00 X   2       6.036  38.599  24.8260  0.00  0.00     0.000 O
ATOM     28  HD  A00 X   2       5.914  37.897  25.3190  0.00  0.00     0.000 HD
BRANCH 21 30
ATOM     28   N  A00 X   2       4.251  35.737  23.7920  0.00  0.00     0.000 N
ATOM     30  HD  A00 X   2       4.149  36.380  24.3630  0.00  0.00     0.000 HD
ATOM     30   O  A00 X   2       2.656  36.699  25.2020  0.00  0.00     0.000 OA
ATOM     31   S  A00 X   2       3.662  35.699  25.2590  0.00  0.00     0.000 S
ATOM     32   O  A00 X   2       3.177  34.361  25.3950  0.00  0.00     0.000 OA
ATOM     33   O  A00 X   2       4.754  35.927  26.1580  0.00  0.00     0.000 OA
ENDBRANCH 21 30
BRANCH 24 34
ATOM     34   C  A00 X   2       9.244  35.810  21.8940  0.00  0.00     0.000 C
ATOM     35   O  A00 X   2      10.587  32.653  23.1130  0.00  0.00     0.000 OA
ATOM     36   O  A00 X   2       9.650  34.751  22.7830  0.00  0.00     0.000 O
ATOM     37   O  A00 X   2       8.510  32.865  22.0010  0.00  0.00     0.000 OA
ATOM     38   S  A00 X   2       9.853  33.347  22.1060  0.00  0.00     0.000 S
ATOM     39   O  A00 X   2      10.570  33.585  20.8890  0.00  0.00     0.000 OA
ENDBRANCH 24 34
BRANCH 20 40
ATOM     40  O4  A00 X   3       5.458  36.900  21.0940  0.00  0.00     0.000 O
BRANCH 40 44
ATOM     41  C1  A00 X   3       6.560  38.908  18.2870  0.00  0.00     0.000 C
ATOM     42  C2  A00 X   3       5.091  38.760  18.7400  0.00  0.00     0.000 C
ATOM     43  C3  A00 X   3       4.707  37.266  18.8980  0.00  0.00     0.000 C
ATOM     44  C4  A00 X   3       5.678  36.448  19.7400  0.00  0.00     0.000 C
ATOM     45  C5  A00 X   3       7.130  36.645  19.2200  0.00  0.00     0.000 C
ATOM     46  O5  A00 X   3       7.445  38.068  19.0770  0.00  0.00     0.000 O
ATOM     47   O  A00 X   3       3.345  37.005  19.2300  0.00  0.00     0.000 O
ATOM     49  HD  A00 X   3       3.702  36.393  19.7290  0.00  0.00     0.000 HD
BRANCH 42 49
ATOM     49   O  A00 X   3       4.960  39.473  19.9890  0.00  0.00     0.000 O
ATOM     50   O  A00 X   3       3.199  39.936  21.5440  0.00  0.00     0.000 OA
ATOM     51   O  A00 X   3       2.741  40.069  19.2280  0.00  0.00     0.000 OA
ATOM     52   O  A00 X   3       4.181  41.680  20.1860  0.00  0.00     0.000 OA
ATOM     53   S  A00 X   3       3.700  40.344  20.2690  0.00  0.00     0.000 S
ENDBRANCH 42 49
BRANCH 45 54
ATOM     54   C  A00 X   3       7.390  35.838  17.9430  0.00  0.00     0.000 C
ATOM     55   O  A00 X   3       8.444  35.258  17.7810  0.00  0.00     0.000 OA
ATOM     56   O  A00 X   3       6.543  35.765  17.0660  0.00  0.00     0.000 OA
ENDBRANCH 45 54
BRANCH 41 57
ATOM     57  O4  A00 X   4       6.699  38.728  16.8590  0.00  0.00     0.000 O
BRANCH 57 61
ATOM     58  C1  A00 X   4       9.968  39.748  14.2310  0.00  0.00     0.000 C
ATOM     59  C2  A00 X   4      10.295  39.235  15.6560  0.00  0.00     0.000 C
ATOM     60  C3  A00 X   4       9.094  38.572  16.3610  0.00  0.00     0.000 C
ATOM     61  C4  A00 X   4       7.818  39.435  16.2530  0.00  0.00     0.000 C
ATOM     62  C5  A00 X   4       7.562  39.647  14.7400  0.00  0.00     0.000 C
ATOM     63  O5  A00 X   4       8.672  40.385  14.1680  0.00  0.00     0.000 O
BRANCH 59 66
ATOM     64   N  A00 X   4      10.952  39.671  16.9010  0.00  0.00     0.000 N
ATOM     66  HD  A00 X   4      10.666  40.401  17.2700  0.00  0.00     0.000 HD
ATOM     66   O  A00 X   4      12.894  40.192  15.5750  0.00  0.00     0.000 OA
ATOM     67   S  A00 X   4      12.546  39.809  16.9070  0.00  0.00     0.000 S
ATOM     68   O  A00 X   4      12.714  40.825  17.9050  0.00  0.00     0.000 OA
ATOM     69   O  A00 X   4      12.912  38.491  17.3430  0.00  0.00     0.000 OA
ENDBRANCH 59 66
BRANCH 62 70
ATOM     70   C  A00 X   4       6.251  40.405  14.4220  0.00  0.00     0.000 C
ATOM     71   O  A00 X   4       5.274  43.748  15.4100  0.00  0.00     0.000 OA
ATOM     72   O  A00 X   4       4.110  41.706  15.5480  0.00  0.00     0.000 OA
ATOM     73   O  A00 X   4       6.395  41.783  14.8010  0.00  0.00     0.000 O
ATOM     74   O  A00 X   4       5.906  42.177  17.1270  0.00  0.00     0.000 OA
ATOM     75   S  A00 X   4       5.363  42.375  15.8220  0.00  0.00     0.000 S
ENDBRANCH 62 70
ENDBRANCH 57 61
ENDBRANCH 41 57
ENDBRANCH 40 44
ENDBRANCH 20 40
ENDBRANCH 19 23
ENDBRANCH 1 19
TORSDOF 14
ENDMDL
MODEL 8
REMARK VINA RESULT:      -7.2     34.616     39.122
ROOT
ATOM      1  C1  A00 X   1       8.619  37.980  19.3070  0.00  0.00     0.000 C
ATOM      2  C2  A00 X   1       8.060  38.397  17.9210  0.00  0.00     0.000 C
ATOM      3  C3  A00 X   1       6.535  38.741  17.8700  0.00  0.00     0.000 C
ATOM      4  C4  A00 X   1       5.704  38.277  19.0950  0.00  0.00     0.000 C
ATOM      5  C5  A00 X   1       6.376  37.129  19.8470  0.00  0.00     0.000 C
ATOM      6  O5  A00 X   1       7.625  37.681  20.3190  0.00  0.00     0.000 O
ATOM      7   O  A00 X   1       5.961  38.108  16.7290  0.00  0.00     0.000 O
ATOM      9  HD  A00 X   1       5.399  38.015  17.3810  0.00  0.00     0.000 HD
ATOM      9   O  A00 X   1       5.450  39.358  19.9920  0.00  0.00     0.000 O
ATOM     11  HD  A00 X   1       4.888  39.266  20.6440  0.00  0.00     0.000 HD
ENDROOT
BRANCH 2 11
ATOM     11   O  A00 X   1       8.814  39.538  17.4700  0.00  0.00     0.000 O
ATOM     12   O  A00 X   1       8.161  40.809  15.5390  0.00  0.00     0.000 OA
ATOM     13   O  A00 X   1       8.818  38.483  15.2670  0.00  0.00     0.000 OA
ATOM     14   O  A00 X   1      10.425  40.124  15.8850  0.00  0.00     0.000 OA
ATOM     15   S  A00 X   1       9.041  39.737  15.9310  0.00  0.00     0.000 S
ENDBRANCH 2 11
BRANCH 5 16
ATOM     16   C  A00 X   1       6.542  35.836  19.0420  0.00  0.00     0.000 C
ATOM     17   O  A00 X   1       7.186  34.929  19.5260  0.00  0.00     0.000 OA
ATOM     18   O  A00 X   1       6.046  35.685  17.9430  0.00  0.00     0.000 OA
ENDBRANCH 5 16
BRANCH 1 19
ATOM     19  O4  A00 X   2       9.615  36.931  19.2190  0.00  0.00     0.000 O
BRANCH 19 23
ATOM     20  C1  A00 X   2      12.330  38.875  21.9050  0.00  0.00     0.000 C
ATOM     21  C2  A00 X   2      12.606  39.010  20.3880  0.00  0.00     0.000 C
ATOM     22  C3  A00 X   2      11.351  38.649  19.5670  0.00  0.00     0.000 C
ATOM     23  C4  A00 X   2      10.828  37.249  19.9590  0.00  0.00     0.000 C
ATOM     24  C5  A00 X   2      10.610  37.238  21.4970  0.00  0.00     0.000 C
ATOM     25  O5  A00 X   2      11.875  37.518  22.1510  0.00  0.00     0.000 O
ATOM     26   O  A00 X   2      11.636  38.856  18.1730  0.00  0.00     0.000 O
ATOM     28  HD  A00 X   2      12.371  38.399  18.2040  0.00  0.00     0.000 HD
BRANCH 21 30
ATOM     28   N  A00 X   2      12.827  39.983  19.3130  0.00  0.00     0.000 N
ATOM     30  HD  A00 X   2      13.567  39.932  19.7620  0.00  0.00     0.000 HD
ATOM     30   O  A00 X   2      15.130  40.312  19.0940  0.00  0.00     0.000 OA
ATOM     31   S  A00 X   2      13.981  41.050  19.4830  0.00  0.00     0.000 S
ATOM     32   O  A00 X   2      13.606  42.100  18.5860  0.00  0.00     0.000 OA
ATOM     33   O  A00 X   2      13.935  41.513  20.8380  0.00  0.00     0.000 OA
ENDBRANCH 21 30
BRANCH 24 34
ATOM     34   C  A00 X   2       9.873  36.027  22.1160  0.00  0.00     0.000 C
ATOM     35   O  A00 X   2      10.158  32.614  20.8800  0.00  0.00     0.000 OA
ATOM     36   O  A00 X   2       9.889  34.894  21.2250  0.00  0.00     0.000 O
ATOM     37   O  A00 X   2      12.003  33.941  21.5350  0.00  0.00     0.000 OA
ATOM     38   S  A00 X   2      10.630  33.619  21.7750  0.00  0.00     0.000 S
ATOM     39   O  A00 X   2      10.213  33.464  23.1360  0.00  0.00     0.000 OA
ENDBRANCH 24 34
BRANCH 20 40
ATOM     40  O4  A00 X   3      11.266  39.796  22.1890  0.00  0.00     0.000 O
BRANCH 40 44
ATOM     41  C1  A00 X   3       8.105  40.369  23.8620  0.00  0.00     0.000 C
ATOM     42  C2  A00 X   3       8.827  41.400  22.9690  0.00  0.00     0.000 C
ATOM     43  C3  A00 X   3      10.307  41.567  23.3990  0.00  0.00     0.000 C
ATOM     44  C4  A00 X   3      11.076  40.259  23.5430  0.00  0.00     0.000 C
ATOM     45  C5  A00 X   3      10.290  39.278  24.4570  0.00  0.00     0.000 C
ATOM     46  O5  A00 X   3       8.897  39.159  24.0210  0.00  0.00     0.000 O
ATOM     47   O  A00 X   3      11.052  42.561  22.6980  0.00  0.00     0.000 O
ATOM     49  HD  A00 X   3      11.680  41.968  22.7530  0.00  0.00     0.000 HD
BRANCH 42 49
ATOM     49   O  A00 X   3       8.723  40.928  21.6080  0.00  0.00     0.000 O
ATOM     50   O  A00 X   3       9.475  41.662  19.4570  0.00  0.00     0.000 OA
ATOM     51   O  A00 X   3       8.630  43.263  20.9780  0.00  0.00     0.000 OA
ATOM     52   O  A00 X   3       7.132  41.685  20.0550  0.00  0.00     0.000 OA
ATOM     53   S  A00 X   3       8.478  41.933  20.4440  0.00  0.00     0.000 S
ENDBRANCH 42 49
BRANCH 45 54
ATOM     54   C  A00 X   3      10.429  39.647  25.9390  0.00  0.00     0.000 C
ATOM     55   O  A00 X   3      10.959  40.688  26.2700  0.00  0.00     0.000 OA
ATOM     56   O  A00 X   3      10.011  38.902  26.8110  0.00  0.00     0.000 OA
ENDBRANCH 45 54
BRANCH 41 57
ATOM     57  O4  A00 X   4       7.670  40.954  25.1100  0.00  0.00     0.000 O
BRANCH 57 61
ATOM     58  C1  A00 X   4       4.261  40.246  27.6620  0.00  0.00     0.000 C
ATOM     59  C2  A00 X   4       5.276  39.096  27.4450  0.00  0.00     0.000 C
ATOM     60  C3  A00 X   4       6.610  39.562  26.8270  0.00  0.00     0.000 C
ATOM     61  C4  A00 X   4       6.386  40.476  25.6030  0.00  0.00     0.000 C
ATOM     62  C5  A00 X   4       5.526  41.665  26.0980  0.00  0.00     0.000 C
ATOM     63  O5  A00 X   4       4.239  41.168  26.5490  0.00  0.00     0.000 O
BRANCH 59 66
ATOM     64   N  A00 X   4       5.309  37.745  26.8560  0.00  0.00     0.000 N
ATOM     66  HD  A00 X   4       5.031  37.658  26.0410  0.00  0.00     0.000 HD
ATOM     66   O  A00 X   4       3.513  37.158  28.3490  0.00  0.00     0.000 OA
ATOM     67   S  A00 X   4       4.608  36.552  27.6570  0.00  0.00     0.000 S
ATOM     68   O  A00 X   4       4.248  35.688  26.5710  0.00  0.00     0.000 OA
ATOM     69   O  A00 X   4       5.717  36.084  28.4380  0.00  0.00     0.000 OA
ENDBRANCH 59 66
BRANCH 62 70
ATOM     70   C  A00 X   4       5.284  42.758  25.0300  0.00  0.00     0.000 C
ATOM     71   O  A00 X   4       3.264  42.581  22.0300  0.00  0.00     0.000 OA
ATOM     72   O  A00 X   4       5.477  43.321  22.3490  0.00  0.00     0.000 OA
ATOM     73   O  A00 X   4       4.226  42.339  24.1530  0.00  0.00     0.000 O
ATOM     74   O  A00 X   4       4.994  40.932  22.3540  0.00  0.00     0.000 OA
ATOM     75   S  A00 X   4       4.534  42.258  22.6180  0.00  0.00     0.000 S
ENDBRANCH 62 70
ENDBRANCH 57 61
ENDBRANCH 41 57
ENDBRANCH 40 44
ENDBRANCH 20 40
ENDBRANCH 19 23
ENDBRANCH 1 19
TORSDOF 14
ENDMDL
MODEL 9
REMARK VINA RESULT:      -7.2     31.955     36.391
ROOT
ATOM      1  C1  A00 X   1      18.013  54.433  41.9120  0.00  0.00     0.000 C
ATOM      2  C2  A00 X   1      18.493  53.615  43.1400  0.00  0.00     0.000 C
ATOM      3  C3  A00 X   1      19.082  52.199  42.8360  0.00  0.00     0.000 C
ATOM      4  C4  A00 X   1      18.782  51.640  41.4200  0.00  0.00     0.000 C
ATOM      5  C5  A00 X   1      17.551  52.293  40.7910  0.00  0.00     0.000 C
ATOM      6  O5  A00 X   1      17.898  53.691  40.6720  0.00  0.00     0.000 O
ATOM      7   O  A00 X   1      18.532  51.266  43.7630  0.00  0.00     0.000 O
ATOM      9  HD  A00 X   1      18.545  50.878  42.9890  0.00  0.00     0.000 HD
ATOM      9   O  A00 X   1      19.904  51.790  40.5520  0.00  0.00     0.000 O
ATOM     11  HD  A00 X   1      19.916  51.403  39.7770  0.00  0.00     0.000 HD
ENDROOT
BRANCH 2 11
ATOM     11   O  A00 X   1      19.488  54.399  43.8270  0.00  0.00     0.000 O
ATOM     12   O  A00 X   1      20.093  53.965  46.1100  0.00  0.00     0.000 OA
ATOM     13   O  A00 X   1      17.829  54.690  45.5960  0.00  0.00     0.000 OA
ATOM     14   O  A00 X   1      19.662  56.181  45.3260  0.00  0.00     0.000 OA
ATOM     15   S  A00 X   1      19.234  54.809  45.3190  0.00  0.00     0.000 S
ENDBRANCH 2 11
BRANCH 5 16
ATOM     16   C  A00 X   1      16.235  52.050  41.5380  0.00  0.00     0.000 C
ATOM     17   O  A00 X   1      15.262  52.705  41.2280  0.00  0.00     0.000 OA
ATOM     18   O  A00 X   1      16.131  51.222  42.4210  0.00  0.00     0.000 OA
ENDBRANCH 5 16
BRANCH 1 19
ATOM     19  O4  A00 X   2      16.814  55.200  42.1820  0.00  0.00     0.000 O
BRANCH 19 23
ATOM     20  C1  A00 X   2      15.272  58.785  40.4120  0.00  0.00     0.000 C
ATOM     21  C2  A00 X   2      15.303  57.511  39.5340  0.00  0.00     0.000 C
ATOM     22  C3  A00 X   2      15.461  56.247  40.4040  0.00  0.00     0.000 C
ATOM     23  C4  A00 X   2      16.696  56.372  41.3250  0.00  0.00     0.000 C
ATOM     24  C5  A00 X   2      16.553  57.690  42.1340  0.00  0.00     0.000 C
ATOM     25  O5  A00 X   2      16.488  58.804  41.2050  0.00  0.00     0.000 O
ATOM     26   O  A00 X   2      15.416  55.091  39.5510  0.00  0.00     0.000 O
ATOM     28  HD  A00 X   2      16.008  55.408  39.0050  0.00  0.00     0.000 HD
BRANCH 21 30
ATOM     28   N  A00 X   2      14.410  56.688  38.7130  0.00  0.00     0.000 N
ATOM     30  HD  A00 X   2      14.634  57.371  38.2310  0.00  0.00     0.000 HD
ATOM     30   O  A00 X   2      14.633  57.368  36.4890  0.00  0.00     0.000 OA
ATOM     31   S  A00 X   2      13.645  57.368  37.5080  0.00  0.00     0.000 S
ATOM     32   O  A00 X   2      12.537  56.494  37.2750  0.00  0.00     0.000 OA
ATOM     33   O  A00 X   2      13.184  58.644  37.9660  0.00  0.00     0.000 OA
ENDBRANCH 21 30
BRANCH 24 34
ATOM     34   C  A00 X   2      17.544  57.939  43.2960  0.00  0.00     0.000 C
ATOM     35   O  A00 X   2      19.295  61.084  43.8460  0.00  0.00     0.000 OA
ATOM     36   O  A00 X   2      18.337  59.120  43.0630  0.00  0.00     0.000 O
ATOM     37   O  A00 X   2      16.943  60.891  43.6880  0.00  0.00     0.000 OA
ATOM     38   S  A00 X   2      18.157  60.269  44.1210  0.00  0.00     0.000 S
ATOM     39   O  A00 X   2      18.158  59.639  45.4070  0.00  0.00     0.000 OA
ENDBRANCH 24 34
BRANCH 20 40
ATOM     40  O4  A00 X   3      14.137  58.632  41.2770  0.00  0.00     0.000 O
BRANCH 40 44
ATOM     41  C1  A00 X   3      11.699  58.808  43.9510  0.00  0.00     0.000 C
ATOM     42  C2  A00 X   3      11.378  58.422  42.4910  0.00  0.00     0.000 C
ATOM     43  C3  A00 X   3      11.953  59.468  41.5010  0.00  0.00     0.000 C
ATOM     44  C4  A00 X   3      13.423  59.805  41.7200  0.00  0.00     0.000 C
ATOM     45  C5  A00 X   3      13.665  60.187  43.2080  0.00  0.00     0.000 C
ATOM     46  O5  A00 X   3      13.097  59.179  44.1050  0.00  0.00     0.000 O
ATOM     47   O  A00 X   3      11.642  59.260  40.1250  0.00  0.00     0.000 O
ATOM     49  HD  A00 X   3      12.459  59.526  40.0160  0.00  0.00     0.000 HD
BRANCH 42 49
ATOM     49   O  A00 X   3      11.944  57.113  42.2640  0.00  0.00     0.000 O
ATOM     50   O  A00 X   3      12.109  55.591  40.4240  0.00  0.00     0.000 OA
ATOM     51   O  A00 X   3      10.073  56.740  40.7760  0.00  0.00     0.000 OA
ATOM     52   O  A00 X   3      10.731  55.104  42.3500  0.00  0.00     0.000 OA
ATOM     53   S  A00 X   3      11.182  56.065  41.4030  0.00  0.00     0.000 S
ENDBRANCH 42 49
BRANCH 45 54
ATOM     54   C  A00 X   3      13.181  61.609  43.5150  0.00  0.00     0.000 C
ATOM     55   O  A00 X   3      13.313  62.081  44.6260  0.00  0.00     0.000 OA
ATOM     56   O  A00 X   3      12.654  62.291  42.6500  0.00  0.00     0.000 OA
ENDBRANCH 45 54
BRANCH 41 57
ATOM     57  O4  A00 X   4      10.771  59.792  44.4600  0.00  0.00     0.000 O
BRANCH 57 61
ATOM     58  C1  A00 X   4       8.814  60.267  48.2790  0.00  0.00     0.000 C
ATOM     59  C2  A00 X   4      10.183  60.956  48.0570  0.00  0.00     0.000 C
ATOM     60  C3  A00 X   4      10.606  61.021  46.5750  0.00  0.00     0.000 C
ATOM     61  C4  A00 X   4      10.440  59.657  45.8710  0.00  0.00     0.000 C
ATOM     62  C5  A00 X   4       8.952  59.259  46.0370  0.00  0.00     0.000 C
ATOM     63  O5  A00 X   4       8.656  59.094  47.4480  0.00  0.00     0.000 O
BRANCH 59 66
ATOM     64   N  A00 X   4      10.862  62.176  48.5300  0.00  0.00     0.000 N
ATOM     66  HD  A00 X   4      11.707  62.256  48.3560  0.00  0.00     0.000 HD
ATOM     66   O  A00 X   4      10.615  61.325  50.7690  0.00  0.00     0.000 OA
ATOM     67   S  A00 X   4      10.724  62.570  50.0740  0.00  0.00     0.000 S
ATOM     68   O  A00 X   4      11.953  63.281  50.2700  0.00  0.00     0.000 OA
ATOM     69   O  A00 X   4       9.561  63.410  50.0180  0.00  0.00     0.000 OA
ENDBRANCH 59 66
BRANCH 62 70
ATOM     70   C  A00 X   4       8.559  57.958  45.2970  0.00  0.00     0.000 C
ATOM     71   O  A00 X   4       5.519  57.224  43.4730  0.00  0.00     0.000 OA
ATOM     72   O  A00 X   4       6.650  55.991  45.1300  0.00  0.00     0.000 OA
ATOM     73   O  A00 X   4       7.381  58.197  44.5100  0.00  0.00     0.000 O
ATOM     74   O  A00 X   4       5.341  57.945  45.7670  0.00  0.00     0.000 OA
ATOM     75   S  A00 X   4       6.128  57.291  44.7720  0.00  0.00     0.000 S
ENDBRANCH 62 70
ENDBRANCH 57 61
ENDBRANCH 41 57
ENDBRANCH 40 44
ENDBRANCH 20 40
ENDBRANCH 19 23
ENDBRANCH 1 19
TORSDOF 14
ENDMDL
MODEL 10
REMARK VINA RESULT:      -7.1     26.882     31.402
ROOT
ATOM      1  C1  A00 X   1      17.973  54.131  41.3530  0.00  0.00     0.000 C
ATOM      2  C2  A00 X   1      18.252  53.570  42.7730  0.00  0.00     0.000 C
ATOM      3  C3  A00 X   1      19.085  52.247  42.8380  0.00  0.00     0.000 C
ATOM      4  C4  A00 X   1      19.212  51.471  41.5020  0.00  0.00     0.000 C
ATOM      5  C5  A00 X   1      18.091  51.819  40.5230  0.00  0.00     0.000 C
ATOM      6  O5  A00 X   1      18.261  53.229  40.2560  0.00  0.00     0.000 O
ATOM      7   O  A00 X   1      18.462  51.360  43.7640  0.00  0.00     0.000 O
ATOM      9  HD  A00 X   1      18.712  50.885  43.0840  0.00  0.00     0.000 HD
ATOM      9   O  A00 X   1      20.479  51.699  40.8850  0.00  0.00     0.000 O
ATOM     11  HD  A00 X   1      20.729  51.224  40.2050  0.00  0.00     0.000 HD
ENDROOT
BRANCH 2 11
ATOM     11   O  A00 X   1      18.936  54.593  43.5220  0.00  0.00     0.000 O
ATOM     12   O  A00 X   1      19.814  54.184  45.7200  0.00  0.00     0.000 OA
ATOM     13   O  A00 X   1      17.412  54.065  45.3570  0.00  0.00     0.000 OA
ATOM     14   O  A00 X   1      18.550  56.150  45.2190  0.00  0.00     0.000 OA
ATOM     15   S  A00 X   1      18.653  54.724  45.0590  0.00  0.00     0.000 S
ENDBRANCH 2 11
BRANCH 5 16
ATOM     16   C  A00 X   1      16.681  51.451  40.9960  0.00  0.00     0.000 C
ATOM     17   O  A00 X   1      15.732  51.817  40.3330  0.00  0.00     0.000 OA
ATOM     18   O  A00 X   1      16.480  50.802  42.0030  0.00  0.00     0.000 OA
ENDBRANCH 5 16
BRANCH 1 19
ATOM     19  O4  A00 X   2      16.651  54.710  41.2280  0.00  0.00     0.000 O
BRANCH 19 23
ATOM     20  C1  A00 X   2      18.067  58.747  41.4810  0.00  0.00     0.000 C
ATOM     21  C2  A00 X   2      16.990  58.302  42.5010  0.00  0.00     0.000 C
ATOM     22  C3  A00 X   2      16.904  56.763  42.5720  0.00  0.00     0.000 C
ATOM     23  C4  A00 X   2      16.682  56.165  41.1650  0.00  0.00     0.000 C
ATOM     24  C5  A00 X   2      17.809  56.698  40.2390  0.00  0.00     0.000 C
ATOM     25  O5  A00 X   2      17.735  58.147  40.2010  0.00  0.00     0.000 O
ATOM     26   O  A00 X   2      15.943  56.401  43.5780  0.00  0.00     0.000 O
ATOM     28  HD  A00 X   2      15.335  56.929  43.2590  0.00  0.00     0.000 HD
BRANCH 21 30
ATOM     28   N  A00 X   2      16.827  58.305  43.9580  0.00  0.00     0.000 N
ATOM     30  HD  A00 X   2      16.604  59.094  43.6780  0.00  0.00     0.000 HD
ATOM     30   O  A00 X   2      15.520  60.153  44.5390  0.00  0.00     0.000 OA
ATOM     31   S  A00 X   2      16.850  59.690  44.7200  0.00  0.00     0.000 S
ATOM     32   O  A00 X   2      17.188  59.332  46.0630  0.00  0.00     0.000 OA
ATOM     33   O  A00 X   2      17.896  60.477  44.1370  0.00  0.00     0.000 OA
ENDBRANCH 21 30
BRANCH 24 34
ATOM     34   C  A00 X   2      17.951  56.070  38.8320  0.00  0.00     0.000 C
ATOM     35   O  A00 X   2      18.030  57.989  35.7390  0.00  0.00     0.000 OA
ATOM     36   O  A00 X   2      17.599  57.014  37.8010  0.00  0.00     0.000 O
ATOM     37   O  A00 X   2      19.508  58.342  37.5510  0.00  0.00     0.000 OA
ATOM     38   S  A00 X   2      18.758  57.380  36.8030  0.00  0.00     0.000 S
ATOM     39   O  A00 X   2      19.407  56.148  36.4670  0.00  0.00     0.000 OA
ENDBRANCH 24 34
BRANCH 20 40
ATOM     40  O4  A00 X   3      19.304  58.200  41.9610  0.00  0.00     0.000 O
BRANCH 40 44
ATOM     41  C1  A00 X   3      22.475  56.564  42.5880  0.00  0.00     0.000 C
ATOM     42  C2  A00 X   3      22.113  57.990  43.0560  0.00  0.00     0.000 C
ATOM     43  C3  A00 X   3      21.564  58.838  41.8790  0.00  0.00     0.000 C
ATOM     44  C4  A00 X   3      20.450  58.170  41.0830  0.00  0.00     0.000 C
ATOM     45  C5  A00 X   3      20.890  56.745  40.6450  0.00  0.00     0.000 C
ATOM     46  O5  A00 X   3      21.410  55.985  41.7830  0.00  0.00     0.000 O
ATOM     47   O  A00 X   3      21.277  60.203  42.1760  0.00  0.00     0.000 O
ATOM     49  HD  A00 X   3      20.598  60.055  41.6590  0.00  0.00     0.000 HD
BRANCH 42 49
ATOM     49   O  A00 X   3      21.135  57.854  44.1100  0.00  0.00     0.000 O
ATOM     50   O  A00 X   3      20.368  59.187  45.9450  0.00  0.00     0.000 OA
ATOM     51   O  A00 X   3      22.686  59.100  45.4880  0.00  0.00     0.000 OA
ATOM     52   O  A00 X   3      21.623  57.150  46.2960  0.00  0.00     0.000 OA
ATOM     53   S  A00 X   3      21.457  58.349  45.5500  0.00  0.00     0.000 S
ENDBRANCH 42 49
BRANCH 45 54
ATOM     54   C  A00 X   3      21.859  56.790  39.4570  0.00  0.00     0.000 C
ATOM     55   O  A00 X   3      22.570  57.757  39.2750  0.00  0.00     0.000 OA
ATOM     56   O  A00 X   3      21.930  55.857  38.6720  0.00  0.00     0.000 OA
ENDBRANCH 45 54
BRANCH 41 57
ATOM     57  O4  A00 X   4      23.775  56.522  41.9590  0.00  0.00     0.000 O
BRANCH 57 61
ATOM     58  C1  A00 X   4      26.584  53.329  41.2160  0.00  0.00     0.000 C
ATOM     59  C2  A00 X   4      25.192  53.264  40.5380  0.00  0.00     0.000 C
ATOM     60  C3  A00 X   4      24.426  54.602  40.5800  0.00  0.00     0.000 C
ATOM     61  C4  A00 X   4      24.437  55.226  41.9920  0.00  0.00     0.000 C
ATOM     62  C5  A00 X   4      25.926  55.394  42.3830  0.00  0.00     0.000 C
ATOM     63  O5  A00 X   4      26.553  54.087  42.4460  0.00  0.00     0.000 O
BRANCH 59 66
ATOM     64   N  A00 X   4      23.990  52.411  40.5540  0.00  0.00     0.000 N
ATOM     66  HD  A00 X   4      23.626  52.248  41.3230  0.00  0.00     0.000 HD
ATOM     66   O  A00 X   4      25.418  50.562  39.9710  0.00  0.00     0.000 OA
ATOM     67   S  A00 X   4      24.061  50.989  39.8260  0.00  0.00     0.000 S
ATOM     68   O  A00 X   4      23.098  50.256  40.5950  0.00  0.00     0.000 OA
ATOM     69   O  A00 X   4      23.611  51.354  38.5130  0.00  0.00     0.000 OA
ENDBRANCH 59 66
BRANCH 62 70
ATOM     70   C  A00 X   4      26.147  56.111  43.7360  0.00  0.00     0.000 C
ATOM     71   O  A00 X   4      25.678  54.818  47.0850  0.00  0.00     0.000 OA
ATOM     72   O  A00 X   4      24.933  56.821  46.0950  0.00  0.00     0.000 OA
ATOM     73   O  A00 X   4      26.079  55.149  44.8010  0.00  0.00     0.000 O
ATOM     74   O  A00 X   4      23.827  54.722  45.5420  0.00  0.00     0.000 OA
ATOM     75   S  A00 X   4      25.026  55.387  45.9380  0.00  0.00     0.000 S
ENDBRANCH 62 70
ENDBRANCH 57 61
ENDBRANCH 41 57
ENDBRANCH 40 44
ENDBRANCH 20 40
ENDBRANCH 19 23
ENDBRANCH 1 19
TORSDOF 14
ENDMDL
MODEL 11
REMARK VINA RESULT:      -6.9     26.973     31.425
ROOT
ATOM      1  C1  A00 X   1      18.085  54.225  41.7130  0.00  0.00     0.000 C
ATOM      2  C2  A00 X   1      18.411  53.533  43.0640  0.00  0.00     0.000 C
ATOM      3  C3  A00 X   1      18.868  52.039  42.9780  0.00  0.00     0.000 C
ATOM      4  C4  A00 X   1      18.593  51.332  41.6260  0.00  0.00     0.000 C
ATOM      5  C5  A00 X   1      17.472  52.010  40.8380  0.00  0.00     0.000 C
ATOM      6  O5  A00 X   1      17.965  53.342  40.5700  0.00  0.00     0.000 O
ATOM      7   O  A00 X   1      18.176  51.291  43.9750  0.00  0.00     0.000 O
ATOM      9  HD  A00 X   1      18.192  50.806  43.2570  0.00  0.00     0.000 HD
ATOM      9   O  A00 X   1      19.771  51.261  40.8240  0.00  0.00     0.000 O
ATOM     11  HD  A00 X   1      19.787  50.777  40.1070  0.00  0.00     0.000 HD
ENDROOT
BRANCH 2 11
ATOM     11   O  A00 X   1      19.440  54.302  43.7140  0.00  0.00     0.000 O
ATOM     12   O  A00 X   1      20.117  53.863  45.9760  0.00  0.00     0.000 OA
ATOM     13   O  A00 X   1      17.848  54.620  45.5390  0.00  0.00     0.000 OA
ATOM     14   O  A00 X   1      19.692  56.084  45.2030  0.00  0.00     0.000 OA
ATOM     15   S  A00 X   1      19.244  54.718  45.2130  0.00  0.00     0.000 S
ENDBRANCH 2 11
BRANCH 5 16
ATOM     16   C  A00 X   1      16.099  51.990  41.5170  0.00  0.00     0.000 C
ATOM     17   O  A00 X   1      15.240  52.747  41.1150  0.00  0.00     0.000 OA
ATOM     18   O  A00 X   1      15.837  51.240  42.4370  0.00  0.00     0.000 OA
ENDBRANCH 5 16
BRANCH 1 19
ATOM     19  O4  A00 X   2      16.957  55.129  41.8030  0.00  0.00     0.000 O
BRANCH 19 23
ATOM     20  C1  A00 X   2      18.487  57.888  38.9030  0.00  0.00     0.000 C
ATOM     21  C2  A00 X   2      18.832  58.150  40.3890  0.00  0.00     0.000 C
ATOM     22  C3  A00 X   2      18.598  56.883  41.2390  0.00  0.00     0.000 C
ATOM     23  C4  A00 X   2      17.160  56.353  41.0400  0.00  0.00     0.000 C
ATOM     24  C5  A00 X   2      16.935  56.150  39.5170  0.00  0.00     0.000 C
ATOM     25  O5  A00 X   2      17.112  57.425  38.8450  0.00  0.00     0.000 O
ATOM     26   O  A00 X   2      18.996  57.156  42.5930  0.00  0.00     0.000 O
ATOM     28  HD  A00 X   2      18.534  57.887  42.6350  0.00  0.00     0.000 HD
BRANCH 21 30
ATOM     28   N  A00 X   2      18.759  59.589  40.1180  0.00  0.00     0.000 N
ATOM     30  HD  A00 X   2      19.170  59.497  40.8750  0.00  0.00     0.000 HD
ATOM     30   O  A00 X   2      20.285  60.671  41.5180  0.00  0.00     0.000 OA
ATOM     31   S  A00 X   2      18.879  60.596  41.3300  0.00  0.00     0.000 S
ATOM     32   O  A00 X   2      18.271  61.793  40.8370  0.00  0.00     0.000 OA
ATOM     33   O  A00 X   2      18.108  60.055  42.4090  0.00  0.00     0.000 OA
ENDBRANCH 21 30
BRANCH 24 34
ATOM     34   C  A00 X   2      15.654  55.410  39.0650  0.00  0.00     0.000 C
ATOM     35   O  A00 X   2      12.283  56.385  40.0360  0.00  0.00     0.000 OA
ATOM     36   O  A00 X   2      14.520  55.788  39.8710  0.00  0.00     0.000 O
ATOM     37   O  A00 X   2      13.822  57.831  38.9720  0.00  0.00     0.000 OA
ATOM     38   S  A00 X   2      13.346  56.487  39.0920  0.00  0.00     0.000 S
ATOM     39   O  A00 X   2      13.160  55.739  37.8840  0.00  0.00     0.000 OA
ENDBRANCH 24 34
BRANCH 20 40
ATOM     40  O4  A00 X   3      19.367  56.836  38.4810  0.00  0.00     0.000 O
BRANCH 40 44
ATOM     41  C1  A00 X   3      19.920  53.733  36.6940  0.00  0.00     0.000 C
ATOM     42  C2  A00 X   3      21.008  54.511  37.4650  0.00  0.00     0.000 C
ATOM     43  C3  A00 X   3      21.028  56.003  37.0430  0.00  0.00     0.000 C
ATOM     44  C4  A00 X   3      19.668  56.688  37.0760  0.00  0.00     0.000 C
ATOM     45  C5  A00 X   3      18.630  55.850  36.2780  0.00  0.00     0.000 C
ATOM     46  O5  A00 X   3      18.653  54.448  36.7000  0.00  0.00     0.000 O
ATOM     47   O  A00 X   3      22.054  56.802  37.6290  0.00  0.00     0.000 O
ATOM     49  HD  A00 X   3      21.421  57.392  37.6590  0.00  0.00     0.000 HD
BRANCH 42 49
ATOM     49   O  A00 X   3      20.718  54.364  38.8720  0.00  0.00     0.000 O
ATOM     50   O  A00 X   3      21.592  55.237  40.9220  0.00  0.00     0.000 OA
ATOM     51   O  A00 X   3      23.102  54.591  39.2220  0.00  0.00     0.000 OA
ATOM     52   O  A00 X   3      21.857  52.910  40.3220  0.00  0.00     0.000 OA
ATOM     53   S  A00 X   3      21.875  54.271  39.9080  0.00  0.00     0.000 S
ENDBRANCH 42 49
BRANCH 45 54
ATOM     54   C  A00 X   3      18.802  56.027  34.7640  0.00  0.00     0.000 C
ATOM     55   O  A00 X   3      19.768  56.608  34.3150  0.00  0.00     0.000 OA
ATOM     56   O  A00 X   3      17.971  55.587  33.9850  0.00  0.00     0.000 OA
ENDBRANCH 45 54
BRANCH 41 57
ATOM     57  O4  A00 X   4      20.370  53.348  35.3760  0.00  0.00     0.000 O
BRANCH 57 61
ATOM     58  C1  A00 X   4      19.556  49.935  32.8610  0.00  0.00     0.000 C
ATOM     59  C2  A00 X   4      18.396  50.907  33.1900  0.00  0.00     0.000 C
ATOM     60  C3  A00 X   4      18.869  52.252  33.7780  0.00  0.00     0.000 C
ATOM     61  C4  A00 X   4      19.895  52.052  34.9140  0.00  0.00     0.000 C
ATOM     62  C5  A00 X   4      21.064  51.238  34.3070  0.00  0.00     0.000 C
ATOM     63  O5  A00 X   4      20.573  49.938  33.8890  0.00  0.00     0.000 O
BRANCH 59 66
ATOM     64   N  A00 X   4      18.250  49.645  33.9380  0.00  0.00     0.000 N
ATOM     66  HD  A00 X   4      18.876  49.054  33.8500  0.00  0.00     0.000 HD
ATOM     66   O  A00 X   4      16.447  49.084  32.4440  0.00  0.00     0.000 OA
ATOM     67   S  A00 X   4      16.887  48.823  33.7780  0.00  0.00     0.000 S
ATOM     68   O  A00 X   4      17.358  47.492  34.0240  0.00  0.00     0.000 OA
ATOM     69   O  A00 X   4      16.124  49.386  34.8570  0.00  0.00     0.000 OA
ENDBRANCH 59 66
BRANCH 62 70
ATOM     70   C  A00 X   4      22.255  51.027  35.2710  0.00  0.00     0.000 C
ATOM     71   O  A00 X   4      22.360  49.132  38.3550  0.00  0.00     0.000 OA
ATOM     72   O  A00 X   4      23.082  51.322  37.8740  0.00  0.00     0.000 OA
ATOM     73   O  A00 X   4      21.917  50.010  36.2280  0.00  0.00     0.000 O
ATOM     74   O  A00 X   4      20.701  50.866  38.1240  0.00  0.00     0.000 OA
ATOM     75   S  A00 X   4      21.990  50.381  37.7500  0.00  0.00     0.000 S
ENDBRANCH 62 70
ENDBRANCH 57 61
ENDBRANCH 41 57
ENDBRANCH 40 44
ENDBRANCH 20 40
ENDBRANCH 19 23
ENDBRANCH 1 19
TORSDOF 14
ENDMDL
MODEL 12
REMARK VINA RESULT:      -6.9     39.537     43.554
ROOT
ATOM      1  C1  A00 X   1      13.454  32.763  84.3330  0.00  0.00     0.000 C
ATOM      2  C2  A00 X   1      12.387  32.796  83.2060  0.00  0.00     0.000 C
ATOM      3  C3  A00 X   1      12.187  34.172  82.4890  0.00  0.00     0.000 C
ATOM      4  C4  A00 X   1      12.792  35.400  83.2180  0.00  0.00     0.000 C
ATOM      5  C5  A00 X   1      12.984  35.147  84.7140  0.00  0.00     0.000 C
ATOM      6  O5  A00 X   1      13.929  34.056  84.7830  0.00  0.00     0.000 O
ATOM      7   O  A00 X   1      10.789  34.424  82.3650  0.00  0.00     0.000 O
ATOM      9  HD  A00 X   1      11.164  35.172  82.5900  0.00  0.00     0.000 HD
ATOM      9   O  A00 X   1      14.033  35.795  82.6330  0.00  0.00     0.000 O
ATOM     11  HD  A00 X   1      14.408  36.542  82.8590  0.00  0.00     0.000 HD
ENDROOT
BRANCH 2 11
ATOM     11   O  A00 X   1      12.754  31.806  82.2260  0.00  0.00     0.000 O
ATOM     12   O  A00 X   1      11.115  30.698  80.8650  0.00  0.00     0.000 OA
ATOM     13   O  A00 X   1      11.087  30.361  83.2740  0.00  0.00     0.000 OA
ATOM     14   O  A00 X   1      12.865  29.490  81.9560  0.00  0.00     0.000 OA
ATOM     15   S  A00 X   1      11.870  30.520  82.0790  0.00  0.00     0.000 S
ENDBRANCH 2 11
BRANCH 5 16
ATOM     16   C  A00 X   1      11.693  34.890  85.4980  0.00  0.00     0.000 C
ATOM     17   O  A00 X   1      10.644  35.296  85.0400  0.00  0.00     0.000 OA
ATOM     18   O  A00 X   1      11.680  34.289  86.5540  0.00  0.00     0.000 OA
ENDBRANCH 5 16
BRANCH 1 19
ATOM     19  O4  A00 X   2      13.065  31.925  85.4490  0.00  0.00     0.000 O
BRANCH 19 23
ATOM     20  C1  A00 X   2      16.947  31.099  87.0650  0.00  0.00     0.000 C
ATOM     21  C2  A00 X   2      16.605  30.493  85.6820  0.00  0.00     0.000 C
ATOM     22  C3  A00 X   2      15.393  31.211  85.0530  0.00  0.00     0.000 C
ATOM     23  C4  A00 X   2      14.192  31.204  86.0250  0.00  0.00     0.000 C
ATOM     24  C5  A00 X   2      14.667  31.815  87.3710  0.00  0.00     0.000 C
ATOM     25  O5  A00 X   2      15.756  31.009  87.8920  0.00  0.00     0.000 O
ATOM     26   O  A00 X   2      15.160  30.661  83.7450  0.00  0.00     0.000 O
ATOM     28  HD  A00 X   2      15.173  29.844  84.0310  0.00  0.00     0.000 HD
BRANCH 21 30
ATOM     28   N  A00 X   2      17.410  29.320  86.0390  0.00  0.00     0.000 N
ATOM     30  HD  A00 X   2      17.289  29.290  85.1820  0.00  0.00     0.000 HD
ATOM     30   O  A00 X   2      18.362  28.469  84.0830  0.00  0.00     0.000 OA
ATOM     31   S  A00 X   2      17.412  28.077  85.0630  0.00  0.00     0.000 S
ATOM     32   O  A00 X   2      17.820  26.991  85.8990  0.00  0.00     0.000 OA
ATOM     33   O  A00 X   2      16.064  27.884  84.6200  0.00  0.00     0.000 OA
ENDBRANCH 21 30
BRANCH 24 34
ATOM     34   C  A00 X   2      13.596  32.134  88.4410  0.00  0.00     0.000 C
ATOM     35   O  A00 X   2      13.954  34.721  90.9780  0.00  0.00     0.000 OA
ATOM     36   O  A00 X   2      14.144  32.937  89.5060  0.00  0.00     0.000 O
ATOM     37   O  A00 X   2      14.140  35.115  88.6530  0.00  0.00     0.000 OA
ATOM     38   S  A00 X   2      13.491  34.357  89.6790  0.00  0.00     0.000 S
ATOM     39   O  A00 X   2      12.076  34.168  89.5700  0.00  0.00     0.000 OA
ENDBRANCH 24 34
BRANCH 20 40
ATOM     40  O4  A00 X   3      17.258  32.478  86.8190  0.00  0.00     0.000 O
BRANCH 40 44
ATOM     41  C1  A00 X   3      18.889  35.688  86.4250  0.00  0.00     0.000 C
ATOM     42  C2  A00 X   3      19.565  34.322  86.1820  0.00  0.00     0.000 C
ATOM     43  C3  A00 X   3      19.353  33.374  87.3910  0.00  0.00     0.000 C
ATOM     44  C4  A00 X   3      17.906  33.251  87.8520  0.00  0.00     0.000 C
ATOM     45  C5  A00 X   3      17.298  34.664  88.0790  0.00  0.00     0.000 C
ATOM     46  O5  A00 X   3      17.531  35.526  86.9190  0.00  0.00     0.000 O
ATOM     47   O  A00 X   3      20.009  32.110  87.3150  0.00  0.00     0.000 O
ATOM     49  HD  A00 X   3      19.272  31.833  87.6750  0.00  0.00     0.000 HD
BRANCH 42 49
ATOM     49   O  A00 X   3      18.992  33.774  84.9750  0.00  0.00     0.000 O
ATOM     50   O  A00 X   3      19.028  31.666  83.8410  0.00  0.00     0.000 OA
ATOM     51   O  A00 X   3      21.035  32.491  84.7810  0.00  0.00     0.000 OA
ATOM     52   O  A00 X   3      20.115  33.619  82.9190  0.00  0.00     0.000 OA
ATOM     53   S  A00 X   3      19.829  32.828  84.0650  0.00  0.00     0.000 S
ENDBRANCH 42 49
BRANCH 45 54
ATOM     54   C  A00 X   3      17.778  35.283  89.3970  0.00  0.00     0.000 C
ATOM     55   O  A00 X   3      17.299  36.322  89.8030  0.00  0.00     0.000 OA
ATOM     56   O  A00 X   3      18.649  34.743  90.0610  0.00  0.00     0.000 OA
ENDBRANCH 45 54
BRANCH 41 57
ATOM     57  O4  A00 X   4      19.711  36.553  87.2400  0.00  0.00     0.000 O
BRANCH 57 61
ATOM     58  C1  A00 X   4      20.430  40.810  87.2400  0.00  0.00     0.000 C
ATOM     59  C2  A00 X   4      19.055  40.291  87.7290  0.00  0.00     0.000 C
ATOM     60  C3  A00 X   4      19.039  38.777  88.0240  0.00  0.00     0.000 C
ATOM     61  C4  A00 X   4      19.675  37.963  86.8770  0.00  0.00     0.000 C
ATOM     62  C5  A00 X   4      21.113  38.508  86.7000  0.00  0.00     0.000 C
ATOM     63  O5  A00 X   4      21.050  39.902  86.3020  0.00  0.00     0.000 O
BRANCH 59 66
ATOM     64   N  A00 X   4      17.865  40.437  86.8720  0.00  0.00     0.000 N
ATOM     66  HD  A00 X   4      17.978  40.370  86.0160  0.00  0.00     0.000 HD
ATOM     66   O  A00 X   4      17.847  42.770  87.4650  0.00  0.00     0.000 OA
ATOM     67   S  A00 X   4      16.949  41.734  87.0620  0.00  0.00     0.000 S
ATOM     68   O  A00 X   4      16.409  41.865  85.7400  0.00  0.00     0.000 OA
ATOM     69   O  A00 X   4      16.013  41.243  88.0330  0.00  0.00     0.000 OA
ENDBRANCH 59 66
BRANCH 62 70
ATOM     70   C  A00 X   4      21.958  37.737  85.6570  0.00  0.00     0.000 C
ATOM     71   O  A00 X   4      21.468  37.502  82.0780  0.00  0.00     0.000 OA
ATOM     72   O  A00 X   4      21.847  35.826  83.6880  0.00  0.00     0.000 OA
ATOM     73   O  A00 X   4      21.549  38.123  84.3350  0.00  0.00     0.000 O
ATOM     74   O  A00 X   4      19.652  36.873  83.5330  0.00  0.00     0.000 OA
ATOM     75   S  A00 X   4      21.063  36.996  83.3590  0.00  0.00     0.000 S
ENDBRANCH 62 70
ENDBRANCH 57 61
ENDBRANCH 41 57
ENDBRANCH 40 44
ENDBRANCH 20 40
ENDBRANCH 19 23
ENDBRANCH 1 19
TORSDOF 14
ENDMDL
MODEL 13
REMARK VINA RESULT:      -6.9      3.156      6.106
ROOT
ATOM      1  C1  A00 X   1      37.065  35.695  54.9410  0.00  0.00     0.000 C
ATOM      2  C2  A00 X   1      36.170  36.957  55.0620  0.00  0.00     0.000 C
ATOM      3  C3  A00 X   1      35.798  37.399  56.5160  0.00  0.00     0.000 C
ATOM      4  C4  A00 X   1      36.049  36.341  57.6210  0.00  0.00     0.000 C
ATOM      5  C5  A00 X   1      36.090  34.919  57.0610  0.00  0.00     0.000 C
ATOM      6  O5  A00 X   1      37.214  34.914  56.1530  0.00  0.00     0.000 O
ATOM      7   O  A00 X   1      34.407  37.706  56.5590  0.00  0.00     0.000 O
ATOM      9  HD  A00 X   1      34.595  37.272  57.2840  0.00  0.00     0.000 HD
ATOM      9   O  A00 X   1      37.254  36.611  58.3380  0.00  0.00     0.000 O
ATOM     11  HD  A00 X   1      37.442  36.176  59.0630  0.00  0.00     0.000 HD
ENDROOT
BRANCH 2 11
ATOM     11   O  A00 X   1      36.849  38.042  54.4010  0.00  0.00     0.000 O
ATOM     12   O  A00 X   1      36.215  40.333  54.7410  0.00  0.00     0.000 OA
ATOM     13   O  A00 X   1      34.638  38.804  53.6950  0.00  0.00     0.000 OA
ATOM     14   O  A00 X   1      36.622  39.455  52.5560  0.00  0.00     0.000 OA
ATOM     15   S  A00 X   1      36.002  39.233  53.8340  0.00  0.00     0.000 S
ENDBRANCH 2 11
BRANCH 5 16
ATOM     16   C  A00 X   1      34.783  34.438  56.4220  0.00  0.00     0.000 C
ATOM     17   O  A00 X   1      34.764  33.346  55.8910  0.00  0.00     0.000 OA
ATOM     18   O  A00 X   1      33.767  35.104  56.4330  0.00  0.00     0.000 OA
ENDBRANCH 5 16
BRANCH 1 19
ATOM     19  O4  A00 X   2      36.706  34.858  53.8140  0.00  0.00     0.000 O
BRANCH 19 23
ATOM     20  C1  A00 X   2      39.082  33.083  50.7200  0.00  0.00     0.000 C
ATOM     21  C2  A00 X   2      39.326  32.605  52.1720  0.00  0.00     0.000 C
ATOM     22  C3  A00 X   2      38.142  32.990  53.0840  0.00  0.00     0.000 C
ATOM     23  C4  A00 X   2      37.855  34.506  52.9920  0.00  0.00     0.000 C
ATOM     24  C5  A00 X   2      37.648  34.859  51.4930  0.00  0.00     0.000 C
ATOM     25  O5  A00 X   2      38.854  34.517  50.7620  0.00  0.00     0.000 O
ATOM     26   O  A00 X   2      38.385  32.466  54.4010  0.00  0.00     0.000 O
ATOM     28  HD  A00 X   2      39.184  32.797  54.4400  0.00  0.00     0.000 HD
BRANCH 21 30
ATOM     28   N  A00 X   2      40.744  32.446  51.8360  0.00  0.00     0.000 N
ATOM     30  HD  A00 X   2      40.612  32.016  52.5770  0.00  0.00     0.000 HD
ATOM     30   O  A00 X   2      41.600  30.685  53.1110  0.00  0.00     0.000 OA
ATOM     31   S  A00 X   2      41.762  32.091  52.9930  0.00  0.00     0.000 S
ATOM     32   O  A00 X   2      43.026  32.511  52.4720  0.00  0.00     0.000 OA
ATOM     33   O  A00 X   2      41.404  32.884  54.1310  0.00  0.00     0.000 OA
ENDBRANCH 21 30
BRANCH 24 34
ATOM     34   C  A00 X   2      37.120  36.271  51.1470  0.00  0.00     0.000 C
ATOM     35   O  A00 X   2      35.207  37.057  48.1510  0.00  0.00     0.000 OA
ATOM     36   O  A00 X   2      36.720  36.355  49.7650  0.00  0.00     0.000 O
ATOM     37   O  A00 X   2      34.588  35.396  49.7160  0.00  0.00     0.000 OA
ATOM     38   S  A00 X   2      35.199  36.675  49.5250  0.00  0.00     0.000 S
ATOM     39   O  A00 X   2      34.855  37.719  50.4430  0.00  0.00     0.000 OA
ENDBRANCH 24 34
BRANCH 20 40
ATOM     40  O4  A00 X   3      37.885  32.419  50.2900  0.00  0.00     0.000 O
BRANCH 40 44
ATOM     41  C1  A00 X   3      35.186  30.534  48.7770  0.00  0.00     0.000 C
ATOM     42  C2  A00 X   3      36.510  29.923  49.2840  0.00  0.00     0.000 C
ATOM     43  C3  A00 X   3      37.730  30.688  48.7090  0.00  0.00     0.000 C
ATOM     44  C4  A00 X   3      37.667  32.201  48.8790  0.00  0.00     0.000 C
ATOM     45  C5  A00 X   3      36.310  32.740  48.3440  0.00  0.00     0.000 C
ATOM     46  O5  A00 X   3      35.189  31.983  48.9040  0.00  0.00     0.000 O
ATOM     47   O  A00 X   3      39.011  30.157  49.0410  0.00  0.00     0.000 O
ATOM     49  HD  A00 X   3      39.218  30.996  49.1060  0.00  0.00     0.000 HD
BRANCH 42 49
ATOM     49   O  A00 X   3      36.481  29.985  50.7260  0.00  0.00     0.000 O
ATOM     50   O  A00 X   3      37.262  28.625  52.5350  0.00  0.00     0.000 OA
ATOM     51   O  A00 X   3      36.272  27.575  50.6620  0.00  0.00     0.000 OA
ATOM     52   O  A00 X   3      34.902  28.886  52.0740  0.00  0.00     0.000 OA
ATOM     53   S  A00 X   3      36.217  28.699  51.5630  0.00  0.00     0.000 S
ENDBRANCH 42 49
BRANCH 45 54
ATOM     54   C  A00 X   3      36.290  32.804  46.8120  0.00  0.00     0.000 C
ATOM     55   O  A00 X   3      35.439  33.446  46.2310  0.00  0.00     0.000 OA
ATOM     56   O  A00 X   3      37.128  32.211  46.1500  0.00  0.00     0.000 OA
ENDBRANCH 45 54
BRANCH 41 57
ATOM     57  O4  A00 X   4      34.851  30.061  47.4530  0.00  0.00     0.000 O
BRANCH 57 61
ATOM     58  C1  A00 X   4      31.118  28.971  45.5790  0.00  0.00     0.000 C
ATOM     59  C2  A00 X   4      31.561  30.455  45.5410  0.00  0.00     0.000 C
ATOM     60  C3  A00 X   4      33.044  30.663  45.9100  0.00  0.00     0.000 C
ATOM     61  C4  A00 X   4      33.427  29.900  47.1960  0.00  0.00     0.000 C
ATOM     62  C5  A00 X   4      33.095  28.410  46.9350  0.00  0.00     0.000 C
ATOM     63  O5  A00 X   4      31.667  28.271  46.7190  0.00  0.00     0.000 O
BRANCH 59 66
ATOM     64   N  A00 X   4      31.402  31.689  44.7510  0.00  0.00     0.000 N
ATOM     66  HD  A00 X   4      31.603  32.439  45.1350  0.00  0.00     0.000 HD
ATOM     66   O  A00 X   4      29.021  31.362  44.9040  0.00  0.00     0.000 OA
ATOM     67   S  A00 X   4      29.993  31.959  44.0430  0.00  0.00     0.000 S
ATOM     68   O  A00 X   4      29.991  33.393  44.0110  0.00  0.00     0.000 OA
ATOM     69   O  A00 X   4      30.228  31.342  42.7680  0.00  0.00     0.000 OA
ENDBRANCH 59 66
BRANCH 62 70
ATOM     70   C  A00 X   4      33.514  27.459  48.0810  0.00  0.00     0.000 C
ATOM     71   O  A00 X   4      36.064  24.889  48.0670  0.00  0.00     0.000 OA
ATOM     72   O  A00 X   4      33.819  24.818  48.7720  0.00  0.00     0.000 OA
ATOM     73   O  A00 X   4      34.725  26.779  47.7140  0.00  0.00     0.000 O
ATOM     74   O  A00 X   4      34.334  24.804  46.3900  0.00  0.00     0.000 OA
ATOM     75   S  A00 X   4      34.713  25.211  47.7050  0.00  0.00     0.000 S
ENDBRANCH 62 70
ENDBRANCH 57 61
ENDBRANCH 41 57
ENDBRANCH 40 44
ENDBRANCH 20 40
ENDBRANCH 19 23
ENDBRANCH 1 19
TORSDOF 14
ENDMDL
MODEL 14
REMARK VINA RESULT:      -6.7     14.726     21.683
ROOT
ATOM      1  C1  A00 X   1      40.310  45.092  64.8360  0.00  0.00     0.000 C
ATOM      2  C2  A00 X   1      41.626  45.874  65.0880  0.00  0.00     0.000 C
ATOM      3  C3  A00 X   1      42.575  46.038  63.8550  0.00  0.00     0.000 C
ATOM      4  C4  A00 X   1      42.275  45.107  62.6520  0.00  0.00     0.000 C
ATOM      5  C5  A00 X   1      41.495  43.860  63.0680  0.00  0.00     0.000 C
ATOM      6  O5  A00 X   1      40.243  44.365  63.5840  0.00  0.00     0.000 O
ATOM      7   O  A00 X   1      43.910  45.754  64.2640  0.00  0.00     0.000 O
ATOM      9  HD  A00 X   1      43.798  45.389  63.4870  0.00  0.00     0.000 HD
ATOM      9   O  A00 X   1      41.568  45.796  61.6210  0.00  0.00     0.000 O
ATOM     11  HD  A00 X   1      41.456  45.431  60.8440  0.00  0.00     0.000 HD
ENDROOT
BRANCH 2 11
ATOM     11   O  A00 X   1      41.272  47.179  65.5850  0.00  0.00     0.000 O
ATOM     12   O  A00 X   1      42.827  48.534  66.8160  0.00  0.00     0.000 OA
ATOM     13   O  A00 X   1      42.090  46.415  67.7560  0.00  0.00     0.000 OA
ATOM     14   O  A00 X   1      40.571  48.234  67.5460  0.00  0.00     0.000 OA
ATOM     15   S  A00 X   1      41.748  47.600  67.0180  0.00  0.00     0.000 S
ENDBRANCH 2 11
BRANCH 5 16
ATOM     16   C  A00 X   1      42.229  42.931  64.0420  0.00  0.00     0.000 C
ATOM     17   O  A00 X   1      41.620  42.001  64.5280  0.00  0.00     0.000 OA
ATOM     18   O  A00 X   1      43.397  43.089  64.3370  0.00  0.00     0.000 OA
ENDBRANCH 5 16
BRANCH 1 19
ATOM     19  O4  A00 X   2      39.933  44.252  65.9550  0.00  0.00     0.000 O
BRANCH 19 23
ATOM     20  C1  A00 X   2      35.721  44.285  65.1630  0.00  0.00     0.000 C
ATOM     21  C2  A00 X   2      36.316  45.499  65.9180  0.00  0.00     0.000 C
ATOM     22  C3  A00 X   2      37.849  45.555  65.7460  0.00  0.00     0.000 C
ATOM     23  C4  A00 X   2      38.492  44.214  66.1650  0.00  0.00     0.000 C
ATOM     24  C5  A00 X   2      37.801  43.083  65.3560  0.00  0.00     0.000 C
ATOM     25  O5  A00 X   2      36.382  43.091  65.6610  0.00  0.00     0.000 O
ATOM     26   O  A00 X   2      38.344  46.734  66.4050  0.00  0.00     0.000 O
ATOM     28  HD  A00 X   2      37.921  46.561  67.1410  0.00  0.00     0.000 HD
BRANCH 21 30
ATOM     28   N  A00 X   2      35.012  45.608  66.5790  0.00  0.00     0.000 N
ATOM     30  HD  A00 X   2      35.451  46.330  66.7700  0.00  0.00     0.000 HD
ATOM     30   O  A00 X   2      34.693  47.839  67.1930  0.00  0.00     0.000 OA
ATOM     31   S  A00 X   2      34.869  46.577  67.8190  0.00  0.00     0.000 S
ATOM     32   O  A00 X   2      33.719  46.078  68.5080  0.00  0.00     0.000 OA
ATOM     33   O  A00 X   2      36.043  46.410  68.6240  0.00  0.00     0.000 OA
ENDBRANCH 21 30
BRANCH 24 34
ATOM     34   C  A00 X   2      38.417  41.665  65.4190  0.00  0.00     0.000 C
ATOM     35   O  A00 X   2      36.632  38.715  66.5880  0.00  0.00     0.000 OA
ATOM     36   O  A00 X   2      37.621  40.786  66.2380  0.00  0.00     0.000 O
ATOM     37   O  A00 X   2      35.871  40.113  64.8390  0.00  0.00     0.000 OA
ATOM     38   S  A00 X   2      37.010  39.544  65.4910  0.00  0.00     0.000 S
ATOM     39   O  A00 X   2      38.053  39.016  64.6630  0.00  0.00     0.000 OA
ENDBRANCH 24 34
BRANCH 20 40
ATOM     40  O4  A00 X   3      36.061  44.482  63.7830  0.00  0.00     0.000 O
BRANCH 40 44
ATOM     41  C1  A00 X   3      37.174  43.638  60.4400  0.00  0.00     0.000 C
ATOM     42  C2  A00 X   3      36.559  44.995  60.8470  0.00  0.00     0.000 C
ATOM     43  C3  A00 X   3      35.224  44.793  61.6100  0.00  0.00     0.000 C
ATOM     44  C4  A00 X   3      35.299  43.801  62.7640  0.00  0.00     0.000 C
ATOM     45  C5  A00 X   3      35.922  42.463  62.2760  0.00  0.00     0.000 C
ATOM     46  O5  A00 X   3      37.173  42.702  61.5530  0.00  0.00     0.000 O
ATOM     47   O  A00 X   3      34.521  45.983  61.9600  0.00  0.00     0.000 O
ATOM     49  HD  A00 X   3      34.363  45.541  62.6880  0.00  0.00     0.000 HD
BRANCH 42 49
ATOM     49   O  A00 X   3      37.537  45.675  61.6640  0.00  0.00     0.000 O
ATOM     50   O  A00 X   3      37.677  47.768  62.8170  0.00  0.00     0.000 OA
ATOM     51   O  A00 X   3      36.719  47.718  60.6570  0.00  0.00     0.000 OA
ATOM     52   O  A00 X   3      39.035  47.300  60.8720  0.00  0.00     0.000 OA
ATOM     53   S  A00 X   3      37.765  47.206  61.5060  0.00  0.00     0.000 S
ENDBRANCH 42 49
BRANCH 45 54
ATOM     54   C  A00 X   3      34.915  41.625  61.4790  0.00  0.00     0.000 C
ATOM     55   O  A00 X   3      33.796  42.043  61.2630  0.00  0.00     0.000 OA
ATOM     56   O  A00 X   3      35.220  40.524  61.0480  0.00  0.00     0.000 OA
ENDBRANCH 45 54
BRANCH 41 57
ATOM     57  O4  A00 X   4      36.570  43.118  59.2350  0.00  0.00     0.000 O
BRANCH 57 61
ATOM     58  C1  A00 X   4      37.755  39.988  56.5080  0.00  0.00     0.000 C
ATOM     59  C2  A00 X   4      36.760  39.644  57.6440  0.00  0.00     0.000 C
ATOM     60  C3  A00 X   4      36.140  40.887  58.3150  0.00  0.00     0.000 C
ATOM     61  C4  A00 X   4      37.213  41.934  58.6820  0.00  0.00     0.000 C
ATOM     62  C5  A00 X   4      37.946  42.288  57.3640  0.00  0.00     0.000 C
ATOM     63  O5  A00 X   4      38.609  41.103  56.8550  0.00  0.00     0.000 O
BRANCH 59 66
ATOM     64   N  A00 X   4      36.012  38.710  58.5050  0.00  0.00     0.000 N
ATOM     66  HD  A00 X   4      36.211  38.696  59.3480  0.00  0.00     0.000 HD
ATOM     66   O  A00 X   4      37.189  36.917  57.4090  0.00  0.00     0.000 OA
ATOM     67   S  A00 X   4      35.950  37.170  58.0760  0.00  0.00     0.000 S
ATOM     68   O  A00 X   4      35.803  36.550  59.3610  0.00  0.00     0.000 OA
ATOM     69   O  A00 X   4      34.753  37.175  57.2850  0.00  0.00     0.000 OA
ENDBRANCH 59 66
BRANCH 62 70
ATOM     70   C  A00 X   4      38.996  43.415  57.5080  0.00  0.00     0.000 C
ATOM     71   O  A00 X   4      42.380  43.205  58.7780  0.00  0.00     0.000 OA
ATOM     72   O  A00 X   4      40.638  44.703  59.2930  0.00  0.00     0.000 OA
ATOM     73   O  A00 X   4      40.274  42.837  57.8210  0.00  0.00     0.000 O
ATOM     74   O  A00 X   4      40.574  42.433  60.1770  0.00  0.00     0.000 OA
ATOM     75   S  A00 X   4      40.992  43.311  59.1320  0.00  0.00     0.000 S
ENDBRANCH 62 70
ENDBRANCH 57 61
ENDBRANCH 41 57
ENDBRANCH 40 44
ENDBRANCH 20 40
ENDBRANCH 19 23
ENDBRANCH 1 19
TORSDOF 14
ENDMDL
MODEL 15
REMARK VINA RESULT:      -6.7     11.073     19.460
ROOT
ATOM      1  C1  A00 X   1      35.061  37.531  56.5590  0.00  0.00     0.000 C
ATOM      2  C2  A00 X   1      36.248  36.868  55.8110  0.00  0.00     0.000 C
ATOM      3  C3  A00 X   1      36.076  35.355  55.4530  0.00  0.00     0.000 C
ATOM      4  C4  A00 X   1      34.931  34.618  56.1960  0.00  0.00     0.000 C
ATOM      5  C5  A00 X   1      34.545  35.318  57.4990  0.00  0.00     0.000 C
ATOM      6  O5  A00 X   1      34.067  36.619  57.0890  0.00  0.00     0.000 O
ATOM      7   O  A00 X   1      37.280  34.667  55.7830  0.00  0.00     0.000 O
ATOM      9  HD  A00 X   1      36.622  34.161  56.0280  0.00  0.00     0.000 HD
ATOM      9   O  A00 X   1      33.779  34.474  55.3660  0.00  0.00     0.000 O
ATOM     11  HD  A00 X   1      33.120  33.967  55.6120  0.00  0.00     0.000 HD
ENDROOT
BRANCH 2 11
ATOM     11   O  A00 X   1      36.474  37.614  54.5980  0.00  0.00     0.000 O
ATOM     12   O  A00 X   1      37.743  36.712  52.7710  0.00  0.00     0.000 OA
ATOM     13   O  A00 X   1      38.844  37.111  54.9030  0.00  0.00     0.000 OA
ATOM     14   O  A00 X   1      38.100  38.936  53.5710  0.00  0.00     0.000 OA
ATOM     15   S  A00 X   1      37.889  37.559  53.9270  0.00  0.00     0.000 S
ENDBRANCH 2 11
BRANCH 5 16
ATOM     16   C  A00 X   1      35.652  35.377  58.5560  0.00  0.00     0.000 C
ATOM     17   O  A00 X   1      35.553  36.183  59.4580  0.00  0.00     0.000 OA
ATOM     18   O  A00 X   1      36.620  34.642  58.5280  0.00  0.00     0.000 OA
ENDBRANCH 5 16
BRANCH 1 19
ATOM     19  O4  A00 X   2      35.491  38.484  57.5610  0.00  0.00     0.000 O
BRANCH 19 23
ATOM     20  C1  A00 X   2      38.623  41.410  57.5410  0.00  0.00     0.000 C
ATOM     21  C2  A00 X   2      37.367  41.702  56.6850  0.00  0.00     0.000 C
ATOM     22  C3  A00 X   2      36.185  40.811  57.1210  0.00  0.00     0.000 C
ATOM     23  C4  A00 X   2      36.592  39.320  57.1010  0.00  0.00     0.000 C
ATOM     24  C5  A00 X   2      37.866  39.164  57.9760  0.00  0.00     0.000 C
ATOM     25  O5  A00 X   2      38.919  39.993  57.4190  0.00  0.00     0.000 O
ATOM     26   O  A00 X   2      35.028  41.167  56.3460  0.00  0.00     0.000 O
ATOM     28  HD  A00 X   2      35.454  41.113  55.5930  0.00  0.00     0.000 HD
BRANCH 21 30
ATOM     28   N  A00 X   2      38.188  42.282  55.6170  0.00  0.00     0.000 N
ATOM     30  HD  A00 X   2      37.384  42.585  55.5080  0.00  0.00     0.000 HD
ATOM     30   O  A00 X   2      37.018  44.082  54.6960  0.00  0.00     0.000 OA
ATOM     31   S  A00 X   2      37.473  42.795  54.3050  0.00  0.00     0.000 S
ATOM     32   O  A00 X   2      38.517  42.795  53.3280  0.00  0.00     0.000 OA
ATOM     33   O  A00 X   2      36.472  41.829  53.9620  0.00  0.00     0.000 OA
ENDBRANCH 21 30
BRANCH 24 34
ATOM     34   C  A00 X   2      38.347  37.731  58.3080  0.00  0.00     0.000 C
ATOM     35   O  A00 X   2      41.798  36.614  58.0000  0.00  0.00     0.000 OA
ATOM     36   O  A00 X   2      39.658  37.481  57.7640  0.00  0.00     0.000 O
ATOM     37   O  A00 X   2      41.122  38.475  59.2930  0.00  0.00     0.000 OA
ATOM     38   S  A00 X   2      40.776  37.168  58.8250  0.00  0.00     0.000 S
ATOM     39   O  A00 X   2      40.196  36.258  59.7670  0.00  0.00     0.000 OA
ENDBRANCH 24 34
BRANCH 20 40
ATOM     40  O4  A00 X   3      38.248  41.707  58.8940  0.00  0.00     0.000 O
BRANCH 40 44
ATOM     41  C1  A00 X   3      37.755  42.285  62.4360  0.00  0.00     0.000 C
ATOM     42  C2  A00 X   3      37.833  43.395  61.3660  0.00  0.00     0.000 C
ATOM     43  C3  A00 X   3      39.093  43.222  60.4780  0.00  0.00     0.000 C
ATOM     44  C4  A00 X   3      39.275  41.823  59.9020  0.00  0.00     0.000 C
ATOM     45  C5  A00 X   3      39.188  40.765  61.0380  0.00  0.00     0.000 C
ATOM     46  O5  A00 X   3      37.991  40.973  61.8560  0.00  0.00     0.000 O
ATOM     47   O  A00 X   3      39.316  44.243  59.5070  0.00  0.00     0.000 O
ATOM     49  HD  A00 X   3      39.559  43.570  59.0200  0.00  0.00     0.000 HD
BRANCH 42 49
ATOM     49   O  A00 X   3      36.621  43.316  60.5840  0.00  0.00     0.000 O
ATOM     50   O  A00 X   3      35.733  44.410  58.6490  0.00  0.00     0.000 OA
ATOM     51   O  A00 X   3      36.856  45.705  60.2780  0.00  0.00     0.000 OA
ATOM     52   O  A00 X   3      34.773  44.741  60.8440  0.00  0.00     0.000 OA
ATOM     53   S  A00 X   3      35.945  44.611  60.0480  0.00  0.00     0.000 S
ENDBRANCH 42 49
BRANCH 45 54
ATOM     54   C  A00 X   3      40.480  40.710  61.8620  0.00  0.00     0.000 C
ATOM     55   O  A00 X   3      41.256  41.644  61.8590  0.00  0.00     0.000 OA
ATOM     56   O  A00 X   3      40.752  39.728  62.5340  0.00  0.00     0.000 OA
ENDBRANCH 45 54
BRANCH 41 57
ATOM     57  O4  A00 X   4      38.592  42.582  63.5760  0.00  0.00     0.000 O
BRANCH 57 61
ATOM     58  C1  A00 X   4      38.469  41.394  67.7250  0.00  0.00     0.000 C
ATOM     59  C2  A00 X   4      39.009  40.386  66.6810  0.00  0.00     0.000 C
ATOM     60  C3  A00 X   4      39.340  41.029  65.3190  0.00  0.00     0.000 C
ATOM     61  C4  A00 X   4      38.196  41.936  64.8190  0.00  0.00     0.000 C
ATOM     62  C5  A00 X   4      37.966  42.997  65.9250  0.00  0.00     0.000 C
ATOM     63  O5  A00 X   4      37.536  42.332  67.1410  0.00  0.00     0.000 O
BRANCH 59 66
ATOM     64   N  A00 X   4      37.782  40.249  67.4860  0.00  0.00     0.000 N
ATOM     66  HD  A00 X   4      37.665  40.812  68.1350  0.00  0.00     0.000 HD
ATOM     66   O  A00 X   4      38.718  38.222  68.3870  0.00  0.00     0.000 OA
ATOM     67   S  A00 X   4      37.447  38.820  68.1210  0.00  0.00     0.000 S
ATOM     68   O  A00 X   4      36.699  39.219  69.2770  0.00  0.00     0.000 OA
ATOM     69   O  A00 X   4      36.649  38.256  67.0700  0.00  0.00     0.000 OA
ENDBRANCH 59 66
BRANCH 62 70
ATOM     70   C  A00 X   4      36.920  44.076  65.5580  0.00  0.00     0.000 C
ATOM     71   O  A00 X   4      33.308  43.865  65.7010  0.00  0.00     0.000 OA
ATOM     72   O  A00 X   4      34.735  44.601  63.9790  0.00  0.00     0.000 OA
ATOM     73   O  A00 X   4      35.622  43.649  66.0010  0.00  0.00     0.000 O
ATOM     74   O  A00 X   4      34.509  42.215  64.4170  0.00  0.00     0.000 OA
ATOM     75   S  A00 X   4      34.478  43.545  64.9330  0.00  0.00     0.000 S
ENDBRANCH 62 70
ENDBRANCH 57 61
ENDBRANCH 41 57
ENDBRANCH 40 44
ENDBRANCH 20 40
ENDBRANCH 19 23
ENDBRANCH 1 19
TORSDOF 14
ENDMDL
MODEL 16
REMARK VINA RESULT:      -6.6     40.900     44.830
ROOT
ATOM      1  C1  A00 X   1      12.335  31.254  84.8770  0.00  0.00     0.000 C
ATOM      2  C2  A00 X   1      12.887  32.356  83.9340  0.00  0.00     0.000 C
ATOM      3  C3  A00 X   1      13.155  31.924  82.4550  0.00  0.00     0.000 C
ATOM      4  C4  A00 X   1      13.192  30.395  82.2010  0.00  0.00     0.000 C
ATOM      5  C5  A00 X   1      13.503  29.606  83.4730  0.00  0.00     0.000 C
ATOM      6  O5  A00 X   1      12.404  29.900  84.3650  0.00  0.00     0.000 O
ATOM      7   O  A00 X   1      14.425  32.432  82.0530  0.00  0.00     0.000 O
ATOM      9  HD  A00 X   1      14.362  31.626  81.7410  0.00  0.00     0.000 HD
ATOM      9   O  A00 X   1      11.968  29.930  81.6330  0.00  0.00     0.000 O
ATOM     11  HD  A00 X   1      11.905  29.125  81.3210  0.00  0.00     0.000 HD
ENDROOT
BRANCH 2 11
ATOM     11   O  A00 X   1      11.948  33.449  83.9410  0.00  0.00     0.000 O
ATOM     12   O  A00 X   1      12.421  35.537  82.8530  0.00  0.00     0.000 OA
ATOM     13   O  A00 X   1      13.793  34.839  84.7360  0.00  0.00     0.000 OA
ATOM     14   O  A00 X   1      11.518  35.451  85.0640  0.00  0.00     0.000 OA
ATOM     15   S  A00 X   1      12.484  34.908  84.1470  0.00  0.00     0.000 S
ENDBRANCH 2 11
BRANCH 5 16
ATOM     16   C  A00 X   1      14.879  29.882  84.0860  0.00  0.00     0.000 C
ATOM     17   O  A00 X   1      15.095  29.511  85.2220  0.00  0.00     0.000 OA
ATOM     18   O  A00 X   1      15.763  30.450  83.4750  0.00  0.00     0.000 OA
ENDBRANCH 5 16
BRANCH 1 19
ATOM     19  O4  A00 X   2      12.878  31.339  86.2180  0.00  0.00     0.000 O
BRANCH 19 23
ATOM     20  C1  A00 X   2       9.279  29.996  88.1180  0.00  0.00     0.000 C
ATOM     21  C2  A00 X   2       9.490  31.524  87.9850  0.00  0.00     0.000 C
ATOM     22  C3  A00 X   2      10.569  31.840  86.9290  0.00  0.00     0.000 C
ATOM     23  C4  A00 X   2      11.877  31.079  87.2430  0.00  0.00     0.000 C
ATOM     24  C5  A00 X   2      11.529  29.570  87.3680  0.00  0.00     0.000 C
ATOM     25  O5  A00 X   2      10.564  29.401  88.4390  0.00  0.00     0.000 O
ATOM     26   O  A00 X   2      10.679  33.268  86.7950  0.00  0.00     0.000 O
ATOM     28  HD  A00 X   2      10.752  33.393  87.6480  0.00  0.00     0.000 HD
BRANCH 21 30
ATOM     28   N  A00 X   2       8.820  31.696  89.2780  0.00  0.00     0.000 N
ATOM     30  HD  A00 X   2       8.833  32.474  88.8970  0.00  0.00     0.000 HD
ATOM     30   O  A00 X   2       7.686  33.739  89.2440  0.00  0.00     0.000 OA
ATOM     31   S  A00 X   2       8.778  33.138  89.9240  0.00  0.00     0.000 S
ATOM     32   O  A00 X   2       8.555  32.880  91.3140  0.00  0.00     0.000 OA
ATOM     33   O  A00 X   2      10.069  33.728  89.7290  0.00  0.00     0.000 OA
ENDBRANCH 21 30
BRANCH 24 34
ATOM     34   C  A00 X   2      12.698  28.561  87.4530  0.00  0.00     0.000 C
ATOM     35   O  A00 X   2      12.428  25.044  86.5490  0.00  0.00     0.000 OA
ATOM     36   O  A00 X   2      12.222  27.202  87.3790  0.00  0.00     0.000 O
ATOM     37   O  A00 X   2      11.883  26.828  85.0950  0.00  0.00     0.000 OA
ATOM     38   S  A00 X   2      12.742  26.376  86.1460  0.00  0.00     0.000 S
ATOM     39   O  A00 X   2      14.141  26.660  86.0290  0.00  0.00     0.000 OA
ENDBRANCH 24 34
BRANCH 20 40
ATOM     40  O4  A00 X   3       8.854  29.550  86.8220  0.00  0.00     0.000 O
BRANCH 40 44
ATOM     41  C1  A00 X   3       7.816  27.861  83.7890  0.00  0.00     0.000 C
ATOM     42  C2  A00 X   3       7.145  29.127  84.3660  0.00  0.00     0.000 C
ATOM     43  C3  A00 X   3       6.798  28.937  85.8650  0.00  0.00     0.000 C
ATOM     44  C4  A00 X   3       7.950  28.429  86.7220  0.00  0.00     0.000 C
ATOM     45  C5  A00 X   3       8.568  27.155  86.0810  0.00  0.00     0.000 C
ATOM     46  O5  A00 X   3       8.870  27.375  84.6650  0.00  0.00     0.000 O
ATOM     47   O  A00 X   3       6.094  30.013  86.4820  0.00  0.00     0.000 O
ATOM     49  HD  A00 X   3       6.612  29.821  87.1490  0.00  0.00     0.000 HD
BRANCH 42 49
ATOM     49   O  A00 X   3       8.068  30.221  84.1720  0.00  0.00     0.000 O
ATOM     50   O  A00 X   3       8.002  32.381  83.1420  0.00  0.00     0.000 OA
ATOM     51   O  A00 X   3       6.962  30.562  82.0460  0.00  0.00     0.000 OA
ATOM     52   O  A00 X   3       9.319  30.576  82.2170  0.00  0.00     0.000 OA
ATOM     53   S  A00 X   3       8.100  30.992  82.8200  0.00  0.00     0.000 S
ENDBRANCH 42 49
BRANCH 45 54
ATOM     54   C  A00 X   3       7.698  25.916  86.3260  0.00  0.00     0.000 C
ATOM     55   O  A00 X   3       6.546  26.032  86.6910  0.00  0.00     0.000 OA
ATOM     56   O  A00 X   3       8.148  24.793  86.1600  0.00  0.00     0.000 OA
ENDBRANCH 45 54
BRANCH 41 57
ATOM     57  O4  A00 X   4       6.841  26.857  83.4300  0.00  0.00     0.000 O
BRANCH 57 61
ATOM     58  C1  A00 X   4       6.816  23.700  80.4840  0.00  0.00     0.000 C
ATOM     59  C2  A00 X   4       7.866  23.644  81.6220  0.00  0.00     0.000 C
ATOM     60  C3  A00 X   4       7.556  24.600  82.7920  0.00  0.00     0.000 C
ATOM     61  C4  A00 X   4       7.206  26.019  82.2960  0.00  0.00     0.000 C
ATOM     62  C5  A00 X   4       6.000  25.860  81.3380  0.00  0.00     0.000 C
ATOM     63  O5  A00 X   4       6.398  25.055  80.1990  0.00  0.00     0.000 O
BRANCH 59 66
ATOM     64   N  A00 X   4       9.232  24.024  81.2160  0.00  0.00     0.000 N
ATOM     66  HD  A00 X   4       9.313  24.605  80.5790  0.00  0.00     0.000 HD
ATOM     66   O  A00 X   4       9.458  21.818  80.2770  0.00  0.00     0.000 OA
ATOM     67   S  A00 X   4      10.261  22.859  80.8380  0.00  0.00     0.000 S
ATOM     68   O  A00 X   4      11.107  23.552  79.9120  0.00  0.00     0.000 OA
ATOM     69   O  A00 X   4      10.860  22.624  82.1210  0.00  0.00     0.000 OA
ENDBRANCH 59 66
BRANCH 62 70
ATOM     70   C  A00 X   4       5.426  27.200  80.8160  0.00  0.00     0.000 C
ATOM     71   O  A00 X   4       3.792  27.883  77.6590  0.00  0.00     0.000 OA
ATOM     72   O  A00 X   4       5.545  29.010  78.7540  0.00  0.00     0.000 OA
ATOM     73   O  A00 X   4       4.653  26.955  79.6300  0.00  0.00     0.000 O
ATOM     74   O  A00 X   4       5.992  26.896  77.6270  0.00  0.00     0.000 OA
ATOM     75   S  A00 X   4       5.055  27.720  78.3210  0.00  0.00     0.000 S
ENDBRANCH 62 70
ENDBRANCH 57 61
ENDBRANCH 41 57
ENDBRANCH 40 44
ENDBRANCH 20 40
ENDBRANCH 19 23
ENDBRANCH 1 19
TORSDOF 14
ENDMDL
MODEL 17
REMARK VINA RESULT:      -6.6     16.883     22.162
ROOT
ATOM      1  C1  A00 X   1      38.172  40.735  63.0670  0.00  0.00     0.000 C
ATOM      2  C2  A00 X   1      37.426  40.165  61.8310  0.00  0.00     0.000 C
ATOM      3  C3  A00 X   1      36.730  41.216  60.9040  0.00  0.00     0.000 C
ATOM      4  C4  A00 X   1      36.554  42.631  61.5130  0.00  0.00     0.000 C
ATOM      5  C5  A00 X   1      36.581  42.610  63.0410  0.00  0.00     0.000 C
ATOM      6  O5  A00 X   1      37.900  42.124  63.3780  0.00  0.00     0.000 O
ATOM      7   O  A00 X   1      35.423  40.748  60.5830  0.00  0.00     0.000 O
ATOM      9  HD  A00 X   1      35.358  41.597  60.7400  0.00  0.00     0.000 HD
ATOM      9   O  A00 X   1      37.544  43.536  61.0250  0.00  0.00     0.000 O
ATOM     11  HD  A00 X   1      37.479  44.385  61.1820  0.00  0.00     0.000 HD
ENDROOT
BRANCH 2 11
ATOM     11   O  A00 X   1      38.377  39.411  61.0540  0.00  0.00     0.000 O
ATOM     12   O  A00 X   1      37.849  38.574  58.8660  0.00  0.00     0.000 OA
ATOM     13   O  A00 X   1      36.615  37.740  60.7890  0.00  0.00     0.000 OA
ATOM     14   O  A00 X   1      38.916  37.206  60.5100  0.00  0.00     0.000 OA
ATOM     15   S  A00 X   1      37.877  38.164  60.2470  0.00  0.00     0.000 S
ENDBRANCH 2 11
BRANCH 5 16
ATOM     16   C  A00 X   1      35.449  41.815  63.6990  0.00  0.00     0.000 C
ATOM     17   O  A00 X   1      34.479  41.523  63.0290  0.00  0.00     0.000 OA
ATOM     18   O  A00 X   1      35.490  41.461  64.8600  0.00  0.00     0.000 OA
ENDBRANCH 5 16
BRANCH 1 19
ATOM     19  O4  A00 X   2      38.037  39.895  64.2400  0.00  0.00     0.000 O
BRANCH 19 23
ATOM     20  C1  A00 X   2      40.707  39.143  67.5060  0.00  0.00     0.000 C
ATOM     21  C2  A00 X   2      39.898  40.463  67.5340  0.00  0.00     0.000 C
ATOM     22  C3  A00 X   2      38.701  40.394  66.5630  0.00  0.00     0.000 C
ATOM     23  C4  A00 X   2      39.174  40.009  65.1430  0.00  0.00     0.000 C
ATOM     24  C5  A00 X   2      39.983  38.688  65.2540  0.00  0.00     0.000 C
ATOM     25  O5  A00 X   2      41.117  38.906  66.1330  0.00  0.00     0.000 O
ATOM     26   O  A00 X   2      37.945  41.611  66.6760  0.00  0.00     0.000 O
ATOM     28  HD  A00 X   2      38.645  42.113  66.5840  0.00  0.00     0.000 HD
BRANCH 21 30
ATOM     28   N  A00 X   2      38.977  41.328  68.2770  0.00  0.00     0.000 N
ATOM     30  HD  A00 X   2      39.751  41.397  68.6610  0.00  0.00     0.000 HD
ATOM     30   O  A00 X   2      40.247  42.783  69.5910  0.00  0.00     0.000 OA
ATOM     31   S  A00 X   2      39.333  41.711  69.7690  0.00  0.00     0.000 S
ATOM     32   O  A00 X   2      38.072  42.080  70.3340  0.00  0.00     0.000 OA
ATOM     33   O  A00 X   2      39.835  40.528  70.4010  0.00  0.00     0.000 OA
ENDBRANCH 21 30
BRANCH 24 34
ATOM     34   C  A00 X   2      40.374  37.965  63.9430  0.00  0.00     0.000 C
ATOM     35   O  A00 X   2      43.749  36.845  63.1600  0.00  0.00     0.000 OA
ATOM     36   O  A00 X   2      41.803  37.962  63.7540  0.00  0.00     0.000 O
ATOM     37   O  A00 X   2      42.566  36.215  65.1090  0.00  0.00     0.000 OA
ATOM     38   S  A00 X   2      42.473  36.540  63.7180  0.00  0.00     0.000 S
ATOM     39   O  A00 X   2      41.633  35.718  62.9000  0.00  0.00     0.000 OA
ENDBRANCH 24 34
BRANCH 20 40
ATOM     40  O4  A00 X   3      39.791  38.118  67.9170  0.00  0.00     0.000 O
BRANCH 40 44
ATOM     41  C1  A00 X   3      38.007  35.005  68.4160  0.00  0.00     0.000 C
ATOM     42  C2  A00 X   3      37.971  36.205  69.3870  0.00  0.00     0.000 C
ATOM     43  C3  A00 X   3      39.405  36.681  69.7350  0.00  0.00     0.000 C
ATOM     44  C4  A00 X   3      40.305  36.915  68.5290  0.00  0.00     0.000 C
ATOM     45  C5  A00 X   3      40.293  35.665  67.6050  0.00  0.00     0.000 C
ATOM     46  O5  A00 X   3      38.921  35.245  67.3110  0.00  0.00     0.000 O
ATOM     47   O  A00 X   3      39.497  37.732  70.6950  0.00  0.00     0.000 O
ATOM     49  HD  A00 X   3      40.131  38.003  70.1710  0.00  0.00     0.000 HD
BRANCH 42 49
ATOM     49   O  A00 X   3      37.211  37.249  68.7400  0.00  0.00     0.000 O
ATOM     50   O  A00 X   3      36.598  39.509  69.2400  0.00  0.00     0.000 OA
ATOM     51   O  A00 X   3      36.515  37.896  70.9660  0.00  0.00     0.000 OA
ATOM     52   O  A00 X   3      34.958  37.732  69.1950  0.00  0.00     0.000 OA
ATOM     53   S  A00 X   3      36.261  38.160  69.5720  0.00  0.00     0.000 S
ENDBRANCH 42 49
BRANCH 45 54
ATOM     54   C  A00 X   3      41.162  34.534  68.1680  0.00  0.00     0.000 C
ATOM     55   O  A00 X   3      41.407  33.550  67.5000  0.00  0.00     0.000 OA
ATOM     56   O  A00 X   3      41.621  34.602  69.2980  0.00  0.00     0.000 OA
ENDBRANCH 45 54
BRANCH 41 57
ATOM     57  O4  A00 X   4      38.244  33.761  69.1140  0.00  0.00     0.000 O
BRANCH 57 61
ATOM     58  C1  A00 X   4      37.013  29.703  68.3050  0.00  0.00     0.000 C
ATOM     59  C2  A00 X   4      37.724  30.500  67.1820  0.00  0.00     0.000 C
ATOM     60  C3  A00 X   4      38.427  31.777  67.6860  0.00  0.00     0.000 C
ATOM     61  C4  A00 X   4      37.508  32.615  68.6000  0.00  0.00     0.000 C
ATOM     62  C5  A00 X   4      37.085  31.684  69.7640  0.00  0.00     0.000 C
ATOM     63  O5  A00 X   4      36.322  30.571  69.2320  0.00  0.00     0.000 O
BRANCH 59 66
ATOM     64   N  A00 X   4      36.440  30.744  66.5020  0.00  0.00     0.000 N
ATOM     66  HD  A00 X   4      35.715  30.621  66.9590  0.00  0.00     0.000 HD
ATOM     66   O  A00 X   4      36.870  28.768  65.1950  0.00  0.00     0.000 OA
ATOM     67   S  A00 X   4      36.171  30.011  65.1060  0.00  0.00     0.000 S
ATOM     68   O  A00 X   4      34.740  29.918  65.1340  0.00  0.00     0.000 OA
ATOM     69   O  A00 X   4      36.678  31.001  64.1980  0.00  0.00     0.000 OA
ENDBRANCH 59 66
BRANCH 62 70
ATOM     70   C  A00 X   4      36.240  32.382  70.8560  0.00  0.00     0.000 C
ATOM     71   O  A00 X   4      36.987  32.795  74.3740  0.00  0.00     0.000 OA
ATOM     72   O  A00 X   4      35.040  32.022  73.3000  0.00  0.00     0.000 OA
ATOM     73   O  A00 X   4      37.030  32.527  72.0470  0.00  0.00     0.000 O
ATOM     74   O  A00 X   4      36.990  30.568  73.4490  0.00  0.00     0.000 OA
ATOM     75   S  A00 X   4      36.479  31.899  73.3740  0.00  0.00     0.000 S
ENDBRANCH 62 70
ENDBRANCH 57 61
ENDBRANCH 41 57
ENDBRANCH 40 44
ENDBRANCH 20 40
ENDBRANCH 19 23
ENDBRANCH 1 19
TORSDOF 14
ENDMDL
MODEL 18
REMARK VINA RESULT:      -6.4     15.421     22.313
ROOT
ATOM      1  C1  A00 X   1      39.884  44.622  67.9900  0.00  0.00     0.000 C
ATOM      2  C2  A00 X   1      39.121  44.015  69.1970  0.00  0.00     0.000 C
ATOM      3  C3  A00 X   1      40.003  43.550  70.4040  0.00  0.00     0.000 C
ATOM      4  C4  A00 X   1      41.518  43.410  70.1090  0.00  0.00     0.000 C
ATOM      5  C5  A00 X   1      41.802  43.217  68.6200  0.00  0.00     0.000 C
ATOM      6  O5  A00 X   1      41.320  44.428  67.9950  0.00  0.00     0.000 O
ATOM      7   O  A00 X   1      39.553  42.267  70.8320  0.00  0.00     0.000 O
ATOM      9  HD  A00 X   1      40.419  42.253  70.8510  0.00  0.00     0.000 HD
ATOM      9   O  A00 X   1      42.251  44.533  70.5980  0.00  0.00     0.000 O
ATOM     11  HD  A00 X   1      43.117  44.520  70.6170  0.00  0.00     0.000 HD
ENDROOT
BRANCH 2 11
ATOM     11   O  A00 X   1      38.175  44.999  69.6590  0.00  0.00     0.000 O
ATOM     12   O  A00 X   1      37.065  44.797  71.7790  0.00  0.00     0.000 OA
ATOM     13   O  A00 X   1      36.648  43.134  70.0540  0.00  0.00     0.000 OA
ATOM     14   O  A00 X   1      35.873  45.367  69.7870  0.00  0.00     0.000 OA
ATOM     15   S  A00 X   1      36.870  44.516  70.3790  0.00  0.00     0.000 S
ENDBRANCH 2 11
BRANCH 5 16
ATOM     16   C  A00 X   1      41.218  41.939  68.0090  0.00  0.00     0.000 C
ATOM     17   O  A00 X   1      41.221  41.818  66.8020  0.00  0.00     0.000 OA
ATOM     18   O  A00 X   1      40.761  41.042  68.6890  0.00  0.00     0.000 OA
ENDBRANCH 5 16
BRANCH 1 19
ATOM     19  O4  A00 X   2      39.305  44.250  66.7150  0.00  0.00     0.000 O
BRANCH 19 23
ATOM     20  C1  A00 X   2      35.762  45.603  64.7210  0.00  0.00     0.000 C
ATOM     21  C2  A00 X   2      36.800  46.673  65.1360  0.00  0.00     0.000 C
ATOM     22  C3  A00 X   2      38.169  46.024  65.4320  0.00  0.00     0.000 C
ATOM     23  C4  A00 X   2      38.021  44.894  66.4750  0.00  0.00     0.000 C
ATOM     24  C5  A00 X   2      36.945  43.903  65.9530  0.00  0.00     0.000 C
ATOM     25  O5  A00 X   2      35.693  44.619  65.7870  0.00  0.00     0.000 O
ATOM     26   O  A00 X   2      39.113  47.062  65.7450  0.00  0.00     0.000 O
ATOM     28  HD  A00 X   2      38.590  47.431  66.3280  0.00  0.00     0.000 HD
BRANCH 21 30
ATOM     28   N  A00 X   2      35.689  47.595  65.3880  0.00  0.00     0.000 N
ATOM     30  HD  A00 X   2      36.410  48.074  65.3550  0.00  0.00     0.000 HD
ATOM     30   O  A00 X   2      36.428  49.765  64.9350  0.00  0.00     0.000 OA
ATOM     31   S  A00 X   2      36.001  48.996  66.0500  0.00  0.00     0.000 S
ATOM     32   O  A00 X   2      34.747  49.392  66.6120  0.00  0.00     0.000 OA
ATOM     33   O  A00 X   2      36.962  48.769  67.0880  0.00  0.00     0.000 OA
ENDBRANCH 21 30
BRANCH 24 34
ATOM     34   C  A00 X   2      36.770  42.561  66.7010  0.00  0.00     0.000 C
ATOM     35   O  A00 X   2      36.107  39.380  65.0570  0.00  0.00     0.000 OA
ATOM     36   O  A00 X   2      36.176  41.561  65.8490  0.00  0.00     0.000 O
ATOM     37   O  A00 X   2      37.955  40.767  64.5550  0.00  0.00     0.000 OA
ATOM     38   S  A00 X   2      37.069  40.296  65.5750  0.00  0.00     0.000 S
ATOM     39   O  A00 X   2      37.643  39.926  66.8340  0.00  0.00     0.000 OA
ENDBRANCH 24 34
BRANCH 20 40
ATOM     40  O4  A00 X   3      36.289  44.990  63.5350  0.00  0.00     0.000 O
BRANCH 40 44
ATOM     41  C1  A00 X   3      36.971  43.650  60.2390  0.00  0.00     0.000 C
ATOM     42  C2  A00 X   3      36.277  45.002  60.5140  0.00  0.00     0.000 C
ATOM     43  C3  A00 X   3      35.104  44.831  61.5130  0.00  0.00     0.000 C
ATOM     44  C4  A00 X   3      35.462  44.074  62.7860  0.00  0.00     0.000 C
ATOM     45  C5  A00 X   3      36.149  42.727  62.4290  0.00  0.00     0.000 C
ATOM     46  O5  A00 X   3      37.242  42.934  61.4760  0.00  0.00     0.000 O
ATOM     47   O  A00 X   3      34.333  46.002  61.7750  0.00  0.00     0.000 O
ATOM     49  HD  A00 X   3      34.337  45.688  62.5820  0.00  0.00     0.000 HD
BRANCH 42 49
ATOM     49   O  A00 X   3      37.285  45.898  61.0310  0.00  0.00     0.000 O
ATOM     50   O  A00 X   3      37.349  48.148  61.8450  0.00  0.00     0.000 OA
ATOM     51   O  A00 X   3      36.045  47.663  59.9330  0.00  0.00     0.000 OA
ATOM     52   O  A00 X   3      38.398  47.526  59.7570  0.00  0.00     0.000 OA
ATOM     53   S  A00 X   3      37.281  47.401  60.6280  0.00  0.00     0.000 S
ENDBRANCH 42 49
BRANCH 45 54
ATOM     54   C  A00 X   3      35.133  41.677  61.9620  0.00  0.00     0.000 C
ATOM     55   O  A00 X   3      35.479  40.533  61.7480  0.00  0.00     0.000 OA
ATOM     56   O  A00 X   3      33.960  41.973  61.7960  0.00  0.00     0.000 OA
ENDBRANCH 45 54
BRANCH 41 57
ATOM     57  O4  A00 X   4      36.254  42.872  59.2560  0.00  0.00     0.000 O
BRANCH 57 61
ATOM     58  C1  A00 X   4      37.709  39.784  56.6120  0.00  0.00     0.000 C
ATOM     59  C2  A00 X   4      36.656  39.407  57.6830  0.00  0.00     0.000 C
ATOM     60  C3  A00 X   4      35.956  40.628  58.3140  0.00  0.00     0.000 C
ATOM     61  C4  A00 X   4      36.968  41.710  58.7460  0.00  0.00     0.000 C
ATOM     62  C5  A00 X   4      37.770  42.089  57.4760  0.00  0.00     0.000 C
ATOM     63  O5  A00 X   4      38.502  40.926  57.0100  0.00  0.00     0.000 O
BRANCH 59 66
ATOM     64   N  A00 X   4      37.217  38.683  58.8390  0.00  0.00     0.000 N
ATOM     66  HD  A00 X   4      38.036  38.855  59.0600  0.00  0.00     0.000 HD
ATOM     66   O  A00 X   4      37.189  36.695  57.4790  0.00  0.00     0.000 OA
ATOM     67   S  A00 X   4      37.118  37.086  58.8520  0.00  0.00     0.000 S
ATOM     68   O  A00 X   4      38.267  36.763  59.6460  0.00  0.00     0.000 OA
ATOM     69   O  A00 X   4      35.866  36.916  59.5330  0.00  0.00     0.000 OA
ENDBRANCH 59 66
BRANCH 62 70
ATOM     70   C  A00 X   4      38.772  43.250  57.6840  0.00  0.00     0.000 C
ATOM     71   O  A00 X   4      42.127  43.127  59.0380  0.00  0.00     0.000 OA
ATOM     72   O  A00 X   4      40.315  44.540  59.5530  0.00  0.00     0.000 OA
ATOM     73   O  A00 X   4      40.062  42.711  58.0120  0.00  0.00     0.000 O
ATOM     74   O  A00 X   4      40.317  42.241  60.3620  0.00  0.00     0.000 OA
ATOM     75   S  A00 X   4      40.727  43.168  59.3570  0.00  0.00     0.000 S
ENDBRANCH 62 70
ENDBRANCH 57 61
ENDBRANCH 41 57
ENDBRANCH 40 44
ENDBRANCH 20 40
ENDBRANCH 19 23
ENDBRANCH 1 19
TORSDOF 14
ENDMDL
MODEL 19
REMARK VINA RESULT:      -6.2     40.416     44.719
ROOT
ATOM      1  C1  A00 X   1      16.775  32.276  85.4630  0.00  0.00     0.000 C
ATOM      2  C2  A00 X   1      18.040  33.175  85.5010  0.00  0.00     0.000 C
ATOM      3  C3  A00 X   1      17.946  34.456  86.3940  0.00  0.00     0.000 C
ATOM      4  C4  A00 X   1      16.515  34.865  86.8280  0.00  0.00     0.000 C
ATOM      5  C5  A00 X   1      15.445  34.299  85.8950  0.00  0.00     0.000 C
ATOM      6  O5  A00 X   1      15.572  32.865  86.0170  0.00  0.00     0.000 O
ATOM      7   O  A00 X   1      18.480  35.560  85.6670  0.00  0.00     0.000 O
ATOM      9  HD  A00 X   1      17.770  35.842  86.0750  0.00  0.00     0.000 HD
ATOM      9   O  A00 X   1      16.243  34.466  88.1710  0.00  0.00     0.000 O
ATOM     11  HD  A00 X   1      15.533  34.748  88.5790  0.00  0.00     0.000 HD
ENDROOT
BRANCH 2 11
ATOM     11   O  A00 X   1      19.140  32.364  85.9580  0.00  0.00     0.000 O
ATOM     12   O  A00 X   1      21.411  32.841  85.3420  0.00  0.00     0.000 OA
ATOM     13   O  A00 X   1      19.815  32.217  83.6150  0.00  0.00     0.000 OA
ATOM     14   O  A00 X   1      20.521  30.625  85.2360  0.00  0.00     0.000 OA
ATOM     15   S  A00 X   1      20.294  32.017  84.9550  0.00  0.00     0.000 S
ENDBRANCH 2 11
BRANCH 5 16
ATOM     16   C  A00 X   1      15.517  34.800  84.4480  0.00  0.00     0.000 C
ATOM     17   O  A00 X   1      14.764  34.317  83.6280  0.00  0.00     0.000 OA
ATOM     18   O  A00 X   1      16.293  35.666  84.0960  0.00  0.00     0.000 OA
ENDBRANCH 5 16
BRANCH 1 19
ATOM     19  O4  A00 X   2      16.530  31.708  84.1530  0.00  0.00     0.000 O
BRANCH 19 23
ATOM     20  C1  A00 X   2      14.077  28.460  85.4930  0.00  0.00     0.000 C
ATOM     21  C2  A00 X   2      15.611  28.293  85.6120  0.00  0.00     0.000 C
ATOM     22  C3  A00 X   2      16.322  29.658  85.5110  0.00  0.00     0.000 C
ATOM     23  C4  A00 X   2      15.897  30.398  84.2220  0.00  0.00     0.000 C
ATOM     24  C5  A00 X   2      14.346  30.484  84.2130  0.00  0.00     0.000 C
ATOM     25  O5  A00 X   2      13.804  29.138  84.2380  0.00  0.00     0.000 O
ATOM     26   O  A00 X   2      17.734  29.458  85.6950  0.00  0.00     0.000 O
ATOM     28  HD  A00 X   2      17.771  28.822  85.1090  0.00  0.00     0.000 HD
BRANCH 21 30
ATOM     28   N  A00 X   2      15.535  26.884  85.2120  0.00  0.00     0.000 N
ATOM     30  HD  A00 X   2      16.284  26.984  85.6360  0.00  0.00     0.000 HD
ATOM     30   O  A00 X   2      17.111  25.689  86.4550  0.00  0.00     0.000 OA
ATOM     31   S  A00 X   2      16.875  26.053  85.1030  0.00  0.00     0.000 S
ATOM     32   O  A00 X   2      16.531  24.969  84.2360  0.00  0.00     0.000 OA
ATOM     33   O  A00 X   2      17.848  26.899  84.4790  0.00  0.00     0.000 OA
ENDBRANCH 21 30
BRANCH 24 34
ATOM     34   C  A00 X   2      13.674  31.378  83.1450  0.00  0.00     0.000 C
ATOM     35   O  A00 X   2      11.363  30.150  80.6140  0.00  0.00     0.000 OA
ATOM     36   O  A00 X   2      13.107  30.587  82.0820  0.00  0.00     0.000 O
ATOM     37   O  A00 X   2      11.064  29.840  82.9390  0.00  0.00     0.000 OA
ATOM     38   S  A00 X   2      11.549  30.710  81.9120  0.00  0.00     0.000 S
ATOM     39   O  A00 X   2      11.238  32.104  82.0220  0.00  0.00     0.000 OA
ENDBRANCH 24 34
BRANCH 20 40
ATOM     40  O4  A00 X   3      13.692  29.304  86.5880  0.00  0.00     0.000 O
BRANCH 40 44
ATOM     41  C1  A00 X   3      12.026  32.223  87.9400  0.00  0.00     0.000 C
ATOM     42  C2  A00 X   3      12.770  31.165  88.7830  0.00  0.00     0.000 C
ATOM     43  C3  A00 X   3      12.293  29.734  88.4250  0.00  0.00     0.000 C
ATOM     44  C4  A00 X   3      12.296  29.419  86.9350  0.00  0.00     0.000 C
ATOM     45  C5  A00 X   3      11.526  30.523  86.1560  0.00  0.00     0.000 C
ATOM     46  O5  A00 X   3      12.001  31.856  86.5320  0.00  0.00     0.000 O
ATOM     47   O  A00 X   3      12.851  28.678  89.2050  0.00  0.00     0.000 O
ATOM     49  HD  A00 X   3      12.857  28.269  88.4420  0.00  0.00     0.000 HD
BRANCH 42 49
ATOM     49   O  A00 X   3      14.181  31.332  88.5220  0.00  0.00     0.000 O
ATOM     50   O  A00 X   3      16.206  30.240  89.1830  0.00  0.00     0.000 OA
ATOM     51   O  A00 X   3      14.523  30.602  90.8040  0.00  0.00     0.000 OA
ATOM     52   O  A00 X   3      15.669  32.476  89.9320  0.00  0.00     0.000 OA
ATOM     53   S  A00 X   3      15.219  31.153  89.6680  0.00  0.00     0.000 S
ENDBRANCH 42 49
BRANCH 45 54
ATOM     54   C  A00 X   3      10.007  30.362  86.2970  0.00  0.00     0.000 C
ATOM     55   O  A00 X   3       9.251  30.939  85.5420  0.00  0.00     0.000 OA
ATOM     56   O  A00 X   3       9.532  29.653  87.1700  0.00  0.00     0.000 OA
ENDBRANCH 45 54
BRANCH 41 57
ATOM     57  O4  A00 X   4      10.724  32.525  88.4900  0.00  0.00     0.000 O
BRANCH 57 61
ATOM     58  C1  A00 X   4       8.252  36.064  88.4350  0.00  0.00     0.000 C
ATOM     59  C2  A00 X   4       8.552  35.348  87.0940  0.00  0.00     0.000 C
ATOM     60  C3  A00 X   4       9.125  33.928  87.2710  0.00  0.00     0.000 C
ATOM     61  C4  A00 X   4      10.276  33.897  88.2990  0.00  0.00     0.000 C
ATOM     62  C5  A00 X   4       9.695  34.461  89.6200  0.00  0.00     0.000 C
ATOM     63  O5  A00 X   4       9.291  35.838  89.4140  0.00  0.00     0.000 O
BRANCH 59 66
ATOM     64   N  A00 X   4       8.666  35.293  85.6260  0.00  0.00     0.000 N
ATOM     66  HD  A00 X   4       9.463  35.293  85.2870  0.00  0.00     0.000 HD
ATOM     66   O  A00 X   4       7.809  37.543  85.5750  0.00  0.00     0.000 OA
ATOM     67   S  A00 X   4       7.856  36.368  84.7620  0.00  0.00     0.000 S
ATOM     68   O  A00 X   4       8.694  36.453  83.6020  0.00  0.00     0.000 OA
ATOM     69   O  A00 X   4       6.630  35.651  84.5510  0.00  0.00     0.000 OA
ENDBRANCH 59 66
BRANCH 62 70
ATOM     70   C  A00 X   4      10.677  34.409  90.8150  0.00  0.00     0.000 C
ATOM     71   O  A00 X   4      13.723  36.299  91.3210  0.00  0.00     0.000 OA
ATOM     72   O  A00 X   4      13.300  33.991  91.5140  0.00  0.00     0.000 OA
ATOM     73   O  A00 X   4      11.607  35.500  90.7120  0.00  0.00     0.000 O
ATOM     74   O  A00 X   4      13.496  34.998  89.3040  0.00  0.00     0.000 OA
ATOM     75   S  A00 X   4      13.137  35.158  90.6760  0.00  0.00     0.000 S
ENDBRANCH 62 70
ENDBRANCH 57 61
ENDBRANCH 41 57
ENDBRANCH 40 44
ENDBRANCH 20 40
ENDBRANCH 19 23
ENDBRANCH 1 19
TORSDOF 14
ENDMDL
MODEL 20
REMARK VINA RESULT:      -6.0     22.669     27.749
ROOT
ATOM      1  C1  A00 X   1      20.153  48.147  31.8710  0.00  0.00     0.000 C
ATOM      2  C2  A00 X   1      19.476  49.109  30.8590  0.00  0.00     0.000 C
ATOM      3  C3  A00 X   1      17.949  48.880  30.6090  0.00  0.00     0.000 C
ATOM      4  C4  A00 X   1      17.387  47.523  31.1030  0.00  0.00     0.000 C
ATOM      5  C5  A00 X   1      18.478  46.461  31.2390  0.00  0.00     0.000 C
ATOM      6  O5  A00 X   1      19.374  46.983  32.2450  0.00  0.00     0.000 O
ATOM      7   O  A00 X   1      17.702  48.934  29.2060  0.00  0.00     0.000 O
ATOM      9  HD  A00 X   1      17.229  48.282  29.5230  0.00  0.00     0.000 HD
ATOM      9   O  A00 X   1      16.695  47.665  32.3430  0.00  0.00     0.000 O
ATOM     11  HD  A00 X   1      16.222  47.012  32.6610  0.00  0.00     0.000 HD
ENDROOT
BRANCH 2 11
ATOM     11   O  A00 X   1      19.678  50.455  31.3310  0.00  0.00     0.000 O
ATOM     12   O  A00 X   1      18.501  52.323  30.3860  0.00  0.00     0.000 OA
ATOM     13   O  A00 X   1      20.050  51.064  28.9950  0.00  0.00     0.000 OA
ATOM     14   O  A00 X   1      20.855  52.398  30.7930  0.00  0.00     0.000 OA
ATOM     15   S  A00 X   1      19.756  51.621  30.2870  0.00  0.00     0.000 S
ENDBRANCH 2 11
BRANCH 5 16
ATOM     16   C  A00 X   1      19.179  46.081  29.9310  0.00  0.00     0.000 C
ATOM     17   O  A00 X   1      18.613  46.307  28.8810  0.00  0.00     0.000 OA
ATOM     18   O  A00 X   1      20.281  45.570  29.9060  0.00  0.00     0.000 OA
ENDBRANCH 5 16
BRANCH 1 19
ATOM     19  O4  A00 X   2      21.499  47.779  31.4830  0.00  0.00     0.000 O
BRANCH 19 23
ATOM     20  C1  A00 X   2      25.107  50.084  31.2900  0.00  0.00     0.000 C
ATOM     21  C2  A00 X   2      24.340  50.068  32.6350  0.00  0.00     0.000 C
ATOM     22  C3  A00 X   2      23.344  48.891  32.6850  0.00  0.00     0.000 C
ATOM     23  C4  A00 X   2      22.405  48.920  31.4590  0.00  0.00     0.000 C
ATOM     24  C5  A00 X   2      23.291  48.951  30.1830  0.00  0.00     0.000 C
ATOM     25  O5  A00 X   2      24.124  50.139  30.2230  0.00  0.00     0.000 O
ATOM     26   O  A00 X   2      22.708  48.880  33.9750  0.00  0.00     0.000 O
ATOM     28  HD  A00 X   2      22.500  49.719  33.9360  0.00  0.00     0.000 HD
BRANCH 21 30
ATOM     28   N  A00 X   2      24.496  49.793  34.0660  0.00  0.00     0.000 N
ATOM     30  HD  A00 X   2      24.846  50.572  33.9210  0.00  0.00     0.000 HD
ATOM     30   O  A00 X   2      25.002  51.804  35.1430  0.00  0.00     0.000 OA
ATOM     31   S  A00 X   2      25.624  50.557  34.8670  0.00  0.00     0.000 S
ATOM     32   O  A00 X   2      25.849  49.728  36.0110  0.00  0.00     0.000 OA
ATOM     33   O  A00 X   2      26.790  50.584  34.0350  0.00  0.00     0.000 OA
ENDBRANCH 21 30
BRANCH 24 34
ATOM     34   C  A00 X   2      22.599  48.753  28.8140  0.00  0.00     0.000 C
ATOM     35   O  A00 X   2      23.763  46.437  26.2570  0.00  0.00     0.000 OA
ATOM     36   O  A00 X   2      23.460  48.059  27.8890  0.00  0.00     0.000 O
ATOM     37   O  A00 X   2      23.251  45.805  28.4770  0.00  0.00     0.000 OA
ATOM     38   S  A00 X   2      22.923  46.670  27.3850  0.00  0.00     0.000 S
ATOM     39   O  A00 X   2      21.536  46.858  27.0810  0.00  0.00     0.000 OA
ENDBRANCH 24 34
BRANCH 20 40
ATOM     40  O4  A00 X   3      25.810  48.834  31.2310  0.00  0.00     0.000 O
BRANCH 40 44
ATOM     41  C1  A00 X   3      27.227  45.775  29.9040  0.00  0.00     0.000 C
ATOM     42  C2  A00 X   3      27.555  46.368  31.2920  0.00  0.00     0.000 C
ATOM     43  C3  A00 X   3      27.948  47.863  31.1780  0.00  0.00     0.000 C
ATOM     44  C4  A00 X   3      26.971  48.716  30.3800  0.00  0.00     0.000 C
ATOM     45  C5  A00 X   3      26.696  48.059  28.9980  0.00  0.00     0.000 C
ATOM     46  O5  A00 X   3      26.338  46.648  29.1530  0.00  0.00     0.000 O
ATOM     47   O  A00 X   3      28.357  48.493  32.3910  0.00  0.00     0.000 O
ATOM     49  HD  A00 X   3      27.909  49.158  32.0640  0.00  0.00     0.000 HD
BRANCH 42 49
ATOM     49   O  A00 X   3      26.381  46.192  32.1150  0.00  0.00     0.000 O
ATOM     50   O  A00 X   3      25.739  46.734  34.3560  0.00  0.00     0.000 OA
ATOM     51   O  A00 X   3      27.918  45.906  33.9620  0.00  0.00     0.000 OA
ATOM     52   O  A00 X   3      26.086  44.446  33.6570  0.00  0.00     0.000 OA
ATOM     53   S  A00 X   3      26.523  45.798  33.6140  0.00  0.00     0.000 S
ENDBRANCH 42 49
BRANCH 45 54
ATOM     54   C  A00 X   3      27.856  48.285  28.0220  0.00  0.00     0.000 C
ATOM     55   O  A00 X   3      27.752  47.970  26.8540  0.00  0.00     0.000 OA
ATOM     56   O  A00 X   3      28.905  48.783  28.4010  0.00  0.00     0.000 OA
ENDBRANCH 45 54
BRANCH 41 57
ATOM     57  O4  A00 X   4      28.424  45.399  29.1880  0.00  0.00     0.000 O
BRANCH 57 61
ATOM     58  C1  A00 X   4      29.226  42.517  26.0750  0.00  0.00     0.000 C
ATOM     59  C2  A00 X   4      28.552  43.857  25.6880  0.00  0.00     0.000 C
ATOM     60  C3  A00 X   4      28.645  44.932  26.7910  0.00  0.00     0.000 C
ATOM     61  C4  A00 X   4      28.240  44.373  28.1720  0.00  0.00     0.000 C
ATOM     62  C5  A00 X   4      29.179  43.172  28.4470  0.00  0.00     0.000 C
ATOM     63  O5  A00 X   4      28.950  42.148  27.4460  0.00  0.00     0.000 O
BRANCH 59 66
ATOM     64   N  A00 X   4      27.131  43.515  25.5050  0.00  0.00     0.000 N
ATOM     66  HD  A00 X   4      26.831  42.815  25.9190  0.00  0.00     0.000 HD
ATOM     66   O  A00 X   4      27.675  42.894  23.2430  0.00  0.00     0.000 OA
ATOM     67   S  A00 X   4      26.572  43.375  24.0130  0.00  0.00     0.000 S
ATOM     68   O  A00 X   4      25.509  42.436  24.2220  0.00  0.00     0.000 OA
ATOM     69   O  A00 X   4      26.130  44.722  23.7810  0.00  0.00     0.000 OA
ENDBRANCH 59 66
BRANCH 62 70
ATOM     70   C  A00 X   4      29.000  42.538  29.8480  0.00  0.00     0.000 C
ATOM     71   O  A00 X   4      26.867  39.782  30.8270  0.00  0.00     0.000 OA
ATOM     72   O  A00 X   4      27.152  41.915  31.7810  0.00  0.00     0.000 OA
ATOM     73   O  A00 X   4      28.249  41.320  29.7250  0.00  0.00     0.000 O
ATOM     74   O  A00 X   4      25.866  41.678  29.7250  0.00  0.00     0.000 OA
ATOM     75   S  A00 X   4      26.922  41.190  30.5520  0.00  0.00     0.000 S
ENDBRANCH 62 70
ENDBRANCH 57 61
ENDBRANCH 41 57
ENDBRANCH 40 44
ENDBRANCH 20 40
ENDBRANCH 19 23
ENDBRANCH 1 19
TORSDOF 14
ENDMDL
MODEL 21
REMARK VINA RESULT:      -6.0     28.148     32.530
ROOT
ATOM      1  C1  A00 X   1      17.197  54.711  43.0490  0.00  0.00     0.000 C
ATOM      2  C2  A00 X   1      17.574  53.652  44.1190  0.00  0.00     0.000 C
ATOM      3  C3  A00 X   1      18.568  52.534  43.6590  0.00  0.00     0.000 C
ATOM      4  C4  A00 X   1      18.763  52.403  42.1270  0.00  0.00     0.000 C
ATOM      5  C5  A00 X   1      17.586  52.983  41.3430  0.00  0.00     0.000 C
ATOM      6  O5  A00 X   1      17.572  54.387  41.6870  0.00  0.00     0.000 O
ATOM      7   O  A00 X   1      18.082  51.274  44.1150  0.00  0.00     0.000 O
ATOM      9  HD  A00 X   1      18.375  51.158  43.3090  0.00  0.00     0.000 HD
ATOM      9   O  A00 X   1      19.978  53.019  41.7000  0.00  0.00     0.000 O
ATOM     11  HD  A00 X   1      20.271  52.903  40.8940  0.00  0.00     0.000 HD
ENDROOT
BRANCH 2 11
ATOM     11   O  A00 X   1      18.140  54.349  45.2450  0.00  0.00     0.000 O
ATOM     12   O  A00 X   1      19.592  56.242  44.9690  0.00  0.00     0.000 OA
ATOM     13   O  A00 X   1      20.304  54.066  44.1480  0.00  0.00     0.000 OA
ATOM     14   O  A00 X   1      20.115  54.470  46.4850  0.00  0.00     0.000 OA
ATOM     15   S  A00 X   1      19.635  54.816  45.1750  0.00  0.00     0.000 S
ENDBRANCH 2 11
BRANCH 5 16
ATOM     16   C  A00 X   1      16.244  52.282  41.5750  0.00  0.00     0.000 C
ATOM     17   O  A00 X   1      15.240  52.779  41.1080  0.00  0.00     0.000 OA
ATOM     18   O  A00 X   1      16.150  51.245  42.2010  0.00  0.00     0.000 OA
ENDBRANCH 5 16
BRANCH 1 19
ATOM     19  O4  A00 X   2      15.810  55.122  43.1310  0.00  0.00     0.000 O
BRANCH 19 23
ATOM     20  C1  A00 X   2      16.262  58.729  40.8620  0.00  0.00     0.000 C
ATOM     21  C2  A00 X   2      16.647  58.774  42.3600  0.00  0.00     0.000 C
ATOM     22  C3  A00 X   2      16.847  57.350  42.9200  0.00  0.00     0.000 C
ATOM     23  C4  A00 X   2      15.600  56.479  42.6470  0.00  0.00     0.000 C
ATOM     24  C5  A00 X   2      15.309  56.531  41.1220  0.00  0.00     0.000 C
ATOM     25  O5  A00 X   2      15.069  57.910  40.7380  0.00  0.00     0.000 O
ATOM     26   O  A00 X   2      17.269  57.448  44.2910  0.00  0.00     0.000 O
ATOM     28  HD  A00 X   2      16.628  57.991  44.5020  0.00  0.00     0.000 HD
BRANCH 21 30
ATOM     28   N  A00 X   2      16.149  60.152  42.4180  0.00  0.00     0.000 N
ATOM     30  HD  A00 X   2      16.640  60.033  43.1210  0.00  0.00     0.000 HD
ATOM     30   O  A00 X   2      17.438  61.327  43.9730  0.00  0.00     0.000 OA
ATOM     31   S  A00 X   2      16.098  60.882  43.8190  0.00  0.00     0.000 S
ATOM     32   O  A00 X   2      15.135  61.922  43.6250  0.00  0.00     0.000 OA
ATOM     33   O  A00 X   2      15.617  59.930  44.7750  0.00  0.00     0.000 OA
ENDBRANCH 21 30
BRANCH 24 34
ATOM     34   C  A00 X   2      14.249  55.559  40.5520  0.00  0.00     0.000 C
ATOM     35   O  A00 X   2      10.898  55.164  41.9200  0.00  0.00     0.000 OA
ATOM     36   O  A00 X   2      13.170  55.356  41.4860  0.00  0.00     0.000 O
ATOM     37   O  A00 X   2      11.800  57.232  41.2100  0.00  0.00     0.000 OA
ATOM     38   S  A00 X   2      11.753  55.819  40.9850  0.00  0.00     0.000 S
ATOM     39   O  A00 X   2      11.634  55.366  39.6320  0.00  0.00     0.000 OA
ENDBRANCH 24 34
BRANCH 20 40
ATOM     40  O4  A00 X   3      17.358  58.082  40.1990  0.00  0.00     0.000 O
BRANCH 40 44
ATOM     41  C1  A00 X   3      18.764  55.541  38.0340  0.00  0.00     0.000 C
ATOM     42  C2  A00 X   3      19.574  56.670  38.7070  0.00  0.00     0.000 C
ATOM     43  C3  A00 X   3      18.923  58.052  38.4460  0.00  0.00     0.000 C
ATOM     44  C4  A00 X   3      17.433  58.119  38.7570  0.00  0.00     0.000 C
ATOM     45  C5  A00 X   3      16.687  56.957  38.0420  0.00  0.00     0.000 C
ATOM     46  O5  A00 X   3      17.342  55.674  38.3070  0.00  0.00     0.000 O
ATOM     47   O  A00 X   3      19.635  59.181  38.9500  0.00  0.00     0.000 O
ATOM     49  HD  A00 X   3      18.836  59.459  39.1380  0.00  0.00     0.000 HD
BRANCH 42 49
ATOM     49   O  A00 X   3      19.627  56.368  40.1190  0.00  0.00     0.000 O
ATOM     50   O  A00 X   3      20.479  57.432  42.0870  0.00  0.00     0.000 OA
ATOM     51   O  A00 X   3      21.775  57.482  40.1110  0.00  0.00     0.000 OA
ATOM     52   O  A00 X   3      21.473  55.411  41.2080  0.00  0.00     0.000 OA
ATOM     53   S  A00 X   3      20.907  56.688  40.9440  0.00  0.00     0.000 S
ENDBRANCH 42 49
BRANCH 45 54
ATOM     54   C  A00 X   3      16.498  57.240  36.5470  0.00  0.00     0.000 C
ATOM     55   O  A00 X   3      17.105  58.141  36.0060  0.00  0.00     0.000 OA
ATOM     56   O  A00 X   3      15.732  56.566  35.8750  0.00  0.00     0.000 OA
ENDBRANCH 45 54
BRANCH 41 57
ATOM     57  O4  A00 X   4      19.083  55.420  36.6290  0.00  0.00     0.000 O
BRANCH 57 61
ATOM     58  C1  A00 X   4      18.925  52.123  33.8460  0.00  0.00     0.000 C
ATOM     59  C2  A00 X   4      17.634  52.940  34.1020  0.00  0.00     0.000 C
ATOM     60  C3  A00 X   4      17.888  54.284  34.8150  0.00  0.00     0.000 C
ATOM     61  C4  A00 X   4      18.808  54.116  36.0430  0.00  0.00     0.000 C
ATOM     62  C5  A00 X   4      20.119  53.475  35.5210  0.00  0.00     0.000 C
ATOM     63  O5  A00 X   4      19.825  52.163  34.9770  0.00  0.00     0.000 O
BRANCH 59 66
ATOM     64   N  A00 X   4      17.906  51.522  34.3980  0.00  0.00     0.000 N
ATOM     66  HD  A00 X   4      18.609  51.166  34.0390  0.00  0.00     0.000 HD
ATOM     66   O  A00 X   4      15.993  50.976  33.0410  0.00  0.00     0.000 OA
ATOM     67   S  A00 X   4      16.738  50.458  34.1460  0.00  0.00     0.000 S
ATOM     68   O  A00 X   4      17.513  49.284  33.8710  0.00  0.00     0.000 OA
ATOM     69   O  A00 X   4      16.111  50.461  35.4370  0.00  0.00     0.000 OA
ENDBRANCH 59 66
BRANCH 62 70
ATOM     70   C  A00 X   4      21.221  53.326  36.5970  0.00  0.00     0.000 C
ATOM     71   O  A00 X   4      21.803  50.571  38.8720  0.00  0.00     0.000 OA
ATOM     72   O  A00 X   4      21.666  52.887  39.2710  0.00  0.00     0.000 OA
ATOM     73   O  A00 X   4      21.224  51.976  37.0890  0.00  0.00     0.000 O
ATOM     74   O  A00 X   4      19.629  51.615  38.8590  0.00  0.00     0.000 OA
ATOM     75   S  A00 X   4      21.031  51.757  38.6300  0.00  0.00     0.000 S
ENDBRANCH 62 70
ENDBRANCH 57 61
ENDBRANCH 41 57
ENDBRANCH 40 44
ENDBRANCH 20 40
ENDBRANCH 19 23
ENDBRANCH 1 19
TORSDOF 14
ENDMDL
MODEL 22
REMARK VINA RESULT:      -5.9     40.432     44.154
ROOT
ATOM      1  C1  A00 X   1      16.753  32.206  88.7820  0.00  0.00     0.000 C
ATOM      2  C2  A00 X   1      16.742  31.840  90.2900  0.00  0.00     0.000 C
ATOM      3  C3  A00 X   1      15.423  32.166  91.0660  0.00  0.00     0.000 C
ATOM      4  C4  A00 X   1      14.445  33.130  90.3470  0.00  0.00     0.000 C
ATOM      5  C5  A00 X   1      15.151  33.997  89.3040  0.00  0.00     0.000 C
ATOM      6  O5  A00 X   1      15.669  33.057  88.3360  0.00  0.00     0.000 O
ATOM      7   O  A00 X   1      15.762  32.783  92.3050  0.00  0.00     0.000 O
ATOM      9  HD  A00 X   1      15.079  33.210  91.9860  0.00  0.00     0.000 HD
ATOM      9   O  A00 X   1      13.368  32.420  89.7350  0.00  0.00     0.000 O
ATOM     11  HD  A00 X   1      12.685  32.847  89.4160  0.00  0.00     0.000 HD
ENDROOT
BRANCH 2 11
ATOM     11   O  A00 X   1      17.016  30.430  90.4020  0.00  0.00     0.000 O
ATOM     12   O  A00 X   1      17.224  29.341  92.5320  0.00  0.00     0.000 OA
ATOM     13   O  A00 X   1      18.838  31.050  91.9060  0.00  0.00     0.000 OA
ATOM     14   O  A00 X   1      18.793  28.961  90.7690  0.00  0.00     0.000 OA
ATOM     15   S  A00 X   1      18.026  29.938  91.4940  0.00  0.00     0.000 S
ENDBRANCH 2 11
BRANCH 5 16
ATOM     16   C  A00 X   1      16.214  34.947  89.8640  0.00  0.00     0.000 C
ATOM     17   O  A00 X   1      16.208  35.190  91.0540  0.00  0.00     0.000 OA
ATOM     18   O  A00 X   1      17.064  35.460  89.1640  0.00  0.00     0.000 OA
ENDBRANCH 5 16
BRANCH 1 19
ATOM     19  O4  A00 X   2      18.037  32.708  88.3360  0.00  0.00     0.000 O
BRANCH 19 23
ATOM     20  C1  A00 X   2      17.826  30.736  84.5370  0.00  0.00     0.000 C
ATOM     21  C2  A00 X   2      18.668  30.061  85.6470  0.00  0.00     0.000 C
ATOM     22  C3  A00 X   2      18.305  30.629  87.0350  0.00  0.00     0.000 C
ATOM     23  C4  A00 X   2      18.428  32.170  87.0410  0.00  0.00     0.000 C
ATOM     24  C5  A00 X   2      17.558  32.720  85.8780  0.00  0.00     0.000 C
ATOM     25  O5  A00 X   2      18.046  32.169  84.6270  0.00  0.00     0.000 O
ATOM     26   O  A00 X   2      19.061  29.925  88.0340  0.00  0.00     0.000 O
ATOM     28  HD  A00 X   2      19.812  30.040  87.6190  0.00  0.00     0.000 HD
BRANCH 21 30
ATOM     28   N  A00 X   2      18.626  28.682  86.1450  0.00  0.00     0.000 N
ATOM     30  HD  A00 X   2      19.186  28.693  85.4830  0.00  0.00     0.000 HD
ATOM     30   O  A00 X   2      20.484  27.547  85.2960  0.00  0.00     0.000 OA
ATOM     31   S  A00 X   2      19.069  27.513  85.1770  0.00  0.00     0.000 S
ATOM     32   O  A00 X   2      18.444  26.355  85.7370  0.00  0.00     0.000 OA
ATOM     33   O  A00 X   2      18.519  27.800  83.8860  0.00  0.00     0.000 OA
ENDBRANCH 21 30
BRANCH 24 34
ATOM     34   C  A00 X   2      17.326  34.248  85.8060  0.00  0.00     0.000 C
ATOM     35   O  A00 X   2      19.968  36.691  85.2560  0.00  0.00     0.000 OA
ATOM     36   O  A00 X   2      18.565  34.972  85.9370  0.00  0.00     0.000 O
ATOM     37   O  A00 X   2      19.521  34.878  83.8040  0.00  0.00     0.000 OA
ATOM     38   S  A00 X   2      18.963  35.850  84.6940  0.00  0.00     0.000 S
ATOM     39   O  A00 X   2      17.771  36.525  84.2770  0.00  0.00     0.000 OA
ENDBRANCH 24 34
BRANCH 20 40
ATOM     40  O4  A00 X   3      16.458  30.440  84.8540  0.00  0.00     0.000 O
BRANCH 40 44
ATOM     41  C1  A00 X   3      12.861  30.490  85.2860  0.00  0.00     0.000 C
ATOM     42  C2  A00 X   3      13.723  29.210  85.2260  0.00  0.00     0.000 C
ATOM     43  C3  A00 X   3      14.648  29.221  83.9820  0.00  0.00     0.000 C
ATOM     44  C4  A00 X   3      15.462  30.498  83.8100  0.00  0.00     0.000 C
ATOM     45  C5  A00 X   3      14.527  31.738  83.8760  0.00  0.00     0.000 C
ATOM     46  O5  A00 X   3      13.665  31.681  85.0590  0.00  0.00     0.000 O
ATOM     47   O  A00 X   3      15.430  28.046  83.7770  0.00  0.00     0.000 O
ATOM     49  HD  A00 X   3      16.031  28.623  83.5420  0.00  0.00     0.000 HD
BRANCH 42 49
ATOM     49   O  A00 X   3      14.485  29.156  86.4520  0.00  0.00     0.000 O
ATOM     50   O  A00 X   3      16.091  27.674  87.4290  0.00  0.00     0.000 OA
ATOM     51   O  A00 X   3      14.214  26.755  86.3230  0.00  0.00     0.000 OA
ATOM     52   O  A00 X   3      13.868  27.920  88.3500  0.00  0.00     0.000 OA
ATOM     53   S  A00 X   3      14.687  27.803  87.1930  0.00  0.00     0.000 S
ENDBRANCH 42 49
BRANCH 45 54
ATOM     54   C  A00 X   3      13.747  31.931  82.5700  0.00  0.00     0.000 C
ATOM     55   O  A00 X   3      13.498  33.045  82.1580  0.00  0.00     0.000 OA
ATOM     56   O  A00 X   3      13.363  30.969  81.9230  0.00  0.00     0.000 OA
ENDBRANCH 45 54
BRANCH 41 57
ATOM     57  O4  A00 X   4      11.701  30.393  84.4290  0.00  0.00     0.000 O
BRANCH 57 61
ATOM     58  C1  A00 X   4       7.839  32.322  84.4700  0.00  0.00     0.000 C
ATOM     59  C2  A00 X   4       9.100  33.193  84.2450  0.00  0.00     0.000 C
ATOM     60  C3  A00 X   4      10.359  32.374  83.8930  0.00  0.00     0.000 C
ATOM     61  C4  A00 X   4      10.552  31.180  84.8530  0.00  0.00     0.000 C
ATOM     62  C5  A00 X   4       9.259  30.332  84.7600  0.00  0.00     0.000 C
ATOM     63  O5  A00 X   4       8.135  31.124  85.2230  0.00  0.00     0.000 O
BRANCH 59 66
ATOM     64   N  A00 X   4       9.874  34.423  84.4940  0.00  0.00     0.000 N
ATOM     66  HD  A00 X   4      10.338  34.463  85.2240  0.00  0.00     0.000 HD
ATOM     66   O  A00 X   4       7.776  35.549  84.8540  0.00  0.00     0.000 OA
ATOM     67   S  A00 X   4       9.109  35.826  84.4200  0.00  0.00     0.000 S
ATOM     68   O  A00 X   4       9.905  36.602  85.3260  0.00  0.00     0.000 OA
ATOM     69   O  A00 X   4       9.309  36.151  83.0360  0.00  0.00     0.000 OA
ENDBRANCH 59 66
BRANCH 62 70
ATOM     70   C  A00 X   4       9.304  29.019  85.5770  0.00  0.00     0.000 C
ATOM     71   O  A00 X   4       9.433  28.593  89.1700  0.00  0.00     0.000 OA
ATOM     72   O  A00 X   4      10.736  27.627  87.4630  0.00  0.00     0.000 OA
ATOM     73   O  A00 X   4       9.097  29.317  86.9670  0.00  0.00     0.000 O
ATOM     74   O  A00 X   4      11.124  29.945  88.1080  0.00  0.00     0.000 OA
ATOM     75   S  A00 X   4      10.200  28.864  87.9860  0.00  0.00     0.000 S
ENDBRANCH 62 70
ENDBRANCH 57 61
ENDBRANCH 41 57
ENDBRANCH 40 44
ENDBRANCH 20 40
ENDBRANCH 19 23
ENDBRANCH 1 19
TORSDOF 14
ENDMDL
MODEL 23
REMARK VINA RESULT:      -5.8     16.197     21.173
ROOT
ATOM      1  C1  A00 X   1      35.751  42.733  61.2690  0.00  0.00     0.000 C
ATOM      2  C2  A00 X   1      37.216  42.567  61.7560  0.00  0.00     0.000 C
ATOM      3  C3  A00 X   1      37.400  42.169  63.2580  0.00  0.00     0.000 C
ATOM      4  C4  A00 X   1      36.148  42.347  64.1550  0.00  0.00     0.000 C
ATOM      5  C5  A00 X   1      35.160  43.358  63.5730  0.00  0.00     0.000 C
ATOM      6  O5  A00 X   1      34.747  42.784  62.3130  0.00  0.00     0.000 O
ATOM      7   O  A00 X   1      38.423  42.984  63.8250  0.00  0.00     0.000 O
ATOM      9  HD  A00 X   1      37.791  42.922  64.4140  0.00  0.00     0.000 HD
ATOM      9   O  A00 X   1      35.487  41.102  64.3820  0.00  0.00     0.000 O
ATOM     11  HD  A00 X   1      34.855  41.040  64.9700  0.00  0.00     0.000 HD
ENDROOT
BRANCH 2 11
ATOM     11   O  A00 X   1      37.843  41.570  60.9270  0.00  0.00     0.000 O
ATOM     12   O  A00 X   1      36.565  40.073  59.5510  0.00  0.00     0.000 OA
ATOM     13   O  A00 X   1      36.333  39.959  61.9700  0.00  0.00     0.000 OA
ATOM     14   O  A00 X   1      38.362  39.294  60.9210  0.00  0.00     0.000 OA
ATOM     15   S  A00 X   1      37.203  40.142  60.8410  0.00  0.00     0.000 S
ENDBRANCH 2 11
BRANCH 5 16
ATOM     16   C  A00 X   1      35.694  44.789  63.4490  0.00  0.00     0.000 C
ATOM     17   O  A00 X   1      35.029  45.607  62.8490  0.00  0.00     0.000 OA
ATOM     18   O  A00 X   1      36.752  45.133  63.9350  0.00  0.00     0.000 OA
ENDBRANCH 5 16
BRANCH 1 19
ATOM     19  O4  A00 X   2      35.592  43.823  60.3290  0.00  0.00     0.000 O
BRANCH 19 23
ATOM     20  C1  A00 X   2      38.026  45.096  57.0400  0.00  0.00     0.000 C
ATOM     21  C2  A00 X   2      37.521  43.633  57.0310  0.00  0.00     0.000 C
ATOM     22  C3  A00 X   2      36.340  43.454  58.0080  0.00  0.00     0.000 C
ATOM     23  C4  A00 X   2      36.724  43.947  59.4210  0.00  0.00     0.000 C
ATOM     24  C5  A00 X   2      37.229  45.410  59.2920  0.00  0.00     0.000 C
ATOM     25  O5  A00 X   2      38.380  45.432  58.4080  0.00  0.00     0.000 O
ATOM     26   O  A00 X   2      35.864  42.100  57.9120  0.00  0.00     0.000 O
ATOM     28  HD  A00 X   2      36.656  41.762  58.0050  0.00  0.00     0.000 HD
BRANCH 21 30
ATOM     28   N  A00 X   2      36.796  42.630  56.2450  0.00  0.00     0.000 N
ATOM     30  HD  A00 X   2      37.587  42.695  55.8990  0.00  0.00     0.000 HD
ATOM     30   O  A00 X   2      38.355  41.419  54.9950  0.00  0.00     0.000 OA
ATOM     31   S  A00 X   2      37.282  42.323  54.7730  0.00  0.00     0.000 S
ATOM     32   O  A00 X   2      36.129  41.750  54.1480  0.00  0.00     0.000 OA
ATOM     33   O  A00 X   2      37.605  43.578  54.1630  0.00  0.00     0.000 OA
ENDBRANCH 21 30
BRANCH 24 34
ATOM     34   C  A00 X   2      37.459  46.216  60.5920  0.00  0.00     0.000 C
ATOM     35   O  A00 X   2      40.614  47.805  61.4760  0.00  0.00     0.000 OA
ATOM     36   O  A00 X   2      38.865  46.417  60.8400  0.00  0.00     0.000 O
ATOM     37   O  A00 X   2      39.447  48.215  59.4600  0.00  0.00     0.000 OA
ATOM     38   S  A00 X   2      39.335  47.918  60.8560  0.00  0.00     0.000 S
ATOM     39   O  A00 X   2      38.356  48.641  61.6110  0.00  0.00     0.000 OA
ENDBRANCH 24 34
BRANCH 20 40
ATOM     40  O4  A00 X   3      36.909  45.895  56.6240  0.00  0.00     0.000 O
BRANCH 40 44
ATOM     41  C1  A00 X   3      34.498  48.587  56.3700  0.00  0.00     0.000 C
ATOM     42  C2  A00 X   3      34.694  47.479  55.3130  0.00  0.00     0.000 C
ATOM     43  C3  A00 X   3      36.188  47.344  54.9210  0.00  0.00     0.000 C
ATOM     44  C4  A00 X   3      37.144  47.220  56.1000  0.00  0.00     0.000 C
ATOM     45  C5  A00 X   3      36.889  48.370  57.1150  0.00  0.00     0.000 C
ATOM     46  O5  A00 X   3      35.466  48.467  57.4490  0.00  0.00     0.000 O
ATOM     47   O  A00 X   3      36.478  46.407  53.8850  0.00  0.00     0.000 O
ATOM     49  HD  A00 X   3      37.166  46.241  54.3830  0.00  0.00     0.000 HD
BRANCH 42 49
ATOM     49   O  A00 X   3      34.186  46.254  55.8850  0.00  0.00     0.000 O
ATOM     50   O  A00 X   3      34.099  43.949  55.2450  0.00  0.00     0.000 OA
ATOM     51   O  A00 X   3      33.661  45.603  53.6140  0.00  0.00     0.000 OA
ATOM     52   O  A00 X   3      32.101  45.306  55.3650  0.00  0.00     0.000 OA
ATOM     53   S  A00 X   3      33.469  45.205  54.9860  0.00  0.00     0.000 S
ENDBRANCH 42 49
BRANCH 45 54
ATOM     54   C  A00 X   3      37.487  49.697  56.6320  0.00  0.00     0.000 C
ATOM     55   O  A00 X   3      37.399  50.699  57.3100  0.00  0.00     0.000 OA
ATOM     56   O  A00 X   3      38.061  49.769  55.5560  0.00  0.00     0.000 OA
ENDBRANCH 45 54
BRANCH 41 57
ATOM     57  O4  A00 X   4      34.451  49.899  55.7660  0.00  0.00     0.000 O
BRANCH 57 61
ATOM     58  C1  A00 X   4      32.108  53.438  56.5570  0.00  0.00     0.000 C
ATOM     59  C2  A00 X   4      33.295  53.109  57.4970  0.00  0.00     0.000 C
ATOM     60  C3  A00 X   4      34.260  52.053  56.9220  0.00  0.00     0.000 C
ATOM     61  C4  A00 X   4      33.504  50.825  56.3710  0.00  0.00     0.000 C
ATOM     62  C5  A00 X   4      32.522  51.362  55.3000  0.00  0.00     0.000 C
ATOM     63  O5  A00 X   4      31.566  52.251  55.9330  0.00  0.00     0.000 O
BRANCH 59 66
ATOM     64   N  A00 X   4      31.885  53.045  57.9200  0.00  0.00     0.000 N
ATOM     66  HD  A00 X   4      31.287  53.336  57.3650  0.00  0.00     0.000 HD
ATOM     66   O  A00 X   4      32.383  54.795  59.4980  0.00  0.00     0.000 OA
ATOM     67   S  A00 X   4      31.486  53.696  59.3260  0.00  0.00     0.000 S
ATOM     68   O  A00 X   4      30.120  54.049  59.0690  0.00  0.00     0.000 OA
ATOM     69   O  A00 X   4      31.648  52.559  60.1870  0.00  0.00     0.000 OA
ENDBRANCH 59 66
BRANCH 62 70
ATOM     70   C  A00 X   4      31.742  50.258  54.5470  0.00  0.00     0.000 C
ATOM     71   O  A00 X   4      32.178  49.102  51.1440  0.00  0.00     0.000 OA
ATOM     72   O  A00 X   4      30.234  49.739  52.3110  0.00  0.00     0.000 OA
ATOM     73   O  A00 X   4      32.411  49.964  53.3100  0.00  0.00     0.000 O
ATOM     74   O  A00 X   4      31.780  51.450  51.5210  0.00  0.00     0.000 OA
ATOM     75   S  A00 X   4      31.592  50.112  51.9810  0.00  0.00     0.000 S
ENDBRANCH 62 70
ENDBRANCH 57 61
ENDBRANCH 41 57
ENDBRANCH 40 44
ENDBRANCH 20 40
ENDBRANCH 19 23
ENDBRANCH 1 19
TORSDOF 14
ENDMDL
MODEL 24
REMARK VINA RESULT:      -5.8     21.648     27.532
ROOT
ATOM      1  C1  A00 X   1      19.426  48.884  33.4160  0.00  0.00     0.000 C
ATOM      2  C2  A00 X   1      18.636  49.879  32.5240  0.00  0.00     0.000 C
ATOM      3  C3  A00 X   1      17.080  49.856  32.6800  0.00  0.00     0.000 C
ATOM      4  C4  A00 X   1      16.500  48.619  33.4120  0.00  0.00     0.000 C
ATOM      5  C5  A00 X   1      17.449  47.422  33.3640  0.00  0.00     0.000 C
ATOM      6  O5  A00 X   1      18.631  47.862  34.0680  0.00  0.00     0.000 O
ATOM      7   O  A00 X   1      16.490  49.872  31.3820  0.00  0.00     0.000 O
ATOM      9  HD  A00 X   1      16.037  49.311  31.8610  0.00  0.00     0.000 HD
ATOM      9   O  A00 X   1      16.172  48.921  34.7680  0.00  0.00     0.000 O
ATOM     11  HD  A00 X   1      15.720  48.359  35.2470  0.00  0.00     0.000 HD
ENDROOT
BRANCH 2 11
ATOM     11   O  A00 X   1      19.118  51.205  32.8150  0.00  0.00     0.000 O
ATOM     12   O  A00 X   1      20.580  51.648  34.6680  0.00  0.00     0.000 OA
ATOM     13   O  A00 X   1      18.327  50.835  35.0960  0.00  0.00     0.000 OA
ATOM     14   O  A00 X   1      18.674  53.018  34.2170  0.00  0.00     0.000 OA
ATOM     15   S  A00 X   1      19.185  51.677  34.3080  0.00  0.00     0.000 S
ENDBRANCH 2 11
BRANCH 5 16
ATOM     16   C  A00 X   1      17.738  46.880  31.9600  0.00  0.00     0.000 C
ATOM     17   O  A00 X   1      18.620  46.057  31.8250  0.00  0.00     0.000 OA
ATOM     18   O  A00 X   1      17.114  47.239  30.9820  0.00  0.00     0.000 OA
ENDBRANCH 5 16
BRANCH 1 19
ATOM     19  O4  A00 X   2      20.571  48.310  32.7390  0.00  0.00     0.000 O
BRANCH 19 23
ATOM     20  C1  A00 X   2      24.329  50.021  31.5930  0.00  0.00     0.000 C
ATOM     21  C2  A00 X   2      23.941  50.086  33.0900  0.00  0.00     0.000 C
ATOM     22  C3  A00 X   2      22.817  49.079  33.4100  0.00  0.00     0.000 C
ATOM     23  C4  A00 X   2      21.610  49.293  32.4680  0.00  0.00     0.000 C
ATOM     24  C5  A00 X   2      22.132  49.224  31.0070  0.00  0.00     0.000 C
ATOM     25  O5  A00 X   2      23.126  50.264  30.8160  0.00  0.00     0.000 O
ATOM     26   O  A00 X   2      22.541  49.129  34.8210  0.00  0.00     0.000 O
ATOM     28  HD  A00 X   2      22.467  49.991  34.8270  0.00  0.00     0.000 HD
BRANCH 21 30
ATOM     28   N  A00 X   2      25.113  49.788  33.9190  0.00  0.00     0.000 N
ATOM     30  HD  A00 X   2      24.977  50.641  33.9750  0.00  0.00     0.000 HD
ATOM     30   O  A00 X   2      25.496  51.617  35.3210  0.00  0.00     0.000 OA
ATOM     31   S  A00 X   2      26.132  50.953  34.2390  0.00  0.00     0.000 S
ATOM     32   O  A00 X   2      27.339  50.264  34.5780  0.00  0.00     0.000 OA
ATOM     33   O  A00 X   2      26.310  51.703  33.0310  0.00  0.00     0.000 OA
ENDBRANCH 21 30
BRANCH 24 34
ATOM     34   C  A00 X   2      21.088  49.179  29.8660  0.00  0.00     0.000 C
ATOM     35   O  A00 X   2      21.154  46.773  27.1340  0.00  0.00     0.000 OA
ATOM     36   O  A00 X   2      21.555  48.378  28.7620  0.00  0.00     0.000 O
ATOM     37   O  A00 X   2      21.132  46.174  29.4220  0.00  0.00     0.000 OA
ATOM     38   S  A00 X   2      20.683  47.110  28.4370  0.00  0.00     0.000 S
ATOM     39   O  A00 X   2      19.316  47.533  28.4970  0.00  0.00     0.000 OA
ENDBRANCH 24 34
BRANCH 20 40
ATOM     40  O4  A00 X   3      24.783  48.678  31.3670  0.00  0.00     0.000 O
BRANCH 40 44
ATOM     41  C1  A00 X   3      26.009  45.441  30.3010  0.00  0.00     0.000 C
ATOM     42  C2  A00 X   3      26.640  46.295  31.4220  0.00  0.00     0.000 C
ATOM     43  C3  A00 X   3      26.896  47.745  30.9370  0.00  0.00     0.000 C
ATOM     44  C4  A00 X   3      25.695  48.414  30.2800  0.00  0.00     0.000 C
ATOM     45  C5  A00 X   3      25.121  47.498  29.1630  0.00  0.00     0.000 C
ATOM     46  O5  A00 X   3      24.905  46.138  29.6610  0.00  0.00     0.000 O
ATOM     47   O  A00 X   3      27.557  48.604  31.8640  0.00  0.00     0.000 O
ATOM     49  HD  A00 X   3      26.999  49.187  31.5490  0.00  0.00     0.000 HD
BRANCH 42 49
ATOM     49   O  A00 X   3      25.727  46.266  32.5410  0.00  0.00     0.000 O
ATOM     50   O  A00 X   3      25.671  47.174  34.7550  0.00  0.00     0.000 OA
ATOM     51   O  A00 X   3      27.701  46.276  33.9410  0.00  0.00     0.000 OA
ATOM     52   O  A00 X   3      25.905  44.799  34.3660  0.00  0.00     0.000 OA
ATOM     53   S  A00 X   3      26.268  46.123  33.9930  0.00  0.00     0.000 S
ENDBRANCH 42 49
BRANCH 45 54
ATOM     54   C  A00 X   3      25.979  47.546  27.8930  0.00  0.00     0.000 C
ATOM     55   O  A00 X   3      25.569  47.075  26.8510  0.00  0.00     0.000 OA
ATOM     56   O  A00 X   3      27.088  48.057  27.9060  0.00  0.00     0.000 OA
ENDBRANCH 45 54
BRANCH 41 57
ATOM     57  O4  A00 X   4      27.007  44.950  29.3780  0.00  0.00     0.000 O
BRANCH 57 61
ATOM     58  C1  A00 X   4      27.196  41.407  26.9180  0.00  0.00     0.000 C
ATOM     59  C2  A00 X   4      26.675  42.722  26.2860  0.00  0.00     0.000 C
ATOM     60  C3  A00 X   4      26.987  43.975  27.1290  0.00  0.00     0.000 C
ATOM     61  C4  A00 X   4      26.617  43.774  28.6140  0.00  0.00     0.000 C
ATOM     62  C5  A00 X   4      27.410  42.534  29.0960  0.00  0.00     0.000 C
ATOM     63  O5  A00 X   4      26.978  41.369  28.3470  0.00  0.00     0.000 O
BRANCH 59 66
ATOM     64   N  A00 X   4      26.434  43.450  25.0270  0.00  0.00     0.000 N
ATOM     66  HD  A00 X   4      25.817  44.058  25.0280  0.00  0.00     0.000 HD
ATOM     66   O  A00 X   4      25.501  41.412  24.1440  0.00  0.00     0.000 OA
ATOM     67   S  A00 X   4      26.164  42.599  23.7000  0.00  0.00     0.000 S
ATOM     68   O  A00 X   4      25.350  43.521  22.9620  0.00  0.00     0.000 OA
ATOM     69   O  A00 X   4      27.505  42.471  23.2030  0.00  0.00     0.000 OA
ENDBRANCH 59 66
BRANCH 62 70
ATOM     70   C  A00 X   4      27.256  42.232  30.6060  0.00  0.00     0.000 C
ATOM     71   O  A00 X   4      29.801  41.261  32.9900  0.00  0.00     0.000 OA
ATOM     72   O  A00 X   4      27.683  40.334  32.5440  0.00  0.00     0.000 OA
ATOM     73   O  A00 X   4      28.557  42.131  31.2060  0.00  0.00     0.000 O
ATOM     74   O  A00 X   4      29.523  39.933  30.9970  0.00  0.00     0.000 OA
ATOM     75   S  A00 X   4      28.918  40.802  31.9550  0.00  0.00     0.000 S
ENDBRANCH 62 70
ENDBRANCH 57 61
ENDBRANCH 41 57
ENDBRANCH 40 44
ENDBRANCH 20 40
ENDBRANCH 19 23
ENDBRANCH 1 19
TORSDOF 14
ENDMDL
MODEL 25
REMARK VINA RESULT:      -5.8     40.125     44.232
ROOT
ATOM      1  C1  A00 X   1      16.419  32.981  88.4750  0.00  0.00     0.000 C
ATOM      2  C2  A00 X   1      16.215  32.637  89.9750  0.00  0.00     0.000 C
ATOM      3  C3  A00 X   1      15.304  33.617  90.7860  0.00  0.00     0.000 C
ATOM      4  C4  A00 X   1      15.022  34.983  90.1100  0.00  0.00     0.000 C
ATOM      5  C5  A00 X   1      16.085  35.343  89.0720  0.00  0.00     0.000 C
ATOM      6  O5  A00 X   1      15.987  34.305  88.0720  0.00  0.00     0.000 O
ATOM      7   O  A00 X   1      15.937  33.904  92.0310  0.00  0.00     0.000 O
ATOM      9  HD  A00 X   1      15.603  34.647  91.7370  0.00  0.00     0.000 HD
ATOM      9   O  A00 X   1      13.729  35.010  89.5070  0.00  0.00     0.000 O
ATOM     11  HD  A00 X   1      13.396  35.753  89.2120  0.00  0.00     0.000 HD
ENDROOT
BRANCH 2 11
ATOM     11   O  A00 X   1      15.659  31.310  90.0490  0.00  0.00     0.000 O
ATOM     12   O  A00 X   1      14.888  30.370  92.1190  0.00  0.00     0.000 OA
ATOM     13   O  A00 X   1      17.247  30.904  91.8600  0.00  0.00     0.000 OA
ATOM     14   O  A00 X   1      16.270  29.128  90.6150  0.00  0.00     0.000 OA
ATOM     15   S  A00 X   1      16.045  30.394  91.2610  0.00  0.00     0.000 S
ENDBRANCH 2 11
BRANCH 5 16
ATOM     16   C  A00 X   1      17.500  35.527  89.6300  0.00  0.00     0.000 C
ATOM     17   O  A00 X   1      18.426  35.611  88.8490  0.00  0.00     0.000 OA
ATOM     18   O  A00 X   1      17.727  35.597  90.8210  0.00  0.00     0.000 OA
ENDBRANCH 5 16
BRANCH 1 19
ATOM     19  O4  A00 X   2      17.762  32.700  88.0120  0.00  0.00     0.000 O
BRANCH 19 23
ATOM     20  C1  A00 X   2      16.474  31.160  84.2260  0.00  0.00     0.000 C
ATOM     21  C2  A00 X   2      16.764  30.138  85.3520  0.00  0.00     0.000 C
ATOM     22  C3  A00 X   2      16.787  30.831  86.7300  0.00  0.00     0.000 C
ATOM     23  C4  A00 X   2      17.779  32.016  86.7260  0.00  0.00     0.000 C
ATOM     24  C5  A00 X   2      17.395  32.953  85.5480  0.00  0.00     0.000 C
ATOM     25  O5  A00 X   2      17.482  32.203  84.3080  0.00  0.00     0.000 O
ATOM     26   O  A00 X   2      16.990  29.833  87.7450  0.00  0.00     0.000 O
ATOM     28  HD  A00 X   2      17.673  29.487  87.3390  0.00  0.00     0.000 HD
BRANCH 21 30
ATOM     28   N  A00 X   2      17.320  29.206  84.3660  0.00  0.00     0.000 N
ATOM     30  HD  A00 X   2      17.132  28.741  85.0730  0.00  0.00     0.000 HD
ATOM     30   O  A00 X   2      16.794  27.033  85.0440  0.00  0.00     0.000 OA
ATOM     31   S  A00 X   2      17.945  27.847  84.8770  0.00  0.00     0.000 S
ATOM     32   O  A00 X   2      18.815  27.453  83.8120  0.00  0.00     0.000 OA
ATOM     33   O  A00 X   2      18.706  28.146  86.0540  0.00  0.00     0.000 OA
ENDBRANCH 21 30
BRANCH 24 34
ATOM     34   C  A00 X   2      18.089  34.332  85.4620  0.00  0.00     0.000 C
ATOM     35   O  A00 X   2      21.619  34.797  84.7020  0.00  0.00     0.000 OA
ATOM     36   O  A00 X   2      19.523  34.199  85.5010  0.00  0.00     0.000 O
ATOM     37   O  A00 X   2      20.114  33.612  83.3160  0.00  0.00     0.000 OA
ATOM     38   S  A00 X   2      20.280  34.708  84.2200  0.00  0.00     0.000 S
ATOM     39   O  A00 X   2      19.678  35.958  83.8640  0.00  0.00     0.000 OA
ENDBRANCH 24 34
BRANCH 20 40
ATOM     40  O4  A00 X   3      15.185  31.714  84.5270  0.00  0.00     0.000 O
BRANCH 40 44
ATOM     41  C1  A00 X   3      11.653  32.517  84.4980  0.00  0.00     0.000 C
ATOM     42  C2  A00 X   3      12.258  31.192  83.9860  0.00  0.00     0.000 C
ATOM     43  C3  A00 X   3      13.421  31.459  82.9960  0.00  0.00     0.000 C
ATOM     44  C4  A00 X   3      14.472  32.440  83.5030  0.00  0.00     0.000 C
ATOM     45  C5  A00 X   3      13.787  33.746  83.9950  0.00  0.00     0.000 C
ATOM     46  O5  A00 X   3      12.690  33.446  84.9170  0.00  0.00     0.000 O
ATOM     47   O  A00 X   3      14.002  30.306  82.3910  0.00  0.00     0.000 O
ATOM     49  HD  A00 X   3      14.735  30.751  82.5080  0.00  0.00     0.000 HD
BRANCH 42 49
ATOM     49   O  A00 X   3      12.710  30.457  85.1450  0.00  0.00     0.000 O
ATOM     50   O  A00 X   3      13.772  28.352  85.5560  0.00  0.00     0.000 OA
ATOM     51   O  A00 X   3      12.054  28.466  83.9360  0.00  0.00     0.000 OA
ATOM     52   O  A00 X   3      11.481  28.763  86.2100  0.00  0.00     0.000 OA
ATOM     53   S  A00 X   3      12.501  28.917  85.2310  0.00  0.00     0.000 S
ENDBRANCH 42 49
BRANCH 45 54
ATOM     54   C  A00 X   3      13.362  34.640  82.8230  0.00  0.00     0.000 C
ATOM     55   O  A00 X   3      13.383  35.849  82.9280  0.00  0.00     0.000 OA
ATOM     56   O  A00 X   3      12.994  34.152  81.7660  0.00  0.00     0.000 OA
ENDBRANCH 45 54
BRANCH 41 57
ATOM     57  O4  A00 X   4      10.712  33.074  83.5530  0.00  0.00     0.000 O
BRANCH 57 61
ATOM     58  C1  A00 X   4       7.320  35.710  83.9850  0.00  0.00     0.000 C
ATOM     59  C2  A00 X   4       8.724  36.240  84.3700  0.00  0.00     0.000 C
ATOM     60  C3  A00 X   4       9.878  35.361  83.8440  0.00  0.00     0.000 C
ATOM     61  C4  A00 X   4       9.640  33.865  84.1410  0.00  0.00     0.000 C
ATOM     62  C5  A00 X   4       8.284  33.501  83.4870  0.00  0.00     0.000 C
ATOM     63  O5  A00 X   4       7.229  34.273  84.1140  0.00  0.00     0.000 O
BRANCH 59 66
ATOM     64   N  A00 X   4       7.942  35.971  85.5900  0.00  0.00     0.000 N
ATOM     66  HD  A00 X   4       7.156  35.621  85.4920  0.00  0.00     0.000 HD
ATOM     66   O  A00 X   4       7.698  38.354  85.8380  0.00  0.00     0.000 OA
ATOM     67   S  A00 X   4       7.730  37.166  86.6320  0.00  0.00     0.000 S
ATOM     68   O  A00 X   4       6.479  36.780  87.2160  0.00  0.00     0.000 OA
ATOM     69   O  A00 X   4       8.866  36.962  87.4860  0.00  0.00     0.000 OA
ENDBRANCH 59 66
BRANCH 62 70
ATOM     70   C  A00 X   4       7.919  32.000  83.5830  0.00  0.00     0.000 C
ATOM     71   O  A00 X   4       7.102  30.055  86.5250  0.00  0.00     0.000 OA
ATOM     72   O  A00 X   4       8.609  29.621  84.7680  0.00  0.00     0.000 OA
ATOM     73   O  A00 X   4       7.431  31.714  84.9030  0.00  0.00     0.000 O
ATOM     74   O  A00 X   4       9.194  31.253  86.4800  0.00  0.00     0.000 OA
ATOM     75   S  A00 X   4       8.166  30.604  85.7320  0.00  0.00     0.000 S
ENDBRANCH 62 70
ENDBRANCH 57 61
ENDBRANCH 41 57
ENDBRANCH 40 44
ENDBRANCH 20 40
ENDBRANCH 19 23
ENDBRANCH 1 19
TORSDOF 14
ENDMDL
MODEL 26
REMARK VINA RESULT:      -5.5     28.850     34.191
ROOT
ATOM      1  C1  A00 X   1      16.520  48.059  31.2630  0.00  0.00     0.000 C
ATOM      2  C2  A00 X   1      18.010  47.676  31.4730  0.00  0.00     0.000 C
ATOM      3  C3  A00 X   1      18.497  47.602  32.9580  0.00  0.00     0.000 C
ATOM      4  C4  A00 X   1      17.562  48.265  34.0020  0.00  0.00     0.000 C
ATOM      5  C5  A00 X   1      16.647  49.315  33.3730  0.00  0.00     0.000 C
ATOM      6  O5  A00 X   1      15.836  48.578  32.4300  0.00  0.00     0.000 O
ATOM      7   O  A00 X   1      19.754  48.266  33.0600  0.00  0.00     0.000 O
ATOM      9  HD  A00 X   1      19.290  48.489  33.7570  0.00  0.00     0.000 HD
ATOM      9   O  A00 X   1      16.777  47.292  34.6920  0.00  0.00     0.000 O
ATOM     11  HD  A00 X   1      16.314  47.515  35.3890  0.00  0.00     0.000 HD
ENDROOT
BRANCH 2 11
ATOM     11   O  A00 X   1      18.227  46.398  30.8440  0.00  0.00     0.000 O
ATOM     12   O  A00 X   1      20.428  45.615  30.2870  0.00  0.00     0.000 OA
ATOM     13   O  A00 X   1      19.559  47.603  29.1880  0.00  0.00     0.000 OA
ATOM     14   O  A00 X   1      18.614  45.467  28.7380  0.00  0.00     0.000 OA
ATOM     15   S  A00 X   1      19.296  46.288  29.7020  0.00  0.00     0.000 S
ENDBRANCH 2 11
BRANCH 5 16
ATOM     16   C  A00 X   1      17.369  50.516  32.7530  0.00  0.00     0.000 C
ATOM     17   O  A00 X   1      16.728  51.293  32.0760  0.00  0.00     0.000 OA
ATOM     18   O  A00 X   1      18.554  50.721  32.9220  0.00  0.00     0.000 OA
ENDBRANCH 5 16
BRANCH 1 19
ATOM     19  O4  A00 X   2      16.318  48.911  30.1090  0.00  0.00     0.000 O
BRANCH 19 23
ATOM     20  C1  A00 X   2      12.934  49.334  27.5130  0.00  0.00     0.000 C
ATOM     21  C2  A00 X   2      12.985  50.232  28.7720  0.00  0.00     0.000 C
ATOM     22  C3  A00 X   2      14.414  50.286  29.3520  0.00  0.00     0.000 C
ATOM     23  C4  A00 X   2      14.951  48.860  29.6090  0.00  0.00     0.000 C
ATOM     24  C5  A00 X   2      14.829  48.060  28.2830  0.00  0.00     0.000 C
ATOM     25  O5  A00 X   2      13.433  48.022  27.8870  0.00  0.00     0.000 O
ATOM     26   O  A00 X   2      14.423  51.183  30.4750  0.00  0.00     0.000 O
ATOM     28  HD  A00 X   2      13.739  50.805  30.8470  0.00  0.00     0.000 HD
BRANCH 21 30
ATOM     28   N  A00 X   2      11.521  50.153  28.8030  0.00  0.00     0.000 N
ATOM     30  HD  A00 X   2      11.749  50.787  29.3470  0.00  0.00     0.000 HD
ATOM     30   O  A00 X   2      10.707  52.115  29.7740  0.00  0.00     0.000 OA
ATOM     31   S  A00 X   2      10.757  50.726  30.0620  0.00  0.00     0.000 S
ATOM     32   O  A00 X   2       9.494  50.055  30.0250  0.00  0.00     0.000 OA
ATOM     33   O  A00 X   2      11.496  50.329  31.2230  0.00  0.00     0.000 OA
ENDBRANCH 21 30
BRANCH 24 34
ATOM     34   C  A00 X   2      15.509  46.673  28.2080  0.00  0.00     0.000 C
ATOM     35   O  A00 X   2      13.724  43.555  27.6140  0.00  0.00     0.000 OA
ATOM     36   O  A00 X   2      14.542  45.610  28.3200  0.00  0.00     0.000 O
ATOM     37   O  A00 X   2      13.624  45.430  26.1760  0.00  0.00     0.000 OA
ATOM     38   S  A00 X   2      14.438  44.663  27.0690  0.00  0.00     0.000 S
ATOM     39   O  A00 X   2      15.781  44.379  26.6630  0.00  0.00     0.000 OA
ENDBRANCH 24 34
BRANCH 20 40
ATOM     40  O4  A00 X   3      13.832  49.938  26.5700  0.00  0.00     0.000 O
BRANCH 40 44
ATOM     41  C1  A00 X   3      16.299  48.837  24.1560  0.00  0.00     0.000 C
ATOM     42  C2  A00 X   3      16.076  50.305  24.5790  0.00  0.00     0.000 C
ATOM     43  C3  A00 X   3      14.578  50.691  24.4730  0.00  0.00     0.000 C
ATOM     44  C4  A00 X   3      13.624  49.721  25.1580  0.00  0.00     0.000 C
ATOM     45  C5  A00 X   3      13.907  48.269  24.6780  0.00  0.00     0.000 C
ATOM     46  O5  A00 X   3      15.332  47.952  24.7860  0.00  0.00     0.000 O
ATOM     47   O  A00 X   3      14.264  52.053  24.7570  0.00  0.00     0.000 O
ATOM     49  HD  A00 X   3      13.574  51.697  25.1400  0.00  0.00     0.000 HD
BRANCH 42 49
ATOM     49   O  A00 X   3      16.559  50.433  25.9340  0.00  0.00     0.000 O
ATOM     50   O  A00 X   3      16.725  52.187  27.5560  0.00  0.00     0.000 OA
ATOM     51   O  A00 X   3      17.254  52.664  25.3010  0.00  0.00     0.000 OA
ATOM     52   O  A00 X   3      18.689  51.233  26.5170  0.00  0.00     0.000 OA
ATOM     53   S  A00 X   3      17.354  51.699  26.3680  0.00  0.00     0.000 S
ENDBRANCH 42 49
BRANCH 45 54
ATOM     54   C  A00 X   3      13.335  48.012  23.2790  0.00  0.00     0.000 C
ATOM     55   O  A00 X   3      12.965  48.935  22.5820  0.00  0.00     0.000 OA
ATOM     56   O  A00 X   3      13.241  46.876  22.8410  0.00  0.00     0.000 OA
ENDBRANCH 45 54
BRANCH 41 57
ATOM     57  O4  A00 X   4      16.372  48.700  22.7190  0.00  0.00     0.000 O
BRANCH 57 61
ATOM     58  C1  A00 X   4      18.200  45.645  20.2780  0.00  0.00     0.000 C
ATOM     59  C2  A00 X   4      16.654  45.724  20.3320  0.00  0.00     0.000 C
ATOM     60  C3  A00 X   4      16.126  47.045  20.9270  0.00  0.00     0.000 C
ATOM     61  C4  A00 X   4      16.845  47.408  22.2440  0.00  0.00     0.000 C
ATOM     62  C5  A00 X   4      18.356  47.481  21.9100  0.00  0.00     0.000 C
ATOM     63  O5  A00 X   4      18.812  46.174  21.4760  0.00  0.00     0.000 O
BRANCH 59 66
ATOM     64   N  A00 X   4      15.495  44.915  20.7520  0.00  0.00     0.000 N
ATOM     66  HD  A00 X   4      15.484  44.627  21.5690  0.00  0.00     0.000 HD
ATOM     66   O  A00 X   4      16.330  43.162  19.3290  0.00  0.00     0.000 OA
ATOM     67   S  A00 X   4      15.097  43.645  19.8660  0.00  0.00     0.000 S
ATOM     68   O  A00 X   4      14.490  42.813  20.8640  0.00  0.00     0.000 OA
ATOM     69   O  A00 X   4      14.164  44.252  18.9590  0.00  0.00     0.000 OA
ENDBRANCH 59 66
BRANCH 62 70
ATOM     70   C  A00 X   4      19.243  47.943  23.0910  0.00  0.00     0.000 C
ATOM     71   O  A00 X   4      20.528  45.990  25.8550  0.00  0.00     0.000 OA
ATOM     72   O  A00 X   4      19.406  48.060  25.8300  0.00  0.00     0.000 OA
ATOM     73   O  A00 X   4      19.715  46.792  23.8100  0.00  0.00     0.000 O
ATOM     74   O  A00 X   4      18.149  46.005  25.4620  0.00  0.00     0.000 OA
ATOM     75   S  A00 X   4      19.390  46.699  25.3410  0.00  0.00     0.000 S
ENDBRANCH 62 70
ENDBRANCH 57 61
ENDBRANCH 41 57
ENDBRANCH 40 44
ENDBRANCH 20 40
ENDBRANCH 19 23
ENDBRANCH 1 19
TORSDOF 14
ENDMDL
MODEL 27
REMARK VINA RESULT:      -5.4     26.820     32.079
ROOT
ATOM      1  C1  A00 X   1      19.280  51.157  33.4290  0.00  0.00     0.000 C
ATOM      2  C2  A00 X   1      18.373  50.635  32.2830  0.00  0.00     0.000 C
ATOM      3  C3  A00 X   1      16.872  50.392  32.6500  0.00  0.00     0.000 C
ATOM      4  C4  A00 X   1      16.554  50.345  34.1660  0.00  0.00     0.000 C
ATOM      5  C5  A00 X   1      17.786  50.002  35.0040  0.00  0.00     0.000 C
ATOM      6  O5  A00 X   1      18.710  51.086  34.7600  0.00  0.00     0.000 O
ATOM      7   O  A00 X   1      16.468  49.135  32.1120  0.00  0.00     0.000 O
ATOM      9  HD  A00 X   1      16.124  49.196  32.9050  0.00  0.00     0.000 HD
ATOM      9   O  A00 X   1      15.990  51.575  34.6190  0.00  0.00     0.000 O
ATOM     11  HD  A00 X   1      15.646  51.637  35.4120  0.00  0.00     0.000 HD
ENDROOT
BRANCH 2 11
ATOM     11   O  A00 X   1      18.444  51.584  31.2010  0.00  0.00     0.000 O
ATOM     12   O  A00 X   1      17.382  51.180  29.0850  0.00  0.00     0.000 OA
ATOM     13   O  A00 X   1      19.189  49.721  29.8080  0.00  0.00     0.000 OA
ATOM     14   O  A00 X   1      19.628  51.986  29.2290  0.00  0.00     0.000 OA
ATOM     15   S  A00 X   1      18.659  51.055  29.7410  0.00  0.00     0.000 S
ENDBRANCH 2 11
BRANCH 5 16
ATOM     16   C  A00 X   1      18.383  48.616  34.7410  0.00  0.00     0.000 C
ATOM     17   O  A00 X   1      17.697  47.784  34.1840  0.00  0.00     0.000 OA
ATOM     18   O  A00 X   1      19.518  48.324  35.0610  0.00  0.00     0.000 OA
ENDBRANCH 5 16
BRANCH 1 19
ATOM     19  O4  A00 X   2      20.612  50.589  33.3940  0.00  0.00     0.000 O
BRANCH 19 23
ATOM     20  C1  A00 X   2      22.510  54.188  34.7400  0.00  0.00     0.000 C
ATOM     21  C2  A00 X   2      22.513  53.905  33.2190  0.00  0.00     0.000 C
ATOM     22  C3  A00 X   2      21.452  52.846  32.8550  0.00  0.00     0.000 C
ATOM     23  C4  A00 X   2      21.645  51.568  33.7030  0.00  0.00     0.000 C
ATOM     24  C5  A00 X   2      21.642  51.987  35.1990  0.00  0.00     0.000 C
ATOM     25  O5  A00 X   2      22.727  52.925  35.4240  0.00  0.00     0.000 O
ATOM     26   O  A00 X   2      21.447  52.669  31.4280  0.00  0.00     0.000 O
ATOM     28  HD  A00 X   2      22.305  52.562  31.3880  0.00  0.00     0.000 HD
BRANCH 21 30
ATOM     28   N  A00 X   2      23.835  54.533  33.1430  0.00  0.00     0.000 N
ATOM     30  HD  A00 X   2      23.533  54.487  32.3330  0.00  0.00     0.000 HD
ATOM     30   O  A00 X   2      24.037  55.553  31.0510  0.00  0.00     0.000 OA
ATOM     31   S  A00 X   2      24.623  54.480  31.7730  0.00  0.00     0.000 S
ATOM     32   O  A00 X   2      25.985  54.683  32.1580  0.00  0.00     0.000 OA
ATOM     33   O  A00 X   2      24.449  53.164  31.2350  0.00  0.00     0.000 OA
ENDBRANCH 21 30
BRANCH 24 34
ATOM     34   C  A00 X   2      21.589  50.868  36.2660  0.00  0.00     0.000 C
ATOM     35   O  A00 X   2      24.022  50.489  38.9480  0.00  0.00     0.000 OA
ATOM     36   O  A00 X   2      22.845  50.753  36.9650  0.00  0.00     0.000 O
ATOM     37   O  A00 X   2      22.782  52.465  38.5580  0.00  0.00     0.000 OA
ATOM     38   S  A00 X   2      22.779  51.035  38.5110  0.00  0.00     0.000 S
ATOM     39   O  A00 X   2      21.615  50.357  38.9970  0.00  0.00     0.000 OA
ENDBRANCH 24 34
BRANCH 20 40
ATOM     40  O4  A00 X   3      21.195  54.677  35.0410  0.00  0.00     0.000 O
BRANCH 40 44
ATOM     41  C1  A00 X   3      18.332  54.694  37.2620  0.00  0.00     0.000 C
ATOM     42  C2  A00 X   3      18.428  55.492  35.9440  0.00  0.00     0.000 C
ATOM     43  C3  A00 X   3      19.741  56.316  35.8880  0.00  0.00     0.000 C
ATOM     44  C4  A00 X   3      21.002  55.520  36.1970  0.00  0.00     0.000 C
ATOM     45  C5  A00 X   3      20.830  54.751  37.5370  0.00  0.00     0.000 C
ATOM     46  O5  A00 X   3      19.575  53.996  37.5500  0.00  0.00     0.000 O
ATOM     47   O  A00 X   3      19.897  57.162  34.7500  0.00  0.00     0.000 O
ATOM     49  HD  A00 X   3      20.719  56.895  34.8050  0.00  0.00     0.000 HD
BRANCH 42 49
ATOM     49   O  A00 X   3      18.360  54.535  34.8640  0.00  0.00     0.000 O
ATOM     50   O  A00 X   3      18.470  54.609  32.4740  0.00  0.00     0.000 OA
ATOM     51   O  A00 X   3      17.237  56.275  33.6110  0.00  0.00     0.000 OA
ATOM     52   O  A00 X   3      16.420  54.057  33.6300  0.00  0.00     0.000 OA
ATOM     53   S  A00 X   3      17.581  54.876  33.5600  0.00  0.00     0.000 S
ENDBRANCH 42 49
BRANCH 45 54
ATOM     54   C  A00 X   3      20.989  55.678  38.7480  0.00  0.00     0.000 C
ATOM     55   O  A00 X   3      20.822  56.875  38.6370  0.00  0.00     0.000 OA
ATOM     56   O  A00 X   3      21.287  55.229  39.8440  0.00  0.00     0.000 OA
ENDBRANCH 45 54
BRANCH 41 57
ATOM     57  O4  A00 X   4      17.855  55.517  38.3500  0.00  0.00     0.000 O
BRANCH 57 61
ATOM     58  C1  A00 X   4      15.821  54.599  42.0460  0.00  0.00     0.000 C
ATOM     59  C2  A00 X   4      17.217  53.976  41.7940  0.00  0.00     0.000 C
ATOM     60  C3  A00 X   4      17.989  54.645  40.6380  0.00  0.00     0.000 C
ATOM     61  C4  A00 X   4      17.109  54.807  39.3800  0.00  0.00     0.000 C
ATOM     62  C5  A00 X   4      15.875  55.637  39.8150  0.00  0.00     0.000 C
ATOM     63  O5  A00 X   4      15.128  54.894  40.8120  0.00  0.00     0.000 O
BRANCH 59 66
ATOM     64   N  A00 X   4      18.240  52.930  41.9700  0.00  0.00     0.000 N
ATOM     66  HD  A00 X   4      18.309  52.329  41.3500  0.00  0.00     0.000 HD
ATOM     66   O  A00 X   4      16.884  52.044  43.7510  0.00  0.00     0.000 OA
ATOM     67   S  A00 X   4      18.252  52.104  43.3400  0.00  0.00     0.000 S
ATOM     68   O  A00 X   4      18.816  50.865  42.8900  0.00  0.00     0.000 OA
ATOM     69   O  A00 X   4      19.149  52.913  44.1150  0.00  0.00     0.000 OA
ENDBRANCH 59 66
BRANCH 62 70
ATOM     70   C  A00 X   4      14.918  56.002  38.6550  0.00  0.00     0.000 C
ATOM     71   O  A00 X   4      11.755  57.757  38.8000  0.00  0.00     0.000 OA
ATOM     72   O  A00 X   4      12.342  55.740  37.7380  0.00  0.00     0.000 OA
ATOM     73   O  A00 X   4      13.912  56.908  39.1370  0.00  0.00     0.000 O
ATOM     74   O  A00 X   4      12.041  55.784  40.1560  0.00  0.00     0.000 OA
ATOM     75   S  A00 X   4      12.410  56.491  38.9720  0.00  0.00     0.000 S
ENDBRANCH 62 70
ENDBRANCH 57 61
ENDBRANCH 41 57
ENDBRANCH 40 44
ENDBRANCH 20 40
ENDBRANCH 19 23
ENDBRANCH 1 19
TORSDOF 14
ENDMDL
MODEL 28
REMARK VINA RESULT:      -5.3     23.757     28.821
ROOT
ATOM      1  C1  A00 X   1      19.416  49.151  32.7430  0.00  0.00     0.000 C
ATOM      2  C2  A00 X   1      18.339  49.809  31.8410  0.00  0.00     0.000 C
ATOM      3  C3  A00 X   1      16.851  49.487  32.2010  0.00  0.00     0.000 C
ATOM      4  C4  A00 X   1      16.639  48.285  33.1570  0.00  0.00     0.000 C
ATOM      5  C5  A00 X   1      17.824  47.319  33.1410  0.00  0.00     0.000 C
ATOM      6  O5  A00 X   1      18.941  48.101  33.6210  0.00  0.00     0.000 O
ATOM      7   O  A00 X   1      16.146  49.179  31.0010  0.00  0.00     0.000 O
ATOM      9  HD  A00 X   1      15.881  48.617  31.6040  0.00  0.00     0.000 HD
ATOM      9   O  A00 X   1      16.390  48.719  34.4940  0.00  0.00     0.000 O
ATOM     11  HD  A00 X   1      16.125  48.157  35.0970  0.00  0.00     0.000 HD
ENDROOT
BRANCH 2 11
ATOM     11   O  A00 X   1      18.536  51.236  31.8920  0.00  0.00     0.000 O
ATOM     12   O  A00 X   1      16.870  52.777  31.1050  0.00  0.00     0.000 OA
ATOM     13   O  A00 X   1      17.927  51.258  29.5260  0.00  0.00     0.000 OA
ATOM     14   O  A00 X   1      19.177  53.018  30.5260  0.00  0.00     0.000 OA
ATOM     15   S  A00 X   1      18.072  52.109  30.6750  0.00  0.00     0.000 S
ENDBRANCH 2 11
BRANCH 5 16
ATOM     16   C  A00 X   1      18.087  46.639  31.7930  0.00  0.00     0.000 C
ATOM     17   O  A00 X   1      17.236  46.711  30.9310  0.00  0.00     0.000 OA
ATOM     18   O  A00 X   1      19.115  46.038  31.5560  0.00  0.00     0.000 OA
ENDBRANCH 5 16
BRANCH 1 19
ATOM     19  O4  A00 X   2      20.588  48.730  32.0020  0.00  0.00     0.000 O
BRANCH 19 23
ATOM     20  C1  A00 X   2      23.937  50.948  30.5090  0.00  0.00     0.000 C
ATOM     21  C2  A00 X   2      23.650  51.024  32.0280  0.00  0.00     0.000 C
ATOM     22  C3  A00 X   2      22.725  49.871  32.4710  0.00  0.00     0.000 C
ATOM     23  C4  A00 X   2      21.437  49.849  31.6170  0.00  0.00     0.000 C
ATOM     24  C5  A00 X   2      21.859  49.792  30.1230  0.00  0.00     0.000 C
ATOM     25  O5  A00 X   2      22.660  50.963  29.8180  0.00  0.00     0.000 O
ATOM     26   O  A00 X   2      22.544  49.945  33.8950  0.00  0.00     0.000 O
ATOM     28  HD  A00 X   2      22.335  50.785  33.8760  0.00  0.00     0.000 HD
BRANCH 21 30
ATOM     28   N  A00 X   2      24.324  50.814  33.3130  0.00  0.00     0.000 N
ATOM     30  HD  A00 X   2      24.563  51.597  33.0300  0.00  0.00     0.000 HD
ATOM     30   O  A00 X   2      25.095  52.883  34.0760  0.00  0.00     0.000 OA
ATOM     31   S  A00 X   2      25.630  51.647  33.6290  0.00  0.00     0.000 S
ATOM     32   O  A00 X   2      26.289  50.874  34.6370  0.00  0.00     0.000 OA
ATOM     33   O  A00 X   2      26.415  51.674  32.4310  0.00  0.00     0.000 OA
ENDBRANCH 21 30
BRANCH 24 34
ATOM     34   C  A00 X   2      20.758  49.530  29.0680  0.00  0.00     0.000 C
ATOM     35   O  A00 X   2      20.829  46.779  26.6850  0.00  0.00     0.000 OA
ATOM     36   O  A00 X   2      21.214  48.613  28.0530  0.00  0.00     0.000 O
ATOM     37   O  A00 X   2      20.974  46.501  29.0290  0.00  0.00     0.000 OA
ATOM     38   S  A00 X   2      20.410  47.265  27.9580  0.00  0.00     0.000 S
ATOM     39   O  A00 X   2      19.024  47.613  28.0490  0.00  0.00     0.000 OA
ENDBRANCH 24 34
BRANCH 20 40
ATOM     40  O4  A00 X   3      24.582  49.683  30.2990  0.00  0.00     0.000 O
BRANCH 40 44
ATOM     41  C1  A00 X   3      25.938  46.599  28.9670  0.00  0.00     0.000 C
ATOM     42  C2  A00 X   3      26.493  47.345  30.1990  0.00  0.00     0.000 C
ATOM     43  C3  A00 X   3      26.735  48.843  29.8800  0.00  0.00     0.000 C
ATOM     44  C4  A00 X   3      25.550  49.552  29.2360  0.00  0.00     0.000 C
ATOM     45  C5  A00 X   3      25.053  48.746  28.0040  0.00  0.00     0.000 C
ATOM     46  O5  A00 X   3      24.848  47.338  28.3480  0.00  0.00     0.000 O
ATOM     47   O  A00 X   3      27.330  49.614  30.9220  0.00  0.00     0.000 O
ATOM     49  HD  A00 X   3      26.774  50.215  30.6410  0.00  0.00     0.000 HD
BRANCH 42 49
ATOM     49   O  A00 X   3      25.530  47.181  31.2630  0.00  0.00     0.000 O
ATOM     50   O  A00 X   3      25.332  47.878  33.5450  0.00  0.00     0.000 OA
ATOM     51   O  A00 X   3      27.432  47.129  32.7580  0.00  0.00     0.000 OA
ATOM     52   O  A00 X   3      25.676  45.559  32.9540  0.00  0.00     0.000 OA
ATOM     53   S  A00 X   3      26.006  46.923  32.7220  0.00  0.00     0.000 S
ENDBRANCH 42 49
BRANCH 45 54
ATOM     54   C  A00 X   3      25.968  48.943  26.7890  0.00  0.00     0.000 C
ATOM     55   O  A00 X   3      27.095  49.374  26.9270  0.00  0.00     0.000 OA
ATOM     56   O  A00 X   3      25.580  48.672  25.6640  0.00  0.00     0.000 OA
ENDBRANCH 45 54
BRANCH 41 57
ATOM     57  O4  A00 X   4      26.990  46.228  28.0490  0.00  0.00     0.000 O
BRANCH 57 61
ATOM     58  C1  A00 X   4      27.431  43.013  25.2010  0.00  0.00     0.000 C
ATOM     59  C2  A00 X   4      26.515  44.207  24.8350  0.00  0.00     0.000 C
ATOM     60  C3  A00 X   4      26.714  45.436  25.7450  0.00  0.00     0.000 C
ATOM     61  C4  A00 X   4      26.716  45.049  27.2390  0.00  0.00     0.000 C
ATOM     62  C5  A00 X   4      27.845  44.003  27.4160  0.00  0.00     0.000 C
ATOM     63  O5  A00 X   4      27.531  42.825  26.6310  0.00  0.00     0.000 O
BRANCH 59 66
ATOM     64   N  A00 X   4      26.143  44.901  23.5890  0.00  0.00     0.000 N
ATOM     66  HD  A00 X   4      25.502  45.482  23.6310  0.00  0.00     0.000 HD
ATOM     66   O  A00 X   4      25.235  42.810  22.8130  0.00  0.00     0.000 OA
ATOM     67   S  A00 X   4      25.807  44.016  22.3000  0.00  0.00     0.000 S
ATOM     68   O  A00 X   4      24.897  44.888  21.6170  0.00  0.00     0.000 OA
ATOM     69   O  A00 X   4      27.109  43.937  21.7000  0.00  0.00     0.000 OA
ENDBRANCH 59 66
BRANCH 62 70
ATOM     70   C  A00 X   4      28.079  43.568  28.8830  0.00  0.00     0.000 C
ATOM     71   O  A00 X   4      26.799  40.655  30.6100  0.00  0.00     0.000 OA
ATOM     72   O  A00 X   4      26.816  42.925  31.2350  0.00  0.00     0.000 OA
ATOM     73   O  A00 X   4      27.588  42.230  29.0660  0.00  0.00     0.000 O
ATOM     74   O  A00 X   4      25.230  42.152  29.5540  0.00  0.00     0.000 OA
ATOM     75   S  A00 X   4      26.505  41.992  30.1750  0.00  0.00     0.000 S
ENDBRANCH 62 70
ENDBRANCH 57 61
ENDBRANCH 41 57
ENDBRANCH 40 44
ENDBRANCH 20 40
ENDBRANCH 19 23
ENDBRANCH 1 19
TORSDOF 14
ENDMDL
MODEL 29
REMARK VINA RESULT:      -5.3     26.495     31.821
ROOT
ATOM      1  C1  A00 X   1      19.361  49.269  32.1910  0.00  0.00     0.000 C
ATOM      2  C2  A00 X   1      18.814  47.997  31.4900  0.00  0.00     0.000 C
ATOM      3  C3  A00 X   1      17.258  47.899  31.3580  0.00  0.00     0.000 C
ATOM      4  C4  A00 X   1      16.449  48.876  32.2490  0.00  0.00     0.000 C
ATOM      5  C5  A00 X   1      17.254  49.356  33.4570  0.00  0.00     0.000 C
ATOM      6  O5  A00 X   1      18.376  50.070  32.8900  0.00  0.00     0.000 O
ATOM      7   O  A00 X   1      16.850  46.584  31.7250  0.00  0.00     0.000 O
ATOM      9  HD  A00 X   1      16.277  47.134  32.0690  0.00  0.00     0.000 HD
ATOM      9   O  A00 X   1      15.983  50.000  31.5030  0.00  0.00     0.000 O
ATOM     11  HD  A00 X   1      15.411  50.551  31.8470  0.00  0.00     0.000 HD
ENDROOT
BRANCH 2 11
ATOM     11   O  A00 X   1      19.401  47.934  30.1750  0.00  0.00     0.000 O
ATOM     12   O  A00 X   1      18.585  46.431  28.4900  0.00  0.00     0.000 OA
ATOM     13   O  A00 X   1      19.566  45.522  30.5220  0.00  0.00     0.000 OA
ATOM     14   O  A00 X   1      20.921  46.666  28.9370  0.00  0.00     0.000 OA
ATOM     15   S  A00 X   1      19.606  46.533  29.5020  0.00  0.00     0.000 S
ENDBRANCH 2 11
BRANCH 5 16
ATOM     16   C  A00 X   1      17.661  48.256  34.4430  0.00  0.00     0.000 C
ATOM     17   O  A00 X   1      18.545  48.490  35.2420  0.00  0.00     0.000 OA
ATOM     18   O  A00 X   1      17.129  47.165  34.4570  0.00  0.00     0.000 OA
ENDBRANCH 5 16
BRANCH 1 19
ATOM     19  O4  A00 X   2      20.512  48.997  33.0280  0.00  0.00     0.000 O
BRANCH 19 23
ATOM     20  C1  A00 X   2      22.110  52.924  33.6570  0.00  0.00     0.000 C
ATOM     21  C2  A00 X   2      21.953  52.442  32.1940  0.00  0.00     0.000 C
ATOM     22  C3  A00 X   2      20.992  51.237  32.1120  0.00  0.00     0.000 C
ATOM     23  C4  A00 X   2      21.448  50.112  33.0690  0.00  0.00     0.000 C
ATOM     24  C5  A00 X   2      21.584  50.724  34.4900  0.00  0.00     0.000 C
ATOM     25  O5  A00 X   2      22.566  51.793  34.4460  0.00  0.00     0.000 O
ATOM     26   O  A00 X   2      20.827  50.872  30.7310  0.00  0.00     0.000 O
ATOM     28  HD  A00 X   2      21.680  50.852  30.5830  0.00  0.00     0.000 HD
BRANCH 21 30
ATOM     28   N  A00 X   2      23.169  53.188  31.8570  0.00  0.00     0.000 N
ATOM     30  HD  A00 X   2      22.772  53.004  31.1090  0.00  0.00     0.000 HD
ATOM     30   O  A00 X   2      22.974  53.938  29.6520  0.00  0.00     0.000 OA
ATOM     31   S  A00 X   2      23.774  53.036  30.4040  0.00  0.00     0.000 S
ATOM     32   O  A00 X   2      25.140  53.429  30.5630  0.00  0.00     0.000 OA
ATOM     33   O  A00 X   2      23.693  51.650  30.0550  0.00  0.00     0.000 OA
ENDBRANCH 21 30
BRANCH 24 34
ATOM     34   C  A00 X   2      21.806  49.759  35.6780  0.00  0.00     0.000 C
ATOM     35   O  A00 X   2      24.268  50.289  38.3070  0.00  0.00     0.000 OA
ATOM     36   O  A00 X   2      23.054  50.029  36.3460  0.00  0.00     0.000 O
ATOM     37   O  A00 X   2      22.588  51.852  37.7360  0.00  0.00     0.000 OA
ATOM     38   S  A00 X   2      22.929  50.467  37.8510  0.00  0.00     0.000 S
ATOM     39   O  A00 X   2      21.963  49.593  38.4470  0.00  0.00     0.000 OA
ENDBRANCH 24 34
BRANCH 20 40
ATOM     40  O4  A00 X   3      20.794  53.306  34.0820  0.00  0.00     0.000 O
BRANCH 40 44
ATOM     41  C1  A00 X   3      17.943  53.819  36.2590  0.00  0.00     0.000 C
ATOM     42  C2  A00 X   3      18.074  54.390  34.8300  0.00  0.00     0.000 C
ATOM     43  C3  A00 X   3      19.425  55.129  34.6490  0.00  0.00     0.000 C
ATOM     44  C4  A00 X   3      20.647  54.332  35.0880  0.00  0.00     0.000 C
ATOM     45  C5  A00 X   3      20.442  53.796  36.5320  0.00  0.00     0.000 C
ATOM     46  O5  A00 X   3      19.152  53.115  36.6600  0.00  0.00     0.000 O
ATOM     47   O  A00 X   3      19.619  55.774  33.3920  0.00  0.00     0.000 O
ATOM     49  HD  A00 X   3      20.427  55.480  33.4930  0.00  0.00     0.000 HD
BRANCH 42 49
ATOM     49   O  A00 X   3      17.955  53.278  33.9170  0.00  0.00     0.000 O
ATOM     50   O  A00 X   3      17.964  52.978  31.5420  0.00  0.00     0.000 OA
ATOM     51   O  A00 X   3      16.789  54.815  32.4550  0.00  0.00     0.000 OA
ATOM     52   O  A00 X   3      15.961  52.637  32.8530  0.00  0.00     0.000 OA
ATOM     53   S  A00 X   3      17.123  53.421  32.6090  0.00  0.00     0.000 S
ENDBRANCH 42 49
BRANCH 45 54
ATOM     54   C  A00 X   3      20.651  54.895  37.5810  0.00  0.00     0.000 C
ATOM     55   O  A00 X   3      20.645  56.066  37.2590  0.00  0.00     0.000 OA
ATOM     56   O  A00 X   3      20.827  54.613  38.7560  0.00  0.00     0.000 OA
ENDBRANCH 45 54
BRANCH 41 57
ATOM     57  O4  A00 X   4      17.511  54.827  37.2000  0.00  0.00     0.000 O
BRANCH 57 61
ATOM     58  C1  A00 X   4      15.483  54.492  40.9960  0.00  0.00     0.000 C
ATOM     59  C2  A00 X   4      16.651  53.522  40.6920  0.00  0.00     0.000 C
ATOM     60  C3  A00 X   4      17.517  53.959  39.4930  0.00  0.00     0.000 C
ATOM     61  C4  A00 X   4      16.653  54.344  38.2720  0.00  0.00     0.000 C
ATOM     62  C5  A00 X   4      15.704  55.471  38.7480  0.00  0.00     0.000 C
ATOM     63  O5  A00 X   4      14.835  54.955  39.7890  0.00  0.00     0.000 O
BRANCH 59 66
ATOM     64   N  A00 X   4      17.673  52.993  41.6140  0.00  0.00     0.000 N
ATOM     66  HD  A00 X   4      18.249  52.432  41.2930  0.00  0.00     0.000 HD
ATOM     66   O  A00 X   4      15.912  51.753  42.6930  0.00  0.00     0.000 OA
ATOM     67   S  A00 X   4      17.184  52.334  42.9880  0.00  0.00     0.000 S
ATOM     68   O  A00 X   4      18.249  51.403  43.2210  0.00  0.00     0.000 OA
ATOM     69   O  A00 X   4      17.212  53.486  43.8440  0.00  0.00     0.000 OA
ENDBRANCH 59 66
BRANCH 62 70
ATOM     70   C  A00 X   4      14.824  56.072  37.6260  0.00  0.00     0.000 C
ATOM     71   O  A00 X   4      12.030  58.356  37.9220  0.00  0.00     0.000 OA
ATOM     72   O  A00 X   4      12.240  56.334  36.7340  0.00  0.00     0.000 OA
ATOM     73   O  A00 X   4      14.000  57.114  38.1760  0.00  0.00     0.000 O
ATOM     74   O  A00 X   4      11.961  56.284  39.1540  0.00  0.00     0.000 OA
ATOM     75   S  A00 X   4      12.446  56.984  38.0090  0.00  0.00     0.000 S
ENDBRANCH 62 70
ENDBRANCH 57 61
ENDBRANCH 41 57
ENDBRANCH 40 44
ENDBRANCH 20 40
ENDBRANCH 19 23
ENDBRANCH 1 19
TORSDOF 14
ENDMDL
MODEL 30
REMARK VINA RESULT:      -5.3     16.187     23.110
ROOT
ATOM      1  C1  A00 X   1      40.674  46.869  67.7140  0.00  0.00     0.000 C
ATOM      2  C2  A00 X   1      40.791  46.168  69.0940  0.00  0.00     0.000 C
ATOM      3  C3  A00 X   1      42.136  46.383  69.8620  0.00  0.00     0.000 C
ATOM      4  C4  A00 X   1      43.307  46.947  69.0160  0.00  0.00     0.000 C
ATOM      5  C5  A00 X   1      43.119  46.682  67.5220  0.00  0.00     0.000 C
ATOM      6  O5  A00 X   1      41.911  47.395  67.1720  0.00  0.00     0.000 O
ATOM      7   O  A00 X   1      42.576  45.128  70.3750  0.00  0.00     0.000 O
ATOM      9  HD  A00 X   1      43.275  45.537  70.0680  0.00  0.00     0.000 HD
ATOM      9   O  A00 X   1      43.486  48.345  69.2390  0.00  0.00     0.000 O
ATOM     11  HD  A00 X   1      44.185  48.754  68.9320  0.00  0.00     0.000 HD
ENDROOT
BRANCH 2 11
ATOM     11   O  A00 X   1      39.702  46.632  69.9150  0.00  0.00     0.000 O
ATOM     12   O  A00 X   1      39.589  46.152  72.2650  0.00  0.00     0.000 OA
ATOM     13   O  A00 X   1      39.475  44.320  70.6690  0.00  0.00     0.000 OA
ATOM     14   O  A00 X   1      37.691  45.884  70.8370  0.00  0.00     0.000 OA
ATOM     15   S  A00 X   1      39.104  45.669  70.9970  0.00  0.00     0.000 S
ENDBRANCH 2 11
BRANCH 5 16
ATOM     16   C  A00 X   1      43.095  45.203  67.1240  0.00  0.00     0.000 C
ATOM     17   O  A00 X   1      42.746  44.910  65.9990  0.00  0.00     0.000 OA
ATOM     18   O  A00 X   1      43.417  44.317  67.8900  0.00  0.00     0.000 OA
ENDBRANCH 5 16
BRANCH 1 19
ATOM     19  O4  A00 X   2      39.968  46.068  66.7350  0.00  0.00     0.000 O
BRANCH 19 23
ATOM     20  C1  A00 X   2      36.038  46.465  65.0720  0.00  0.00     0.000 C
ATOM     21  C2  A00 X   2      36.982  47.688  64.9750  0.00  0.00     0.000 C
ATOM     22  C3  A00 X   2      38.449  47.270  65.2070  0.00  0.00     0.000 C
ATOM     23  C4  A00 X   2      38.592  46.505  66.5420  0.00  0.00     0.000 C
ATOM     24  C5  A00 X   2      37.587  45.322  66.5220  0.00  0.00     0.000 C
ATOM     25  O5  A00 X   2      36.244  45.852  66.3720  0.00  0.00     0.000 O
ATOM     26   O  A00 X   2      39.290  48.424  65.0400  0.00  0.00     0.000 O
ATOM     28  HD  A00 X   2      38.811  48.912  65.5710  0.00  0.00     0.000 HD
BRANCH 21 30
ATOM     28   N  A00 X   2      35.822  48.565  65.1580  0.00  0.00     0.000 N
ATOM     30  HD  A00 X   2      36.461  49.058  64.8450  0.00  0.00     0.000 HD
ATOM     30   O  A00 X   2      36.199  50.531  63.9540  0.00  0.00     0.000 OA
ATOM     31   S  A00 X   2      36.062  50.120  65.3060  0.00  0.00     0.000 S
ATOM     32   O  A00 X   2      34.879  50.585  65.9620  0.00  0.00     0.000 OA
ATOM     33   O  A00 X   2      37.202  50.293  66.1560  0.00  0.00     0.000 OA
ENDBRANCH 21 30
BRANCH 24 34
ATOM     34   C  A00 X   2      37.689  44.263  67.6450  0.00  0.00     0.000 C
ATOM     35   O  A00 X   2      37.007  40.717  67.1750  0.00  0.00     0.000 OA
ATOM     36   O  A00 X   2      37.032  43.036  67.2680  0.00  0.00     0.000 O
ATOM     37   O  A00 X   2      38.583  41.940  65.9040  0.00  0.00     0.000 OA
ATOM     38   S  A00 X   2      37.965  41.774  67.1840  0.00  0.00     0.000 S
ATOM     39   O  A00 X   2      38.810  41.817  68.3400  0.00  0.00     0.000 OA
ENDBRANCH 24 34
BRANCH 20 40
ATOM     40  O4  A00 X   3      36.468  45.562  64.0430  0.00  0.00     0.000 O
BRANCH 40 44
ATOM     41  C1  A00 X   3      37.030  43.189  61.3630  0.00  0.00     0.000 C
ATOM     42  C2  A00 X   3      36.338  44.559  61.1950  0.00  0.00     0.000 C
ATOM     43  C3  A00 X   3      35.206  44.741  62.2380  0.00  0.00     0.000 C
ATOM     44  C4  A00 X   3      35.618  44.453  63.6770  0.00  0.00     0.000 C
ATOM     45  C5  A00 X   3      36.301  43.059  63.7660  0.00  0.00     0.000 C
ATOM     46  O5  A00 X   3      37.354  42.928  62.7570  0.00  0.00     0.000 O
ATOM     47   O  A00 X   3      34.438  45.937  62.1220  0.00  0.00     0.000 O
ATOM     49  HD  A00 X   3      34.476  45.912  62.9870  0.00  0.00     0.000 HD
BRANCH 42 49
ATOM     49   O  A00 X   3      37.359  45.570  61.3420  0.00  0.00     0.000 O
ATOM     50   O  A00 X   3      37.442  47.962  61.3360  0.00  0.00     0.000 OA
ATOM     51   O  A00 X   3      36.078  46.864  59.7480  0.00  0.00     0.000 OA
ATOM     52   O  A00 X   3      38.424  46.657  59.5530  0.00  0.00     0.000 OA
ATOM     53   S  A00 X   3      37.337  46.846  60.4500  0.00  0.00     0.000 S
ENDBRANCH 42 49
BRANCH 45 54
ATOM     54   C  A00 X   3      35.275  41.921  63.7180  0.00  0.00     0.000 C
ATOM     55   O  A00 X   3      34.134  42.130  63.3590  0.00  0.00     0.000 OA
ATOM     56   O  A00 X   3      35.586  40.785  64.0410  0.00  0.00     0.000 OA
ENDBRANCH 45 54
BRANCH 41 57
ATOM     57  O4  A00 X   4      36.281  42.130  60.7260  0.00  0.00     0.000 O
BRANCH 57 61
ATOM     58  C1  A00 X   4      37.432  38.475  58.7390  0.00  0.00     0.000 C
ATOM     59  C2  A00 X   4      37.577  38.559  60.2790  0.00  0.00     0.000 C
ATOM     60  C3  A00 X   4      36.814  39.744  60.9040  0.00  0.00     0.000 C
ATOM     61  C4  A00 X   4      37.086  41.063  60.1500  0.00  0.00     0.000 C
ATOM     62  C5  A00 X   4      36.674  40.816  58.6780  0.00  0.00     0.000 C
ATOM     63  O5  A00 X   4      37.515  39.777  58.1150  0.00  0.00     0.000 O
BRANCH 59 66
ATOM     64   N  A00 X   4      39.012  38.774  60.5370  0.00  0.00     0.000 N
ATOM     66  HD  A00 X   4      39.480  39.146  59.9090  0.00  0.00     0.000 HD
ATOM     66   O  A00 X   4      39.294  36.387  60.3940  0.00  0.00     0.000 OA
ATOM     67   S  A00 X   4      39.891  37.527  61.0160  0.00  0.00     0.000 S
ATOM     68   O  A00 X   4      41.177  37.906  60.5060  0.00  0.00     0.000 OA
ATOM     69   O  A00 X   4      39.761  37.658  62.4390  0.00  0.00     0.000 OA
ENDBRANCH 59 66
BRANCH 62 70
ATOM     70   C  A00 X   4      36.772  42.069  57.7750  0.00  0.00     0.000 C
ATOM     71   O  A00 X   4      36.417  42.301  54.1800  0.00  0.00     0.000 OA
ATOM     72   O  A00 X   4      38.078  43.151  55.6150  0.00  0.00     0.000 OA
ATOM     73   O  A00 X   4      36.321  41.738  56.4520  0.00  0.00     0.000 O
ATOM     74   O  A00 X   4      38.052  40.774  55.0800  0.00  0.00     0.000 OA
ATOM     75   S  A00 X   4      37.309  41.980  55.2580  0.00  0.00     0.000 S
ENDBRANCH 62 70
ENDBRANCH 57 61
ENDBRANCH 41 57
ENDBRANCH 40 44
ENDBRANCH 20 40
ENDBRANCH 19 23
ENDBRANCH 1 19
TORSDOF 14
ENDMDL
MODEL 31
REMARK VINA RESULT:      -5.2     35.296     40.483
ROOT
ATOM      1  C1  A00 X   1       8.372  39.598  17.7160  0.00  0.00     0.000 C
ATOM      2  C2  A00 X   1       7.450  39.865  16.4960  0.00  0.00     0.000 C
ATOM      3  C3  A00 X   1       6.112  40.617  16.7960  0.00  0.00     0.000 C
ATOM      4  C4  A00 X   1       5.700  40.677  18.2900  0.00  0.00     0.000 C
ATOM      5  C5  A00 X   1       6.348  39.563  19.1120  0.00  0.00     0.000 C
ATOM      6  O5  A00 X   1       7.768  39.814  19.0150  0.00  0.00     0.000 O
ATOM      7   O  A00 X   1       5.052  39.957  16.1100  0.00  0.00     0.000 O
ATOM      9  HD  A00 X   1       4.755  40.168  16.8950  0.00  0.00     0.000 HD
ATOM      9   O  A00 X   1       6.009  41.945  18.8670  0.00  0.00     0.000 O
ATOM     11  HD  A00 X   1       5.713  42.156  19.6520  0.00  0.00     0.000 HD
ENDROOT
BRANCH 2 11
ATOM     11   O  A00 X   1       8.207  40.621  15.5310  0.00  0.00     0.000 O
ATOM     12   O  A00 X   1       7.147  41.812  13.7350  0.00  0.00     0.000 OA
ATOM     13   O  A00 X   1       6.982  39.386  13.8160  0.00  0.00     0.000 OA
ATOM     14   O  A00 X   1       9.068  40.437  13.3680  0.00  0.00     0.000 OA
ATOM     15   S  A00 X   1       7.792  40.555  14.0210  0.00  0.00     0.000 S
ENDBRANCH 2 11
BRANCH 5 16
ATOM     16   C  A00 X   1       5.947  38.141  18.7070  0.00  0.00     0.000 C
ATOM     17   O  A00 X   1       6.576  37.208  19.1630  0.00  0.00     0.000 OA
ATOM     18   O  A00 X   1       5.022  37.915  17.9530  0.00  0.00     0.000 OA
ENDBRANCH 5 16
BRANCH 1 19
ATOM     19  O4  A00 X   2       9.034  38.311  17.6480  0.00  0.00     0.000 O
BRANCH 19 23
ATOM     20  C1  A00 X   2      12.814  39.863  18.9390  0.00  0.00     0.000 C
ATOM     21  C2  A00 X   2      12.624  39.613  17.4240  0.00  0.00     0.000 C
ATOM     22  C3  A00 X   2      11.128  39.481  17.0720  0.00  0.00     0.000 C
ATOM     23  C4  A00 X   2      10.457  38.399  17.9470  0.00  0.00     0.000 C
ATOM     24  C5  A00 X   2      10.734  38.752  19.4340  0.00  0.00     0.000 C
ATOM     25  O5  A00 X   2      12.169  38.772  19.6490  0.00  0.00     0.000 O
ATOM     26   O  A00 X   2      11.001  39.320  15.6480  0.00  0.00     0.000 O
ATOM     28  HD  A00 X   2      11.588  38.683  15.6180  0.00  0.00     0.000 HD
BRANCH 21 30
ATOM     28   N  A00 X   2      12.684  40.179  16.0720  0.00  0.00     0.000 N
ATOM     30  HD  A00 X   2      13.502  40.061  16.3310  0.00  0.00     0.000 HD
ATOM     30   O  A00 X   2      14.839  39.842  15.2370  0.00  0.00     0.000 OA
ATOM     31   S  A00 X   2      14.003  40.924  15.6190  0.00  0.00     0.000 S
ATOM     32   O  A00 X   2      13.567  41.760  14.5440  0.00  0.00     0.000 OA
ATOM     33   O  A00 X   2      14.439  41.723  16.7260  0.00  0.00     0.000 OA
ENDBRANCH 21 30
BRANCH 24 34
ATOM     34   C  A00 X   2       9.978  37.954  20.5220  0.00  0.00     0.000 C
ATOM     35   O  A00 X   2       9.885  34.318  20.6920  0.00  0.00     0.000 OA
ATOM     36   O  A00 X   2       9.820  36.572  20.1420  0.00  0.00     0.000 O
ATOM     37   O  A00 X   2      11.879  35.589  20.6560  0.00  0.00     0.000 OA
ATOM     38   S  A00 X   2      10.517  35.531  21.0930  0.00  0.00     0.000 S
ATOM     39   O  A00 X   2      10.232  35.951  22.4320  0.00  0.00     0.000 OA
ENDBRANCH 24 34
BRANCH 20 40
ATOM     40  O4  A00 X   3      12.127  41.091  19.2190  0.00  0.00     0.000 O
BRANCH 40 44
ATOM     41  C1  A00 X   3      10.166  43.290  21.3270  0.00  0.00     0.000 C
ATOM     42  C2  A00 X   3      10.708  43.662  19.9300  0.00  0.00     0.000 C
ATOM     43  C3  A00 X   3      12.225  43.359  19.8240  0.00  0.00     0.000 C
ATOM     44  C4  A00 X   3      12.622  41.955  20.2640  0.00  0.00     0.000 C
ATOM     45  C5  A00 X   3      12.045  41.657  21.6770  0.00  0.00     0.000 C
ATOM     46  O5  A00 X   3      10.615  41.968  21.7330  0.00  0.00     0.000 O
ATOM     47   O  A00 X   3      12.854  43.744  18.6040  0.00  0.00     0.000 O
ATOM     49  HD  A00 X   3      13.276  42.996  18.7160  0.00  0.00     0.000 HD
BRANCH 42 49
ATOM     49   O  A00 X   3       9.949  42.902  18.9640  0.00  0.00     0.000 O
ATOM     50   O  A00 X   3       9.863  42.726  16.5790  0.00  0.00     0.000 OA
ATOM     51   O  A00 X   3      10.080  44.867  17.5580  0.00  0.00     0.000 OA
ATOM     52   O  A00 X   3       8.046  43.698  17.8430  0.00  0.00     0.000 OA
ATOM     53   S  A00 X   3       9.450  43.574  17.6520  0.00  0.00     0.000 S
ENDBRANCH 42 49
BRANCH 45 54
ATOM     54   C  A00 X   3      12.856  42.348  22.7790  0.00  0.00     0.000 C
ATOM     55   O  A00 X   3      13.561  43.303  22.5220  0.00  0.00     0.000 OA
ATOM     56   O  A00 X   3      12.810  41.951  23.9330  0.00  0.00     0.000 OA
ENDBRANCH 45 54
BRANCH 41 57
ATOM     57  O4  A00 X   4      10.435  44.326  22.2980  0.00  0.00     0.000 O
BRANCH 57 61
ATOM     58  C1  A00 X   4       8.496  45.507  25.9700  0.00  0.00     0.000 C
ATOM     59  C2  A00 X   4       9.221  44.139  25.9210  0.00  0.00     0.000 C
ATOM     60  C3  A00 X   4      10.165  43.986  24.7110  0.00  0.00     0.000 C
ATOM     61  C4  A00 X   4       9.480  44.409  23.3930  0.00  0.00     0.000 C
ATOM     62  C5  A00 X   4       9.019  45.875  23.5930  0.00  0.00     0.000 C
ATOM     63  O5  A00 X   4       8.041  45.926  24.6630  0.00  0.00     0.000 O
BRANCH 59 66
ATOM     64   N  A00 X   4       8.808  42.725  25.9880  0.00  0.00     0.000 N
ATOM     66  HD  A00 X   4       8.158  42.474  25.4740  0.00  0.00     0.000 HD
ATOM     66   O  A00 X   4       7.922  43.191  28.1780  0.00  0.00     0.000 OA
ATOM     67   S  A00 X   4       8.459  42.105  27.4200  0.00  0.00     0.000 S
ATOM     68   O  A00 X   4       7.518  41.092  27.0400  0.00  0.00     0.000 OA
ATOM     69   O  A00 X   4       9.748  41.598  27.7970  0.00  0.00     0.000 OA
ENDBRANCH 59 66
BRANCH 62 70
ATOM     70   C  A00 X   4       8.401  46.520  22.3300  0.00  0.00     0.000 C
ATOM     71   O  A00 X   4       5.275  45.727  20.6850  0.00  0.00     0.000 OA
ATOM     72   O  A00 X   4       7.445  45.992  19.8100  0.00  0.00     0.000 OA
ATOM     73   O  A00 X   4       7.046  46.067  22.1810  0.00  0.00     0.000 O
ATOM     74   O  A00 X   4       6.879  43.959  21.0270  0.00  0.00     0.000 OA
ATOM     75   S  A00 X   4       6.654  45.356  20.8390  0.00  0.00     0.000 S
ENDBRANCH 62 70
ENDBRANCH 57 61
ENDBRANCH 41 57
ENDBRANCH 40 44
ENDBRANCH 20 40
ENDBRANCH 19 23
ENDBRANCH 1 19
TORSDOF 14
ENDMDL
MODEL 32
REMARK VINA RESULT:      -5.1     26.327     31.359
ROOT
ATOM      1  C1  A00 X   1      20.604  50.775  33.5560  0.00  0.00     0.000 C
ATOM      2  C2  A00 X   1      20.023  50.243  32.2190  0.00  0.00     0.000 C
ATOM      3  C3  A00 X   1      18.466  50.304  32.0740  0.00  0.00     0.000 C
ATOM      4  C4  A00 X   1      17.681  50.534  33.3900  0.00  0.00     0.000 C
ATOM      5  C5  A00 X   1      18.486  50.123  34.6230  0.00  0.00     0.000 C
ATOM      6  O5  A00 X   1      19.639  50.995  34.6150  0.00  0.00     0.000 O
ATOM      7   O  A00 X   1      18.008  49.064  31.5400  0.00  0.00     0.000 O
ATOM      9  HD  A00 X   1      17.450  49.297  32.1600  0.00  0.00     0.000 HD
ATOM      9   O  A00 X   1      17.263  51.893  33.5180  0.00  0.00     0.000 O
ATOM     11  HD  A00 X   1      16.705  52.126  34.1390  0.00  0.00     0.000 HD
ENDROOT
BRANCH 2 11
ATOM     11   O  A00 X   1      20.623  50.998  31.1480  0.00  0.00     0.000 O
ATOM     12   O  A00 X   1      19.915  50.751  28.8670  0.00  0.00     0.000 OA
ATOM     13   O  A00 X   1      20.933  48.860  30.0090  0.00  0.00     0.000 OA
ATOM     14   O  A00 X   1      22.229  50.779  29.4670  0.00  0.00     0.000 OA
ATOM     15   S  A00 X   1      20.919  50.279  29.7870  0.00  0.00     0.000 S
ENDBRANCH 2 11
BRANCH 5 16
ATOM     16   C  A00 X   1      18.843  48.635  34.6970  0.00  0.00     0.000 C
ATOM     17   O  A00 X   1      18.186  47.847  34.0480  0.00  0.00     0.000 OA
ATOM     18   O  A00 X   1      19.762  48.218  35.3740  0.00  0.00     0.000 OA
ENDBRANCH 5 16
BRANCH 1 19
ATOM     19  O4  A00 X   2      21.735  50.000  34.0240  0.00  0.00     0.000 O
BRANCH 19 23
ATOM     20  C1  A00 X   2      23.890  53.426  35.4320  0.00  0.00     0.000 C
ATOM     21  C2  A00 X   2      24.271  52.864  34.0400  0.00  0.00     0.000 C
ATOM     22  C3  A00 X   2      23.158  51.945  33.4960  0.00  0.00     0.000 C
ATOM     23  C4  A00 X   2      22.820  50.836  34.5180  0.00  0.00     0.000 C
ATOM     24  C5  A00 X   2      22.476  51.524  35.8680  0.00  0.00     0.000 C
ATOM     25  O5  A00 X   2      23.625  52.296  36.3050  0.00  0.00     0.000 O
ATOM     26   O  A00 X   2      23.526  51.505  32.1770  0.00  0.00     0.000 O
ATOM     28  HD  A00 X   2      24.316  51.253  32.4280  0.00  0.00     0.000 HD
BRANCH 21 30
ATOM     28   N  A00 X   2      25.662  53.238  34.3110  0.00  0.00     0.000 N
ATOM     30  HD  A00 X   2      25.603  53.092  33.4590  0.00  0.00     0.000 HD
ATOM     30   O  A00 X   2      26.672  53.801  32.2800  0.00  0.00     0.000 OA
ATOM     31   S  A00 X   2      26.779  52.800  33.2810  0.00  0.00     0.000 S
ATOM     32   O  A00 X   2      27.984  52.841  34.0510  0.00  0.00     0.000 OA
ATOM     33   O  A00 X   2      26.487  51.454  32.8870  0.00  0.00     0.000 OA
ENDBRANCH 21 30
BRANCH 24 34
ATOM     34   C  A00 X   2      21.879  50.650  36.9960  0.00  0.00     0.000 C
ATOM     35   O  A00 X   2      23.443  50.170  40.2490  0.00  0.00     0.000 OA
ATOM     36   O  A00 X   2      22.863  50.362  38.0100  0.00  0.00     0.000 O
ATOM     37   O  A00 X   2      22.911  52.287  39.3380  0.00  0.00     0.000 OA
ATOM     38   S  A00 X   2      22.528  50.912  39.4440  0.00  0.00     0.000 S
ATOM     39   O  A00 X   2      21.145  50.625  39.6760  0.00  0.00     0.000 OA
ENDBRANCH 24 34
BRANCH 20 40
ATOM     40  O4  A00 X   3      22.681  54.172  35.2310  0.00  0.00     0.000 O
BRANCH 40 44
ATOM     41  C1  A00 X   3      19.319  54.739  36.4580  0.00  0.00     0.000 C
ATOM     42  C2  A00 X   3      19.916  55.392  35.1920  0.00  0.00     0.000 C
ATOM     43  C3  A00 X   3      21.289  56.045  35.4990  0.00  0.00     0.000 C
ATOM     44  C4  A00 X   3      22.274  55.138  36.2240  0.00  0.00     0.000 C
ATOM     45  C5  A00 X   3      21.603  54.524  37.4860  0.00  0.00     0.000 C
ATOM     46  O5  A00 X   3      20.308  53.929  37.1520  0.00  0.00     0.000 O
ATOM     47   O  A00 X   3      21.895  56.755  34.4210  0.00  0.00     0.000 O
ATOM     49  HD  A00 X   3      22.617  56.399  34.7410  0.00  0.00     0.000 HD
BRANCH 42 49
ATOM     49   O  A00 X   3      20.037  54.352  34.1970  0.00  0.00     0.000 O
ATOM     50   O  A00 X   3      20.897  54.177  31.9700  0.00  0.00     0.000 OA
ATOM     51   O  A00 X   3      19.650  56.095  32.5640  0.00  0.00     0.000 OA
ATOM     52   O  A00 X   3      18.528  54.019  32.4290  0.00  0.00     0.000 OA
ATOM     53   S  A00 X   3      19.767  54.665  32.6960  0.00  0.00     0.000 S
ENDBRANCH 42 49
BRANCH 45 54
ATOM     54   C  A00 X   3      21.524  55.537  38.6350  0.00  0.00     0.000 C
ATOM     55   O  A00 X   3      21.781  56.708  38.4470  0.00  0.00     0.000 OA
ATOM     56   O  A00 X   3      21.202  55.183  39.7590  0.00  0.00     0.000 OA
ENDBRANCH 45 54
BRANCH 41 57
ATOM     57  O4  A00 X   4      18.661  55.712  37.3000  0.00  0.00     0.000 O
BRANCH 57 61
ATOM     58  C1  A00 X   4      15.564  55.192  40.2620  0.00  0.00     0.000 C
ATOM     59  C2  A00 X   4      16.656  54.101  40.1320  0.00  0.00     0.000 C
ATOM     60  C3  A00 X   4      17.884  54.554  39.3170  0.00  0.00     0.000 C
ATOM     61  C4  A00 X   4      17.474  55.229  37.9900  0.00  0.00     0.000 C
ATOM     62  C5  A00 X   4      16.555  56.417  38.3710  0.00  0.00     0.000 C
ATOM     63  O5  A00 X   4      15.363  55.908  39.0220  0.00  0.00     0.000 O
BRANCH 59 66
ATOM     64   N  A00 X   4      17.319  52.910  40.6930  0.00  0.00     0.000 N
ATOM     66  HD  A00 X   4      17.608  52.313  40.1360  0.00  0.00     0.000 HD
ATOM     66   O  A00 X   4      15.161  52.217  41.5090  0.00  0.00     0.000 OA
ATOM     67   S  A00 X   4      16.549  52.075  41.8200  0.00  0.00     0.000 S
ATOM     68   O  A00 X   4      17.101  50.771  41.5980  0.00  0.00     0.000 OA
ATOM     69   O  A00 X   4      17.041  52.729  43.0000  0.00  0.00     0.000 OA
ENDBRANCH 59 66
BRANCH 62 70
ATOM     70   C  A00 X   4      16.124  57.292  37.1710  0.00  0.00     0.000 C
ATOM     71   O  A00 X   4      14.337  56.308  34.1800  0.00  0.00     0.000 OA
ATOM     72   O  A00 X   4      16.310  57.566  34.4440  0.00  0.00     0.000 OA
ATOM     73   O  A00 X   4      15.228  56.543  36.3330  0.00  0.00     0.000 O
ATOM     74   O  A00 X   4      16.375  55.148  34.7390  0.00  0.00     0.000 OA
ATOM     75   S  A00 X   4      15.618  56.355  34.8260  0.00  0.00     0.000 S
ENDBRANCH 62 70
ENDBRANCH 57 61
ENDBRANCH 41 57
ENDBRANCH 40 44
ENDBRANCH 20 40
ENDBRANCH 19 23
ENDBRANCH 1 19
TORSDOF 14
ENDMDL
MODEL 33
REMARK VINA RESULT:      -5.1     22.667     28.872
ROOT
ATOM      1  C1  A00 X   1      17.929  47.805  31.1220  0.00  0.00     0.000 C
ATOM      2  C2  A00 X   1      17.509  49.245  30.7220  0.00  0.00     0.000 C
ATOM      3  C3  A00 X   1      16.054  49.408  30.1720  0.00  0.00     0.000 C
ATOM      4  C4  A00 X   1      15.347  48.094  29.7500  0.00  0.00     0.000 C
ATOM      5  C5  A00 X   1      16.343  46.979  29.4340  0.00  0.00     0.000 C
ATOM      6  O5  A00 X   1      17.043  46.748  30.6770  0.00  0.00     0.000 O
ATOM      7   O  A00 X   1      16.094  50.236  29.0120  0.00  0.00     0.000 O
ATOM      9  HD  A00 X   1      15.539  49.592  28.8470  0.00  0.00     0.000 HD
ATOM      9   O  A00 X   1      14.428  47.652  30.7490  0.00  0.00     0.000 O
ATOM     11  HD  A00 X   1      13.874  47.007  30.5840  0.00  0.00     0.000 HD
ENDROOT
BRANCH 2 11
ATOM     11   O  A00 X   1      17.670  50.086  31.8810  0.00  0.00     0.000 O
ATOM     12   O  A00 X   1      17.766  49.182  34.1040  0.00  0.00     0.000 OA
ATOM     13   O  A00 X   1      15.723  48.937  32.8070  0.00  0.00     0.000 OA
ATOM     14   O  A00 X   1      16.411  51.079  33.5780  0.00  0.00     0.000 OA
ATOM     15   S  A00 X   1      16.837  49.768  33.1710  0.00  0.00     0.000 S
ENDBRANCH 2 11
BRANCH 5 16
ATOM     16   C  A00 X   1      17.274  47.258  28.2490  0.00  0.00     0.000 C
ATOM     17   O  A00 X   1      18.222  46.522  28.0690  0.00  0.00     0.000 OA
ATOM     18   O  A00 X   1      17.093  48.183  27.4820  0.00  0.00     0.000 OA
ENDBRANCH 5 16
BRANCH 1 19
ATOM     19  O4  A00 X   2      19.308  47.511  30.7930  0.00  0.00     0.000 O
BRANCH 19 23
ATOM     20  C1  A00 X   2      22.902  49.759  31.4260  0.00  0.00     0.000 C
ATOM     21  C2  A00 X   2      22.021  49.456  32.6630  0.00  0.00     0.000 C
ATOM     22  C3  A00 X   2      21.034  48.308  32.3660  0.00  0.00     0.000 C
ATOM     23  C4  A00 X   2      20.204  48.618  31.1000  0.00  0.00     0.000 C
ATOM     24  C5  A00 X   2      21.197  48.920  29.9440  0.00  0.00     0.000 C
ATOM     25  O5  A00 X   2      22.014  50.060  30.3170  0.00  0.00     0.000 O
ATOM     26   O  A00 X   2      20.289  48.020  33.5620  0.00  0.00     0.000 O
ATOM     28  HD  A00 X   2      20.078  48.850  33.6910  0.00  0.00     0.000 HD
BRANCH 21 30
ATOM     28   N  A00 X   2      22.471  50.740  33.2080  0.00  0.00     0.000 N
ATOM     30  HD  A00 X   2      22.091  50.312  33.8580  0.00  0.00     0.000 HD
ATOM     30   O  A00 X   2      22.450  50.588  35.5400  0.00  0.00     0.000 OA
ATOM     31   S  A00 X   2      21.773  51.297  34.5130  0.00  0.00     0.000 S
ATOM     32   O  A00 X   2      22.044  52.701  34.4690  0.00  0.00     0.000 OA
ATOM     33   O  A00 X   2      20.367  51.057  34.3760  0.00  0.00     0.000 OA
ENDBRANCH 21 30
BRANCH 24 34
ATOM     34   C  A00 X   2      20.628  49.036  28.5100  0.00  0.00     0.000 C
ATOM     35   O  A00 X   2      18.305  51.628  27.4400  0.00  0.00     0.000 OA
ATOM     36   O  A00 X   2      19.487  49.916  28.4710  0.00  0.00     0.000 O
ATOM     37   O  A00 X   2      20.410  52.065  28.4270  0.00  0.00     0.000 OA
ATOM     38   S  A00 X   2      19.658  51.196  27.5730  0.00  0.00     0.000 S
ATOM     39   O  A00 X   2      20.278  50.760  26.3590  0.00  0.00     0.000 OA
ENDBRANCH 24 34
BRANCH 20 40
ATOM     40  O4  A00 X   3      23.617  48.545  31.1530  0.00  0.00     0.000 O
BRANCH 40 44
ATOM     41  C1  A00 X   3      25.676  45.742  30.1380  0.00  0.00     0.000 C
ATOM     42  C2  A00 X   3      26.116  46.847  31.1230  0.00  0.00     0.000 C
ATOM     43  C3  A00 X   3      25.862  48.256  30.5270  0.00  0.00     0.000 C
ATOM     44  C4  A00 X   3      24.456  48.468  29.9810  0.00  0.00     0.000 C
ATOM     45  C5  A00 X   3      24.088  47.322  28.9970  0.00  0.00     0.000 C
ATOM     46  O5  A00 X   3      24.353  46.013  29.5960  0.00  0.00     0.000 O
ATOM     47   O  A00 X   3      26.312  49.356  31.3150  0.00  0.00     0.000 O
ATOM     49  HD  A00 X   3      25.573  49.712  31.0360  0.00  0.00     0.000 HD
BRANCH 42 49
ATOM     49   O  A00 X   3      25.370  46.648  32.3440  0.00  0.00     0.000 O
ATOM     50   O  A00 X   3      25.330  47.626  34.5280  0.00  0.00     0.000 OA
ATOM     51   O  A00 X   3      27.419  47.222  33.4970  0.00  0.00     0.000 OA
ATOM     52   O  A00 X   3      26.115  45.368  34.1660  0.00  0.00     0.000 OA
ATOM     53   S  A00 X   3      26.087  46.719  33.7240  0.00  0.00     0.000 S
ENDBRANCH 42 49
BRANCH 45 54
ATOM     54   C  A00 X   3      24.762  47.508  27.6320  0.00  0.00     0.000 C
ATOM     55   O  A00 X   3      24.318  46.962  26.6430  0.00  0.00     0.000 OA
ATOM     56   O  A00 X   3      25.757  48.207  27.5160  0.00  0.00     0.000 OA
ENDBRANCH 45 54
BRANCH 41 57
ATOM     57  O4  A00 X   4      26.682  45.491  29.1320  0.00  0.00     0.000 O
BRANCH 57 61
ATOM     58  C1  A00 X   4      27.539  42.090  26.6160  0.00  0.00     0.000 C
ATOM     59  C2  A00 X   4      26.506  43.134  26.1240  0.00  0.00     0.000 C
ATOM     60  C3  A00 X   4      26.548  44.459  26.9130  0.00  0.00     0.000 C
ATOM     61  C4  A00 X   4      26.558  44.218  28.4380  0.00  0.00     0.000 C
ATOM     62  C5  A00 X   4      27.790  43.325  28.7300  0.00  0.00     0.000 C
ATOM     63  O5  A00 X   4      27.625  42.050  28.0580  0.00  0.00     0.000 O
BRANCH 59 66
ATOM     64   N  A00 X   4      26.315  43.601  24.7390  0.00  0.00     0.000 N
ATOM     66  HD  A00 X   4      25.695  44.189  24.5970  0.00  0.00     0.000 HD
ATOM     66   O  A00 X   4      25.435  41.418  24.2310  0.00  0.00     0.000 OA
ATOM     67   S  A00 X   4      26.108  42.505  23.5920  0.00  0.00     0.000 S
ATOM     68   O  A00 X   4      25.320  43.255  22.6570  0.00  0.00     0.000 OA
ATOM     69   O  A00 X   4      27.470  42.304  23.1850  0.00  0.00     0.000 OA
ENDBRANCH 59 66
BRANCH 62 70
ATOM     70   C  A00 X   4      28.035  43.060  30.2340  0.00  0.00     0.000 C
ATOM     71   O  A00 X   4      28.815  39.933  31.8820  0.00  0.00     0.000 OA
ATOM     72   O  A00 X   4      27.206  41.574  32.3900  0.00  0.00     0.000 OA
ATOM     73   O  A00 X   4      28.554  41.731  30.4040  0.00  0.00     0.000 O
ATOM     74   O  A00 X   4      26.828  40.055  30.5230  0.00  0.00     0.000 OA
ATOM     75   S  A00 X   4      27.767  40.751  31.3420  0.00  0.00     0.000 S
ENDBRANCH 62 70
ENDBRANCH 57 61
ENDBRANCH 41 57
ENDBRANCH 40 44
ENDBRANCH 20 40
ENDBRANCH 19 23
ENDBRANCH 1 19
TORSDOF 14
ENDMDL
MODEL 34
REMARK VINA RESULT:      -5.1     15.914     20.821
ROOT
ATOM      1  C1  A00 X   1      35.913  43.265  61.1340  0.00  0.00     0.000 C
ATOM      2  C2  A00 X   1      37.326  42.808  61.5840  0.00  0.00     0.000 C
ATOM      3  C3  A00 X   1      37.522  42.590  63.1210  0.00  0.00     0.000 C
ATOM      4  C4  A00 X   1      36.421  43.197  64.0270  0.00  0.00     0.000 C
ATOM      5  C5  A00 X   1      35.665  44.332  63.3360  0.00  0.00     0.000 C
ATOM      6  O5  A00 X   1      35.032  43.709  62.1960  0.00  0.00     0.000 O
ATOM      7   O  A00 X   1      38.751  43.194  63.5160  0.00  0.00     0.000 O
ATOM      9  HD  A00 X   1      38.168  43.374  64.1310  0.00  0.00     0.000 HD
ATOM      9   O  A00 X   1      35.498  42.201  64.4670  0.00  0.00     0.000 O
ATOM     11  HD  A00 X   1      34.916  42.381  65.0830  0.00  0.00     0.000 HD
ENDROOT
BRANCH 2 11
ATOM     11   O  A00 X   1      37.631  41.581  60.8930  0.00  0.00     0.000 O
ATOM     12   O  A00 X   1      35.911  40.181  59.9720  0.00  0.00     0.000 OA
ATOM     13   O  A00 X   1      36.015  40.512  62.3800  0.00  0.00     0.000 OA
ATOM     14   O  A00 X   1      37.711  39.277  61.2590  0.00  0.00     0.000 OA
ATOM     15   S  A00 X   1      36.731  40.324  61.1480  0.00  0.00     0.000 S
ENDBRANCH 2 11
BRANCH 5 16
ATOM     16   C  A00 X   1      36.517  45.552  62.9740  0.00  0.00     0.000 C
ATOM     17   O  A00 X   1      36.017  46.432  62.3040  0.00  0.00     0.000 OA
ATOM     18   O  A00 X   1      37.670  45.673  63.3390  0.00  0.00     0.000 OA
ENDBRANCH 5 16
BRANCH 1 19
ATOM     19  O4  A00 X   2      35.951  44.219  60.0450  0.00  0.00     0.000 O
BRANCH 19 23
ATOM     20  C1  A00 X   2      38.421  44.395  56.5470  0.00  0.00     0.000 C
ATOM     21  C2  A00 X   2      37.670  43.070  56.8260  0.00  0.00     0.000 C
ATOM     22  C3  A00 X   2      36.521  43.292  57.8310  0.00  0.00     0.000 C
ATOM     23  C4  A00 X   2      37.046  43.966  59.1190  0.00  0.00     0.000 C
ATOM     24  C5  A00 X   2      37.790  45.265  58.7040  0.00  0.00     0.000 C
ATOM     25  O5  A00 X   2      38.887  44.913  57.8220  0.00  0.00     0.000 O
ATOM     26   O  A00 X   2      35.813  42.052  58.0040  0.00  0.00     0.000 O
ATOM     28  HD  A00 X   2      36.538  41.601  58.1520  0.00  0.00     0.000 HD
BRANCH 21 30
ATOM     28   N  A00 X   2      38.817  42.332  56.2900  0.00  0.00     0.000 N
ATOM     30  HD  A00 X   2      38.148  41.782  56.3000  0.00  0.00     0.000 HD
ATOM     30   O  A00 X   2      38.017  40.400  55.2480  0.00  0.00     0.000 OA
ATOM     31   S  A00 X   2      38.809  40.753  56.3720  0.00  0.00     0.000 S
ATOM     32   O  A00 X   2      40.192  40.401  56.2710  0.00  0.00     0.000 OA
ATOM     33   O  A00 X   2      38.299  40.399  57.6630  0.00  0.00     0.000 OA
ENDBRANCH 21 30
BRANCH 24 34
ATOM     34   C  A00 X   2      38.215  46.246  59.8220  0.00  0.00     0.000 C
ATOM     35   O  A00 X   2      41.634  47.380  60.3530  0.00  0.00     0.000 OA
ATOM     36   O  A00 X   2      39.643  46.235  60.0130  0.00  0.00     0.000 O
ATOM     37   O  A00 X   2      40.469  47.605  58.3070  0.00  0.00     0.000 OA
ATOM     38   S  A00 X   2      40.368  47.602  59.7340  0.00  0.00     0.000 S
ATOM     39   O  A00 X   2      39.564  48.618  60.3450  0.00  0.00     0.000 OA
ENDBRANCH 24 34
BRANCH 20 40
ATOM     40  O4  A00 X   3      37.442  45.287  55.9960  0.00  0.00     0.000 O
BRANCH 40 44
ATOM     41  C1  A00 X   3      35.625  48.351  55.3360  0.00  0.00     0.000 C
ATOM     42  C2  A00 X   3      35.452  47.037  54.5430  0.00  0.00     0.000 C
ATOM     43  C3  A00 X   3      36.824  46.488  54.0740  0.00  0.00     0.000 C
ATOM     44  C4  A00 X   3      37.876  46.390  55.1710  0.00  0.00     0.000 C
ATOM     45  C5  A00 X   3      37.995  47.748  55.9180  0.00  0.00     0.000 C
ATOM     46  O5  A00 X   3      36.677  48.233  56.3330  0.00  0.00     0.000 O
ATOM     47   O  A00 X   3      36.780  45.320  53.2560  0.00  0.00     0.000 O
ATOM     49  HD  A00 X   3      37.477  45.105  53.7220  0.00  0.00     0.000 HD
BRANCH 42 49
ATOM     49   O  A00 X   3      34.780  46.102  55.4150  0.00  0.00     0.000 O
ATOM     50   O  A00 X   3      33.986  43.849  55.2570  0.00  0.00     0.000 OA
ATOM     51   O  A00 X   3      33.655  45.307  53.4250  0.00  0.00     0.000 OA
ATOM     52   O  A00 X   3      32.463  45.720  55.4230  0.00  0.00     0.000 OA
ATOM     53   S  A00 X   3      33.653  45.182  54.8610  0.00  0.00     0.000 S
ENDBRANCH 42 49
BRANCH 45 54
ATOM     54   C  A00 X   3      38.787  48.777  55.1020  0.00  0.00     0.000 C
ATOM     55   O  A00 X   3      38.937  48.635  53.9050  0.00  0.00     0.000 OA
ATOM     56   O  A00 X   3      39.281  49.755  55.6400  0.00  0.00     0.000 OA
ENDBRANCH 45 54
BRANCH 41 57
ATOM     57  O4  A00 X   4      35.773  49.489  54.4570  0.00  0.00     0.000 O
BRANCH 57 61
ATOM     58  C1  A00 X   4      35.706  53.712  55.3510  0.00  0.00     0.000 C
ATOM     59  C2  A00 X   4      37.034  53.078  54.8690  0.00  0.00     0.000 C
ATOM     60  C3  A00 X   4      36.856  51.678  54.2460  0.00  0.00     0.000 C
ATOM     61  C4  A00 X   4      35.978  50.765  55.1280  0.00  0.00     0.000 C
ATOM     62  C5  A00 X   4      34.627  51.500  55.3070  0.00  0.00     0.000 C
ATOM     63  O5  A00 X   4      34.852  52.749  56.0100  0.00  0.00     0.000 O
BRANCH 59 66
ATOM     64   N  A00 X   4      38.353  52.823  55.4770  0.00  0.00     0.000 N
ATOM     66  HD  A00 X   4      38.368  52.444  56.2550  0.00  0.00     0.000 HD
ATOM     66   O  A00 X   4      38.562  55.204  55.7760  0.00  0.00     0.000 OA
ATOM     67   S  A00 X   4      39.379  54.044  55.5970  0.00  0.00     0.000 S
ATOM     68   O  A00 X   4      40.132  53.637  56.7470  0.00  0.00     0.000 OA
ATOM     69   O  A00 X   4      40.083  53.907  54.3540  0.00  0.00     0.000 OA
ENDBRANCH 59 66
BRANCH 62 70
ATOM     70   C  A00 X   4      33.561  50.686  56.0790  0.00  0.00     0.000 C
ATOM     71   O  A00 X   4      30.459  49.282  54.8520  0.00  0.00     0.000 OA
ATOM     72   O  A00 X   4      30.901  50.593  56.7570  0.00  0.00     0.000 OA
ATOM     73   O  A00 X   4      32.625  50.123  55.1470  0.00  0.00     0.000 O
ATOM     74   O  A00 X   4      30.851  51.643  54.5580  0.00  0.00     0.000 OA
ATOM     75   S  A00 X   4      31.107  50.470  55.3310  0.00  0.00     0.000 S
ENDBRANCH 62 70
ENDBRANCH 57 61
ENDBRANCH 41 57
ENDBRANCH 40 44
ENDBRANCH 20 40
ENDBRANCH 19 23
ENDBRANCH 1 19
TORSDOF 14
ENDMDL
MODEL 35
REMARK VINA RESULT:      -5.0     29.419     35.088
ROOT
ATOM      1  C1  A00 X   1      17.078  47.358  30.4020  0.00  0.00     0.000 C
ATOM      2  C2  A00 X   1      17.795  48.571  29.7510  0.00  0.00     0.000 C
ATOM      3  C3  A00 X   1      19.008  49.159  30.5450  0.00  0.00     0.000 C
ATOM      4  C4  A00 X   1      19.118  48.712  32.0250  0.00  0.00     0.000 C
ATOM      5  C5  A00 X   1      17.777  48.242  32.5880  0.00  0.00     0.000 C
ATOM      6  O5  A00 X   1      17.424  47.094  31.7840  0.00  0.00     0.000 O
ATOM      7   O  A00 X   1      18.901  50.580  30.5580  0.00  0.00     0.000 O
ATOM      9  HD  A00 X   1      19.155  50.336  31.3490  0.00  0.00     0.000 HD
ATOM      9   O  A00 X   1      20.096  47.685  32.1900  0.00  0.00     0.000 O
ATOM     11  HD  A00 X   1      20.350  47.441  32.9810  0.00  0.00     0.000 HD
ENDROOT
BRANCH 2 11
ATOM     11   O  A00 X   1      18.242  48.166  28.4430  0.00  0.00     0.000 O
ATOM     12   O  A00 X   1      18.490  45.854  27.8440  0.00  0.00     0.000 OA
ATOM     13   O  A00 X   1      19.899  46.789  29.5930  0.00  0.00     0.000 OA
ATOM     14   O  A00 X   1      20.174  47.471  27.3310  0.00  0.00     0.000 OA
ATOM     15   S  A00 X   1      19.256  46.977  28.3220  0.00  0.00     0.000 S
ENDBRANCH 2 11
BRANCH 5 16
ATOM     16   C  A00 X   1      16.684  49.315  32.6370  0.00  0.00     0.000 C
ATOM     17   O  A00 X   1      16.993  50.470  32.4290  0.00  0.00     0.000 OA
ATOM     18   O  A00 X   1      15.521  49.050  32.8700  0.00  0.00     0.000 OA
ENDBRANCH 5 16
BRANCH 1 19
ATOM     19  O4  A00 X   2      15.642  47.388  30.2130  0.00  0.00     0.000 O
BRANCH 19 23
ATOM     20  C1  A00 X   2      13.268  48.196  26.7380  0.00  0.00     0.000 C
ATOM     21  C2  A00 X   2      14.328  47.073  26.6340  0.00  0.00     0.000 C
ATOM     22  C3  A00 X   2      14.780  46.613  28.0350  0.00  0.00     0.000 C
ATOM     23  C4  A00 X   2      15.263  47.817  28.8740  0.00  0.00     0.000 C
ATOM     24  C5  A00 X   2      14.125  48.874  28.8850  0.00  0.00     0.000 C
ATOM     25  O5  A00 X   2      13.846  49.276  27.5190  0.00  0.00     0.000 O
ATOM     26   O  A00 X   2      15.710  45.526  27.8860  0.00  0.00     0.000 O
ATOM     28  HD  A00 X   2      16.196  45.954  27.3110  0.00  0.00     0.000 HD
BRANCH 21 30
ATOM     28   N  A00 X   2      14.514  47.450  25.2290  0.00  0.00     0.000 N
ATOM     30  HD  A00 X   2      14.887  46.675  25.3320  0.00  0.00     0.000 HD
ATOM     30   O  A00 X   2      15.120  45.535  24.0360  0.00  0.00     0.000 OA
ATOM     31   S  A00 X   2      15.690  46.780  24.4130  0.00  0.00     0.000 S
ATOM     32   O  A00 X   2      15.917  47.691  23.3350  0.00  0.00     0.000 OA
ATOM     33   O  A00 X   2      16.833  46.735  25.2760  0.00  0.00     0.000 OA
ENDBRANCH 21 30
BRANCH 24 34
ATOM     34   C  A00 X   2      14.264  50.079  29.8460  0.00  0.00     0.000 C
ATOM     35   O  A00 X   2      13.964  53.557  28.8110  0.00  0.00     0.000 OA
ATOM     36   O  A00 X   2      14.452  51.309  29.1170  0.00  0.00     0.000 O
ATOM     37   O  A00 X   2      12.298  51.920  28.4390  0.00  0.00     0.000 OA
ATOM     38   S  A00 X   2      13.326  52.387  29.3190  0.00  0.00     0.000 S
ATOM     39   O  A00 X   2      13.037  52.414  30.7220  0.00  0.00     0.000 OA
ENDBRANCH 24 34
BRANCH 20 40
ATOM     40  O4  A00 X   3      12.165  47.623  27.4540  0.00  0.00     0.000 O
BRANCH 40 44
ATOM     41  C1  A00 X   3       9.358  47.212  29.7060  0.00  0.00     0.000 C
ATOM     42  C2  A00 X   3       9.710  46.247  28.5530  0.00  0.00     0.000 C
ATOM     43  C3  A00 X   3       9.906  47.020  27.2240  0.00  0.00     0.000 C
ATOM     44  C4  A00 X   3      10.853  48.210  27.3160  0.00  0.00     0.000 C
ATOM     45  C5  A00 X   3      10.432  49.134  28.4930  0.00  0.00     0.000 C
ATOM     46  O5  A00 X   3      10.248  48.362  29.7240  0.00  0.00     0.000 O
ATOM     47   O  A00 X   3      10.150  46.219  26.0690  0.00  0.00     0.000 O
ATOM     49  HD  A00 X   3      10.701  46.861  25.8790  0.00  0.00     0.000 HD
BRANCH 42 49
ATOM     49   O  A00 X   3      10.912  45.547  28.9400  0.00  0.00     0.000 O
ATOM     50   O  A00 X   3      11.697  43.286  28.8760  0.00  0.00     0.000 OA
ATOM     51   O  A00 X   3       9.457  43.699  29.5120  0.00  0.00     0.000 OA
ATOM     52   O  A00 X   3      11.187  44.391  30.9660  0.00  0.00     0.000 OA
ATOM     53   S  A00 X   3      10.824  44.146  29.6130  0.00  0.00     0.000 S
ENDBRANCH 42 49
BRANCH 45 54
ATOM     54   C  A00 X   3       9.214  49.994  28.1320  0.00  0.00     0.000 C
ATOM     55   O  A00 X   3       8.949  50.990  28.7730  0.00  0.00     0.000 OA
ATOM     56   O  A00 X   3       8.490  49.691  27.1970  0.00  0.00     0.000 OA
ENDBRANCH 45 54
BRANCH 41 57
ATOM     57  O4  A00 X   4       7.954  47.556  29.7050  0.00  0.00     0.000 O
BRANCH 57 61
ATOM     58  C1  A00 X   4       5.165  48.572  32.8400  0.00  0.00     0.000 C
ATOM     59  C2  A00 X   4       6.346  49.534  32.5580  0.00  0.00     0.000 C
ATOM     60  C3  A00 X   4       7.050  49.265  31.2130  0.00  0.00     0.000 C
ATOM     61  C4  A00 X   4       7.368  47.767  31.0220  0.00  0.00     0.000 C
ATOM     62  C5  A00 X   4       6.018  47.017  31.1340  0.00  0.00     0.000 C
ATOM     63  O5  A00 X   4       5.473  47.211  32.4640  0.00  0.00     0.000 O
BRANCH 59 66
ATOM     64   N  A00 X   4       6.158  50.996  32.5950  0.00  0.00     0.000 N
ATOM     66  HD  A00 X   4       6.833  51.491  32.3740  0.00  0.00     0.000 HD
ATOM     66   O  A00 X   4       6.083  50.825  34.9960  0.00  0.00     0.000 OA
ATOM     67   S  A00 X   4       5.592  51.653  33.9390  0.00  0.00     0.000 S
ATOM     68   O  A00 X   4       6.179  52.959  33.8550  0.00  0.00     0.000 OA
ATOM     69   O  A00 X   4       4.184  51.621  33.6630  0.00  0.00     0.000 OA
ENDBRANCH 59 66
BRANCH 62 70
ATOM     70   C  A00 X   4       6.114  45.497  30.8590  0.00  0.00     0.000 C
ATOM     71   O  A00 X   4       4.200  42.805  32.3410  0.00  0.00     0.000 OA
ATOM     72   O  A00 X   4       6.522  43.050  32.0390  0.00  0.00     0.000 OA
ATOM     73   O  A00 X   4       5.004  44.830  31.4810  0.00  0.00     0.000 O
ATOM     74   O  A00 X   4       5.398  44.305  33.7990  0.00  0.00     0.000 OA
ATOM     75   S  A00 X   4       5.316  43.692  32.5130  0.00  0.00     0.000 S
ENDBRANCH 62 70
ENDBRANCH 57 61
ENDBRANCH 41 57
ENDBRANCH 40 44
ENDBRANCH 20 40
ENDBRANCH 19 23
ENDBRANCH 1 19
TORSDOF 14
ENDMDL
MODEL 36
REMARK VINA RESULT:      -4.9     29.012     34.171
ROOT
ATOM      1  C1  A00 X   1      17.521  47.269  31.0400  0.00  0.00     0.000 C
ATOM      2  C2  A00 X   1      18.382  48.467  30.5570  0.00  0.00     0.000 C
ATOM      3  C3  A00 X   1      19.043  49.335  31.6780  0.00  0.00     0.000 C
ATOM      4  C4  A00 X   1      18.474  49.129  33.1060  0.00  0.00     0.000 C
ATOM      5  C5  A00 X   1      17.057  48.554  33.0850  0.00  0.00     0.000 C
ATOM      6  O5  A00 X   1      17.195  47.262  32.4520  0.00  0.00     0.000 O
ATOM      7   O  A00 X   1      18.854  50.712  31.3620  0.00  0.00     0.000 O
ATOM      9  HD  A00 X   1      18.722  50.625  32.2130  0.00  0.00     0.000 HD
ATOM      9   O  A00 X   1      19.322  48.292  33.8900  0.00  0.00     0.000 O
ATOM     11  HD  A00 X   1      19.190  48.205  34.7420  0.00  0.00     0.000 HD
ENDROOT
BRANCH 2 11
ATOM     11   O  A00 X   1      19.414  47.946  29.6970  0.00  0.00     0.000 O
ATOM     12   O  A00 X   1      20.069  45.636  29.7540  0.00  0.00     0.000 OA
ATOM     13   O  A00 X   1      20.431  47.024  31.7180  0.00  0.00     0.000 OA
ATOM     14   O  A00 X   1      21.684  47.398  29.7310  0.00  0.00     0.000 OA
ATOM     15   S  A00 X   1      20.445  46.921  30.2850  0.00  0.00     0.000 S
ENDBRANCH 2 11
BRANCH 5 16
ATOM     16   C  A00 X   1      16.004  49.451  32.4260  0.00  0.00     0.000 C
ATOM     17   O  A00 X   1      14.886  49.008  32.2600  0.00  0.00     0.000 OA
ATOM     18   O  A00 X   1      16.245  50.588  32.0710  0.00  0.00     0.000 OA
ENDBRANCH 5 16
BRANCH 1 19
ATOM     19  O4  A00 X   2      16.342  47.060  30.2240  0.00  0.00     0.000 O
BRANCH 19 23
ATOM     20  C1  A00 X   2      15.748  47.409  25.9950  0.00  0.00     0.000 C
ATOM     21  C2  A00 X   2      16.908  46.507  26.4810  0.00  0.00     0.000 C
ATOM     22  C3  A00 X   2      16.730  46.138  27.9690  0.00  0.00     0.000 C
ATOM     23  C4  A00 X   2      16.560  47.412  28.8280  0.00  0.00     0.000 C
ATOM     24  C5  A00 X   2      15.386  48.234  28.2290  0.00  0.00     0.000 C
ATOM     25  O5  A00 X   2      15.708  48.577  26.8560  0.00  0.00     0.000 O
ATOM     26   O  A00 X   2      17.791  45.247  28.3540  0.00  0.00     0.000 O
ATOM     28  HD  A00 X   2      18.408  45.760  28.0280  0.00  0.00     0.000 HD
BRANCH 21 30
ATOM     28   N  A00 X   2      17.758  46.958  25.3760  0.00  0.00     0.000 N
ATOM     30  HD  A00 X   2      18.090  46.210  25.6580  0.00  0.00     0.000 HD
ATOM     30   O  A00 X   2      19.058  45.149  24.6710  0.00  0.00     0.000 OA
ATOM     31   S  A00 X   2      19.240  46.415  25.2880  0.00  0.00     0.000 S
ATOM     32   O  A00 X   2      19.910  47.388  24.4820  0.00  0.00     0.000 OA
ATOM     33   O  A00 X   2      19.772  46.419  26.6180  0.00  0.00     0.000 OA
ENDBRANCH 21 30
BRANCH 24 34
ATOM     34   C  A00 X   2      14.859  49.443  29.0390  0.00  0.00     0.000 C
ATOM     35   O  A00 X   2      14.588  52.824  27.7150  0.00  0.00     0.000 OA
ATOM     36   O  A00 X   2      15.194  50.688  28.3950  0.00  0.00     0.000 O
ATOM     37   O  A00 X   2      13.578  50.930  26.7210  0.00  0.00     0.000 OA
ATOM     38   S  A00 X   2      13.966  51.562  27.9460  0.00  0.00     0.000 S
ATOM     39   O  A00 X   2      13.031  51.535  29.0310  0.00  0.00     0.000 OA
ENDBRANCH 24 34
BRANCH 20 40
ATOM     40  O4  A00 X   3      14.553  46.636  26.1780  0.00  0.00     0.000 O
BRANCH 40 44
ATOM     41  C1  A00 X   3      11.161  45.598  26.9150  0.00  0.00     0.000 C
ATOM     42  C2  A00 X   3      12.164  44.788  26.0650  0.00  0.00     0.000 C
ATOM     43  C3  A00 X   3      12.793  45.671  24.9570  0.00  0.00     0.000 C
ATOM     44  C4  A00 X   3      13.360  46.997  25.4480  0.00  0.00     0.000 C
ATOM     45  C5  A00 X   3      12.293  47.754  26.2890  0.00  0.00     0.000 C
ATOM     46  O5  A00 X   3      11.720  46.880  27.3150  0.00  0.00     0.000 O
ATOM     47   O  A00 X   3      13.673  45.005  24.0530  0.00  0.00     0.000 O
ATOM     49  HD  A00 X   3      14.121  45.742  24.1230  0.00  0.00     0.000 HD
BRANCH 42 49
ATOM     49   O  A00 X   3      13.170  44.280  26.9690  0.00  0.00     0.000 O
ATOM     50   O  A00 X   3      15.198  43.023  26.7730  0.00  0.00     0.000 OA
ATOM     51   O  A00 X   3      13.334  42.392  25.4640  0.00  0.00     0.000 OA
ATOM     52   O  A00 X   3      13.222  42.086  27.8050  0.00  0.00     0.000 OA
ATOM     53   S  A00 X   3      13.778  42.864  26.7520  0.00  0.00     0.000 S
ENDBRANCH 42 49
BRANCH 45 54
ATOM     54   C  A00 X   3      11.233  48.414  25.3980  0.00  0.00     0.000 C
ATOM     55   O  A00 X   3      11.116  48.093  24.2330  0.00  0.00     0.000 OA
ATOM     56   O  A00 X   3      10.490  49.275  25.8440  0.00  0.00     0.000 OA
ENDBRANCH 45 54
BRANCH 41 57
ATOM     57  O4  A00 X   4       9.872  45.695  26.2700  0.00  0.00     0.000 O
BRANCH 57 61
ATOM     58  C1  A00 X   4       6.035  46.890  27.8480  0.00  0.00     0.000 C
ATOM     59  C2  A00 X   4       6.745  47.826  26.8380  0.00  0.00     0.000 C
ATOM     60  C3  A00 X   4       7.904  47.146  26.0810  0.00  0.00     0.000 C
ATOM     61  C4  A00 X   4       8.846  46.385  27.0390  0.00  0.00     0.000 C
ATOM     62  C5  A00 X   4       7.963  45.361  27.7950  0.00  0.00     0.000 C
ATOM     63  O5  A00 X   4       6.975  46.073  28.5830  0.00  0.00     0.000 O
BRANCH 59 66
ATOM     64   N  A00 X   4       7.360  49.161  26.9470  0.00  0.00     0.000 N
ATOM     66  HD  A00 X   4       7.895  49.301  27.6140  0.00  0.00     0.000 HD
ATOM     66   O  A00 X   4       5.180  50.009  27.5180  0.00  0.00     0.000 OA
ATOM     67   S  A00 X   4       6.402  50.441  26.9160  0.00  0.00     0.000 S
ATOM     68   O  A00 X   4       7.179  51.364  27.6900  0.00  0.00     0.000 OA
ATOM     69   O  A00 X   4       6.394  50.716  25.5070  0.00  0.00     0.000 OA
ENDBRANCH 59 66
BRANCH 62 70
ATOM     70   C  A00 X   4       8.753  44.417  28.7330  0.00  0.00     0.000 C
ATOM     71   O  A00 X   4       9.819  44.994  32.1450  0.00  0.00     0.000 OA
ATOM     72   O  A00 X   4      11.016  44.206  30.2760  0.00  0.00     0.000 OA
ATOM     73   O  A00 X   4       8.738  44.953  30.0670  0.00  0.00     0.000 O
ATOM     74   O  A00 X   4      10.477  46.577  30.4490  0.00  0.00     0.000 OA
ATOM     75   S  A00 X   4      10.117  45.231  30.7600  0.00  0.00     0.000 S
ENDBRANCH 62 70
ENDBRANCH 57 61
ENDBRANCH 41 57
ENDBRANCH 40 44
ENDBRANCH 20 40
ENDBRANCH 19 23
ENDBRANCH 1 19
TORSDOF 14
ENDMDL
MODEL 37
REMARK VINA RESULT:      -4.9     28.631     34.538
ROOT
ATOM      1  C1  A00 X   1      17.902  47.610  31.0450  0.00  0.00     0.000 C
ATOM      2  C2  A00 X   1      18.769  48.786  30.5240  0.00  0.00     0.000 C
ATOM      3  C3  A00 X   1      19.873  49.312  31.5000  0.00  0.00     0.000 C
ATOM      4  C4  A00 X   1      19.730  48.859  32.9760  0.00  0.00     0.000 C
ATOM      5  C5  A00 X   1      18.296  48.456  33.3200  0.00  0.00     0.000 C
ATOM      6  O5  A00 X   1      18.016  47.327  32.4620  0.00  0.00     0.000 O
ATOM      7   O  A00 X   1      19.835  50.737  31.5090  0.00  0.00     0.000 O
ATOM      9  HD  A00 X   1      19.950  50.480  32.3270  0.00  0.00     0.000 HD
ATOM      9   O  A00 X   1      20.619  47.785  33.2810  0.00  0.00     0.000 O
ATOM     11  HD  A00 X   1      20.735  47.528  34.1000  0.00  0.00     0.000 HD
ENDROOT
BRANCH 2 11
ATOM     11   O  A00 X   1      19.393  48.361  29.2960  0.00  0.00     0.000 O
ATOM     12   O  A00 X   1      19.448  46.053  28.6330  0.00  0.00     0.000 OA
ATOM     13   O  A00 X   1      20.620  46.740  30.6510  0.00  0.00     0.000 OA
ATOM     14   O  A00 X   1      21.390  47.441  28.5120  0.00  0.00     0.000 OA
ATOM     15   S  A00 X   1      20.251  47.049  29.2970  0.00  0.00     0.000 S
ENDBRANCH 2 11
BRANCH 5 16
ATOM     16   C  A00 X   1      17.263  49.581  33.2100  0.00  0.00     0.000 C
ATOM     17   O  A00 X   1      16.086  49.301  33.3090  0.00  0.00     0.000 OA
ATOM     18   O  A00 X   1      17.578  50.741  33.0330  0.00  0.00     0.000 OA
ENDBRANCH 5 16
BRANCH 1 19
ATOM     19  O4  A00 X   2      16.515  47.711  30.6370  0.00  0.00     0.000 O
BRANCH 19 23
ATOM     20  C1  A00 X   2      14.728  48.903  26.9290  0.00  0.00     0.000 C
ATOM     21  C2  A00 X   2      15.654  47.662  26.9100  0.00  0.00     0.000 C
ATOM     22  C3  A00 X   2      15.861  47.110  28.3350  0.00  0.00     0.000 C
ATOM     23  C4  A00 X   2      16.368  48.222  29.2810  0.00  0.00     0.000 C
ATOM     24  C5  A00 X   2      15.369  49.409  29.1960  0.00  0.00     0.000 C
ATOM     25  O5  A00 X   2      15.321  49.881  27.8240  0.00  0.00     0.000 O
ATOM     26   O  A00 X   2      16.669  45.923  28.2570  0.00  0.00     0.000 O
ATOM     28  HD  A00 X   2      17.273  46.305  27.7680  0.00  0.00     0.000 HD
BRANCH 21 30
ATOM     28   N  A00 X   2      16.038  48.052  25.5500  0.00  0.00     0.000 N
ATOM     30  HD  A00 X   2      16.320  47.242  25.6670  0.00  0.00     0.000 HD
ATOM     30   O  A00 X   2      16.593  46.116  24.3670  0.00  0.00     0.000 OA
ATOM     31   S  A00 X   2      17.232  47.288  24.8500  0.00  0.00     0.000 S
ATOM     32   O  A00 X   2      17.669  48.198  23.8380  0.00  0.00     0.000 OA
ATOM     33   O  A00 X   2      18.256  47.110  25.8360  0.00  0.00     0.000 OA
ENDBRANCH 21 30
BRANCH 24 34
ATOM     34   C  A00 X   2      15.521  50.559  30.2180  0.00  0.00     0.000 C
ATOM     35   O  A00 X   2      15.471  54.092  29.3370  0.00  0.00     0.000 OA
ATOM     36   O  A00 X   2      15.817  51.807  29.5610  0.00  0.00     0.000 O
ATOM     37   O  A00 X   2      13.741  52.572  28.8010  0.00  0.00     0.000 OA
ATOM     38   S  A00 X   2      14.742  52.939  29.7540  0.00  0.00     0.000 S
ATOM     39   O  A00 X   2      14.379  52.919  31.1390  0.00  0.00     0.000 OA
ENDBRANCH 24 34
BRANCH 20 40
ATOM     40  O4  A00 X   3      13.481  48.447  27.4740  0.00  0.00     0.000 O
BRANCH 40 44
ATOM     41  C1  A00 X   3      10.135  47.677  28.6310  0.00  0.00     0.000 C
ATOM     42  C2  A00 X   3      10.718  47.241  27.2690  0.00  0.00     0.000 C
ATOM     43  C3  A00 X   3      11.335  48.447  26.5170  0.00  0.00     0.000 C
ATOM     44  C4  A00 X   3      12.308  49.279  27.3440  0.00  0.00     0.000 C
ATOM     45  C5  A00 X   3      11.649  49.683  28.6930  0.00  0.00     0.000 C
ATOM     46  O5  A00 X   3      11.071  48.516  29.3630  0.00  0.00     0.000 O
ATOM     47   O  A00 X   3      11.828  48.178  25.2060  0.00  0.00     0.000 O
ATOM     49  HD  A00 X   3      12.457  48.720  25.4530  0.00  0.00     0.000 HD
BRANCH 42 49
ATOM     49   O  A00 X   3      11.708  46.224  27.5390  0.00  0.00     0.000 O
ATOM     50   O  A00 X   3      13.300  44.974  26.2610  0.00  0.00     0.000 OA
ATOM     51   O  A00 X   3      11.141  45.325  25.3650  0.00  0.00     0.000 OA
ATOM     52   O  A00 X   3      11.363  43.919  27.2520  0.00  0.00     0.000 OA
ATOM     53   S  A00 X   3      11.902  45.035  26.5540  0.00  0.00     0.000 S
ENDBRANCH 42 49
BRANCH 45 54
ATOM     54   C  A00 X   3      10.650  50.833  28.5150  0.00  0.00     0.000 C
ATOM     55   O  A00 X   3      10.571  51.426  27.4580  0.00  0.00     0.000 OA
ATOM     56   O  A00 X   3       9.917  51.172  29.4310  0.00  0.00     0.000 OA
ENDBRANCH 45 54
BRANCH 41 57
ATOM     57  O4  A00 X   4       8.818  48.254  28.4880  0.00  0.00     0.000 O
BRANCH 57 61
ATOM     58  C1  A00 X   4       5.356  47.808  31.0290  0.00  0.00     0.000 C
ATOM     59  C2  A00 X   4       5.968  49.220  30.8510  0.00  0.00     0.000 C
ATOM     60  C3  A00 X   4       6.951  49.319  29.6660  0.00  0.00     0.000 C
ATOM     61  C4  A00 X   4       7.971  48.160  29.6680  0.00  0.00     0.000 C
ATOM     62  C5  A00 X   4       7.144  46.851  29.6320  0.00  0.00     0.000 C
ATOM     63  O5  A00 X   4       6.337  46.763  30.8350  0.00  0.00     0.000 O
BRANCH 59 66
ATOM     64   N  A00 X   4       6.728  49.445  32.0940  0.00  0.00     0.000 N
ATOM     66  HD  A00 X   4       6.997  48.747  32.5310  0.00  0.00     0.000 HD
ATOM     66   O  A00 X   4       4.680  50.232  33.0860  0.00  0.00     0.000 OA
ATOM     67   S  A00 X   4       6.094  50.403  33.2070  0.00  0.00     0.000 S
ATOM     68   O  A00 X   4       6.683  49.850  34.3910  0.00  0.00     0.000 OA
ATOM     69   O  A00 X   4       6.653  51.663  32.8040  0.00  0.00     0.000 OA
ENDBRANCH 59 66
BRANCH 62 70
ATOM     70   C  A00 X   4       7.998  45.567  29.5180  0.00  0.00     0.000 C
ATOM     71   O  A00 X   4       9.194  43.404  32.1640  0.00  0.00     0.000 OA
ATOM     72   O  A00 X   4      10.330  44.373  30.3430  0.00  0.00     0.000 OA
ATOM     73   O  A00 X   4       8.027  44.901  30.7910  0.00  0.00     0.000 O
ATOM     74   O  A00 X   4       9.734  45.752  32.2620  0.00  0.00     0.000 OA
ATOM     75   S  A00 X   4       9.426  44.624  31.4430  0.00  0.00     0.000 S
ENDBRANCH 62 70
ENDBRANCH 57 61
ENDBRANCH 41 57
ENDBRANCH 40 44
ENDBRANCH 20 40
ENDBRANCH 19 23
ENDBRANCH 1 19
TORSDOF 14
ENDMDL
MODEL 38
REMARK VINA RESULT:      -4.7     26.953     32.356
ROOT
ATOM      1  C1  A00 X   1      19.343  50.295  32.7720  0.00  0.00     0.000 C
ATOM      2  C2  A00 X   1      18.087  50.487  31.8810  0.00  0.00     0.000 C
ATOM      3  C3  A00 X   1      16.725  50.043  32.5080  0.00  0.00     0.000 C
ATOM      4  C4  A00 X   1      16.829  49.143  33.7660  0.00  0.00     0.000 C
ATOM      5  C5  A00 X   1      18.173  48.418  33.8470  0.00  0.00     0.000 C
ATOM      6  O5  A00 X   1      19.154  49.474  33.9510  0.00  0.00     0.000 O
ATOM      7   O  A00 X   1      15.995  49.297  31.5360  0.00  0.00     0.000 O
ATOM      9  HD  A00 X   1      15.895  48.893  32.2960  0.00  0.00     0.000 HD
ATOM      9   O  A00 X   1      16.612  49.891  34.9620  0.00  0.00     0.000 O
ATOM     11  HD  A00 X   1      16.512  49.488  35.7220  0.00  0.00     0.000 HD
ENDROOT
BRANCH 2 11
ATOM     11   O  A00 X   1      18.009  51.882  31.5270  0.00  0.00     0.000 O
ATOM     12   O  A00 X   1      16.019  52.844  30.5890  0.00  0.00     0.000 OA
ATOM     13   O  A00 X   1      17.217  51.134  29.3410  0.00  0.00     0.000 OA
ATOM     14   O  A00 X   1      18.181  53.284  29.6680  0.00  0.00     0.000 OA
ATOM     15   S  A00 X   1      17.289  52.287  30.1950  0.00  0.00     0.000 S
ENDBRANCH 2 11
BRANCH 5 16
ATOM     16   C  A00 X   1      18.448  47.436  32.7040  0.00  0.00     0.000 C
ATOM     17   O  A00 X   1      17.505  46.927  32.1350  0.00  0.00     0.000 OA
ATOM     18   O  A00 X   1      19.574  47.154  32.3440  0.00  0.00     0.000 OA
ENDBRANCH 5 16
BRANCH 1 19
ATOM     19  O4  A00 X   2      20.508  49.878  32.0190  0.00  0.00     0.000 O
BRANCH 19 23
ATOM     20  C1  A00 X   2      22.873  53.204  33.3280  0.00  0.00     0.000 C
ATOM     21  C2  A00 X   2      22.454  53.167  31.8380  0.00  0.00     0.000 C
ATOM     22  C3  A00 X   2      21.283  52.186  31.6210  0.00  0.00     0.000 C
ATOM     23  C4  A00 X   2      21.633  50.789  32.1800  0.00  0.00     0.000 C
ATOM     24  C5  A00 X   2      22.051  50.964  33.6660  0.00  0.00     0.000 C
ATOM     25  O5  A00 X   2      23.202  51.846  33.7270  0.00  0.00     0.000 O
ATOM     26   O  A00 X   2      20.888  52.239  30.2390  0.00  0.00     0.000 O
ATOM     28  HD  A00 X   2      21.698  52.135  29.9510  0.00  0.00     0.000 HD
BRANCH 21 30
ATOM     28   N  A00 X   2      21.892  53.649  30.5730  0.00  0.00     0.000 N
ATOM     30  HD  A00 X   2      22.538  54.186  30.7810  0.00  0.00     0.000 HD
ATOM     30   O  A00 X   2      23.422  55.130  29.6140  0.00  0.00     0.000 OA
ATOM     31   S  A00 X   2      22.116  55.160  30.1700  0.00  0.00     0.000 S
ATOM     32   O  A00 X   2      21.067  55.421  29.2330  0.00  0.00     0.000 OA
ATOM     33   O  A00 X   2      21.932  55.946  31.3540  0.00  0.00     0.000 OA
ENDBRANCH 21 30
BRANCH 24 34
ATOM     34   C  A00 X   2      22.231  49.689  34.5240  0.00  0.00     0.000 C
ATOM     35   O  A00 X   2      22.029  49.631  38.1590  0.00  0.00     0.000 OA
ATOM     36   O  A00 X   2      22.452  50.019  35.9100  0.00  0.00     0.000 O
ATOM     37   O  A00 X   2      20.314  50.453  36.7530  0.00  0.00     0.000 OA
ATOM     38   S  A00 X   2      21.359  49.488  36.9080  0.00  0.00     0.000 S
ATOM     39   O  A00 X   2      21.079  48.138  36.5210  0.00  0.00     0.000 OA
ENDBRANCH 24 34
BRANCH 20 40
ATOM     40  O4  A00 X   3      21.712  53.646  34.0460  0.00  0.00     0.000 O
BRANCH 40 44
ATOM     41  C1  A00 X   3      19.082  54.868  36.2180  0.00  0.00     0.000 C
ATOM     42  C2  A00 X   3      19.677  55.653  35.0290  0.00  0.00     0.000 C
ATOM     43  C3  A00 X   3      21.225  55.686  35.1050  0.00  0.00     0.000 C
ATOM     44  C4  A00 X   3      21.879  54.326  35.3090  0.00  0.00     0.000 C
ATOM     45  C5  A00 X   3      21.232  53.601  36.5230  0.00  0.00     0.000 C
ATOM     46  O5  A00 X   3      19.772  53.602  36.4150  0.00  0.00     0.000 O
ATOM     47   O  A00 X   3      21.881  56.460  34.1020  0.00  0.00     0.000 O
ATOM     49  HD  A00 X   3      22.447  55.805  34.1260  0.00  0.00     0.000 HD
BRANCH 42 49
ATOM     49   O  A00 X   3      19.222  55.002  33.8230  0.00  0.00     0.000 O
ATOM     50   O  A00 X   3      18.695  55.673  31.5860  0.00  0.00     0.000 OA
ATOM     51   O  A00 X   3      17.992  57.040  33.3830  0.00  0.00     0.000 OA
ATOM     52   O  A00 X   3      16.983  54.919  33.1190  0.00  0.00     0.000 OA
ATOM     53   S  A00 X   3      18.162  55.688  32.9120  0.00  0.00     0.000 S
ENDBRANCH 42 49
BRANCH 45 54
ATOM     54   C  A00 X   3      21.739  54.165  37.8560  0.00  0.00     0.000 C
ATOM     55   O  A00 X   3      21.606  53.535  38.8850  0.00  0.00     0.000 OA
ATOM     56   O  A00 X   3      22.284  55.257  37.9070  0.00  0.00     0.000 OA
ENDBRANCH 45 54
BRANCH 41 57
ATOM     57  O4  A00 X   4      19.000  55.683  37.4090  0.00  0.00     0.000 O
BRANCH 57 61
ATOM     58  C1  A00 X   4      16.504  55.269  40.9070  0.00  0.00     0.000 C
ATOM     59  C2  A00 X   4      17.063  53.988  40.2390  0.00  0.00     0.000 C
ATOM     60  C3  A00 X   4      18.209  54.263  39.2440  0.00  0.00     0.000 C
ATOM     61  C4  A00 X   4      17.858  55.408  38.2690  0.00  0.00     0.000 C
ATOM     62  C5  A00 X   4      17.538  56.644  39.1460  0.00  0.00     0.000 C
ATOM     63  O5  A00 X   4      16.375  56.359  39.9650  0.00  0.00     0.000 O
BRANCH 59 66
ATOM     64   N  A00 X   4      17.515  52.718  40.8370  0.00  0.00     0.000 N
ATOM     66  HD  A00 X   4      17.753  52.085  40.2970  0.00  0.00     0.000 HD
ATOM     66   O  A00 X   4      15.233  52.338  41.5070  0.00  0.00     0.000 OA
ATOM     67   S  A00 X   4      16.564  52.005  41.9080  0.00  0.00     0.000 S
ATOM     68   O  A00 X   4      16.942  50.635  41.7160  0.00  0.00     0.000 OA
ATOM     69   O  A00 X   4      17.065  52.589  43.1200  0.00  0.00     0.000 OA
ENDBRANCH 59 66
BRANCH 62 70
ATOM     70   C  A00 X   4      17.266  57.937  38.3400  0.00  0.00     0.000 C
ATOM     71   O  A00 X   4      14.435  58.733  36.2280  0.00  0.00     0.000 OA
ATOM     72   O  A00 X   4      16.748  58.917  35.8280  0.00  0.00     0.000 OA
ATOM     73   O  A00 X   4      15.916  57.916  37.8500  0.00  0.00     0.000 O
ATOM     74   O  A00 X   4      15.687  56.724  35.7680  0.00  0.00     0.000 OA
ATOM     75   S  A00 X   4      15.695  58.048  36.3030  0.00  0.00     0.000 S
ENDBRANCH 62 70
ENDBRANCH 57 61
ENDBRANCH 41 57
ENDBRANCH 40 44
ENDBRANCH 20 40
ENDBRANCH 19 23
ENDBRANCH 1 19
TORSDOF 14
ENDMDL
MODEL 39
REMARK VINA RESULT:      -4.7     35.543     42.019
ROOT
ATOM      1  C1  A00 X   1       8.377  46.276  15.5100  0.00  0.00     0.000 C
ATOM      2  C2  A00 X   1       8.741  47.783  15.4320  0.00  0.00     0.000 C
ATOM      3  C3  A00 X   1       7.745  48.690  14.6370  0.00  0.00     0.000 C
ATOM      4  C4  A00 X   1       6.737  47.941  13.7280  0.00  0.00     0.000 C
ATOM      5  C5  A00 X   1       7.228  46.543  13.3520  0.00  0.00     0.000 C
ATOM      6  O5  A00 X   1       7.329  45.838  14.6090  0.00  0.00     0.000 O
ATOM      7   O  A00 X   1       8.494  49.553  13.7840  0.00  0.00     0.000 O
ATOM      9  HD  A00 X   1       7.810  49.278  13.3310  0.00  0.00     0.000 HD
ATOM      9   O  A00 X   1       5.450  47.851  14.3390  0.00  0.00     0.000 O
ATOM     11  HD  A00 X   1       4.766  47.576  13.8860  0.00  0.00     0.000 HD
ENDROOT
BRANCH 2 11
ATOM     11   O  A00 X   1       8.852  48.277  16.7810  0.00  0.00     0.000 O
ATOM     12   O  A00 X   1       9.695  50.473  17.2630  0.00  0.00     0.000 OA
ATOM     13   O  A00 X   1      11.166  48.832  16.2330  0.00  0.00     0.000 OA
ATOM     14   O  A00 X   1      10.432  48.551  18.4780  0.00  0.00     0.000 OA
ATOM     15   S  A00 X   1      10.123  49.099  17.1850  0.00  0.00     0.000 S
ENDBRANCH 2 11
BRANCH 5 16
ATOM     16   C  A00 X   1       8.518  46.510  12.5250  0.00  0.00     0.000 C
ATOM     17   O  A00 X   1       9.081  45.446  12.3680  0.00  0.00     0.000 OA
ATOM     18   O  A00 X   1       8.992  47.507  12.0180  0.00  0.00     0.000 OA
ENDBRANCH 5 16
BRANCH 1 19
ATOM     19  O4  A00 X   2       9.537  45.413  15.4290  0.00  0.00     0.000 O
BRANCH 19 23
ATOM     20  C1  A00 X   2      10.263  41.491  16.9960  0.00  0.00     0.000 C
ATOM     21  C2  A00 X   2       9.420  41.599  15.7020  0.00  0.00     0.000 C
ATOM     22  C3  A00 X   2       9.608  42.978  15.0370  0.00  0.00     0.000 C
ATOM     23  C4  A00 X   2       9.310  44.112  16.0440  0.00  0.00     0.000 C
ATOM     24  C5  A00 X   2      10.200  43.881  17.2960  0.00  0.00     0.000 C
ATOM     25  O5  A00 X   2       9.875  42.586  17.8670  0.00  0.00     0.000 O
ATOM     26   O  A00 X   2       8.862  43.004  13.8090  0.00  0.00     0.000 O
ATOM     28  HD  A00 X   2       8.136  42.716  14.1850  0.00  0.00     0.000 HD
BRANCH 21 30
ATOM     28   N  A00 X   2       8.643  40.443  16.1620  0.00  0.00     0.000 N
ATOM     30  HD  A00 X   2       8.468  40.544  15.3200  0.00  0.00     0.000 HD
ATOM     30   O  A00 X   2       7.932  39.251  14.2830  0.00  0.00     0.000 OA
ATOM     31   S  A00 X   2       7.364  40.013  15.3380  0.00  0.00     0.000 S
ATOM     32   O  A00 X   2       6.592  39.261  16.2780  0.00  0.00     0.000 OA
ATOM     33   O  A00 X   2       6.672  41.213  14.9720  0.00  0.00     0.000 OA
ENDBRANCH 21 30
BRANCH 24 34
ATOM     34   C  A00 X   2      10.263  45.003  18.3590  0.00  0.00     0.000 C
ATOM     35   O  A00 X   2      10.341  44.410  21.9510  0.00  0.00     0.000 OA
ATOM     36   O  A00 X   2       9.927  44.502  19.6690  0.00  0.00     0.000 O
ATOM     37   O  A00 X   2      11.894  43.486  20.4250  0.00  0.00     0.000 OA
ATOM     38   S  A00 X   2      11.070  44.613  20.7420  0.00  0.00     0.000 S
ATOM     39   O  A00 X   2      11.643  45.917  20.5910  0.00  0.00     0.000 OA
ENDBRANCH 24 34
BRANCH 20 40
ATOM     40  O4  A00 X   3      11.627  41.664  16.5850  0.00  0.00     0.000 O
BRANCH 40 44
ATOM     41  C1  A00 X   3      15.170  41.704  15.8330  0.00  0.00     0.000 C
ATOM     42  C2  A00 X   3      14.154  40.707  15.2340  0.00  0.00     0.000 C
ATOM     43  C3  A00 X   3      13.308  40.040  16.3490  0.00  0.00     0.000 C
ATOM     44  C4  A00 X   3      12.677  41.016  17.3350  0.00  0.00     0.000 C
ATOM     45  C5  A00 X   3      13.760  41.980  17.8950  0.00  0.00     0.000 C
ATOM     46  O5  A00 X   3      14.541  42.578  16.8100  0.00  0.00     0.000 O
ATOM     47   O  A00 X   3      12.393  39.034  15.9190  0.00  0.00     0.000 O
ATOM     49  HD  A00 X   3      11.886  39.398  16.5190  0.00  0.00     0.000 HD
BRANCH 42 49
ATOM     49   O  A00 X   3      13.325  41.449  14.3140  0.00  0.00     0.000 O
ATOM     50   O  A00 X   3      12.181  40.996  12.2610  0.00  0.00     0.000 OA
ATOM     51   O  A00 X   3      14.357  40.125  12.5710  0.00  0.00     0.000 OA
ATOM     52   O  A00 X   3      14.100  42.464  12.3440  0.00  0.00     0.000 OA
ATOM     53   S  A00 X   3      13.487  41.256  12.7780  0.00  0.00     0.000 S
ENDBRANCH 42 49
BRANCH 45 54
ATOM     54   C  A00 X   3      14.629  41.300  18.9600  0.00  0.00     0.000 C
ATOM     55   O  A00 X   3      14.612  40.094  19.0950  0.00  0.00     0.000 OA
ATOM     56   O  A00 X   3      15.352  41.959  19.6910  0.00  0.00     0.000 OA
ENDBRANCH 45 54
BRANCH 41 57
ATOM     57  O4  A00 X   4      16.353  41.033  16.3210  0.00  0.00     0.000 O
BRANCH 57 61
ATOM     58  C1  A00 X   4      20.487  42.261  16.5300  0.00  0.00     0.000 C
ATOM     59  C2  A00 X   4      19.615  42.372  17.8060  0.00  0.00     0.000 C
ATOM     60  C3  A00 X   4      18.292  41.584  17.7170  0.00  0.00     0.000 C
ATOM     61  C4  A00 X   4      17.549  41.861  16.3920  0.00  0.00     0.000 C
ATOM     62  C5  A00 X   4      18.530  41.483  15.2550  0.00  0.00     0.000 C
ATOM     63  O5  A00 X   4      19.695  42.346  15.3240  0.00  0.00     0.000 O
BRANCH 59 66
ATOM     64   N  A00 X   4      19.164  43.722  18.1910  0.00  0.00     0.000 N
ATOM     66  HD  A00 X   4      19.013  44.289  17.5540  0.00  0.00     0.000 HD
ATOM     66   O  A00 X   4      21.380  44.107  19.0530  0.00  0.00     0.000 OA
ATOM     67   S  A00 X   4      20.031  44.533  19.2620  0.00  0.00     0.000 S
ATOM     68   O  A00 X   4      19.741  45.879  18.8640  0.00  0.00     0.000 OA
ATOM     69   O  A00 X   4      19.381  44.125  20.4750  0.00  0.00     0.000 OA
ENDBRANCH 59 66
BRANCH 62 70
ATOM     70   C  A00 X   4      17.924  41.589  13.8350  0.00  0.00     0.000 C
ATOM     71   O  A00 X   4      19.283  40.392  10.7000  0.00  0.00     0.000 OA
ATOM     72   O  A00 X   4      18.392  42.492  11.2840  0.00  0.00     0.000 OA
ATOM     73   O  A00 X   4      18.680  40.765  12.9330  0.00  0.00     0.000 O
ATOM     74   O  A00 X   4      20.624  41.878  12.0450  0.00  0.00     0.000 OA
ATOM     75   S  A00 X   4      19.314  41.449  11.6730  0.00  0.00     0.000 S
ENDBRANCH 62 70
ENDBRANCH 57 61
ENDBRANCH 41 57
ENDBRANCH 40 44
ENDBRANCH 20 40
ENDBRANCH 19 23
ENDBRANCH 1 19
TORSDOF 14
ENDMDL
MODEL 40
REMARK VINA RESULT:      -4.6     39.284     43.510
ROOT
ATOM      1  C1  A00 X   1      18.555  34.151  89.2330  0.00  0.00     0.000 C
ATOM      2  C2  A00 X   1      17.995  34.645  90.5940  0.00  0.00     0.000 C
ATOM      3  C3  A00 X   1      16.531  35.196  90.5750  0.00  0.00     0.000 C
ATOM      4  C4  A00 X   1      15.957  35.523  89.1720  0.00  0.00     0.000 C
ATOM      5  C5  A00 X   1      17.059  35.769  88.1410  0.00  0.00     0.000 C
ATOM      6  O5  A00 X   1      17.778  34.517  88.0660  0.00  0.00     0.000 O
ATOM      7   O  A00 X   1      16.489  36.410  91.3220  0.00  0.00     0.000 O
ATOM      9  HD  A00 X   1      16.001  36.528  90.6160  0.00  0.00     0.000 HD
ATOM      9   O  A00 X   1      15.087  34.490  88.7110  0.00  0.00     0.000 O
ATOM     11  HD  A00 X   1      14.599  34.608  88.0050  0.00  0.00     0.000 HD
ENDROOT
BRANCH 2 11
ATOM     11   O  A00 X   1      18.071  33.548  91.5240  0.00  0.00     0.000 O
ATOM     12   O  A00 X   1      17.869  31.263  90.8130  0.00  0.00     0.000 OA
ATOM     13   O  A00 X   1      15.973  32.764  90.5490  0.00  0.00     0.000 OA
ATOM     14   O  A00 X   1      16.687  32.094  92.7170  0.00  0.00     0.000 OA
ATOM     15   S  A00 X   1      17.084  32.342  91.3570  0.00  0.00     0.000 S
ENDBRANCH 2 11
BRANCH 5 16
ATOM     16   C  A00 X   1      17.958  36.975  88.4290  0.00  0.00     0.000 C
ATOM     17   O  A00 X   1      18.980  37.105  87.7870  0.00  0.00     0.000 OA
ATOM     18   O  A00 X   1      17.682  37.808  89.2700  0.00  0.00     0.000 OA
ENDBRANCH 5 16
BRANCH 1 19
ATOM     19  O4  A00 X   2      19.957  34.468  89.0550  0.00  0.00     0.000 O
BRANCH 19 23
ATOM     20  C1  A00 X   2      20.811  30.850  86.9230  0.00  0.00     0.000 C
ATOM     21  C2  A00 X   2      21.172  30.895  88.4280  0.00  0.00     0.000 C
ATOM     22  C3  A00 X   2      20.431  32.048  89.1360  0.00  0.00     0.000 C
ATOM     23  C4  A00 X   2      20.697  33.389  88.4150  0.00  0.00     0.000 C
ATOM     24  C5  A00 X   2      20.315  33.208  86.9210  0.00  0.00     0.000 C
ATOM     25  O5  A00 X   2      21.129  32.148  86.3550  0.00  0.00     0.000 O
ATOM     26   O  A00 X   2      20.745  32.006  90.5390  0.00  0.00     0.000 O
ATOM     28  HD  A00 X   2      21.598  31.961  90.3980  0.00  0.00     0.000 HD
BRANCH 21 30
ATOM     28   N  A00 X   2      22.313  30.026  88.1220  0.00  0.00     0.000 N
ATOM     30  HD  A00 X   2      22.213  30.016  88.9820  0.00  0.00     0.000 HD
ATOM     30   O  A00 X   2      22.747  28.707  90.0010  0.00  0.00     0.000 OA
ATOM     31   S  A00 X   2      23.375  29.741  89.2580  0.00  0.00     0.000 S
ATOM     32   O  A00 X   2      24.543  29.342  88.5360  0.00  0.00     0.000 OA
ATOM     33   O  A00 X   2      23.610  30.980  89.9380  0.00  0.00     0.000 OA
ENDBRANCH 21 30
BRANCH 24 34
ATOM     34   C  A00 X   2      20.269  34.468  86.0250  0.00  0.00     0.000 C
ATOM     35   O  A00 X   2      21.613  34.619  82.6440  0.00  0.00     0.000 OA
ATOM     36   O  A00 X   2      21.171  34.348  84.9070  0.00  0.00     0.000 O
ATOM     37   O  A00 X   2      20.006  33.037  83.3590  0.00  0.00     0.000 OA
ATOM     38   S  A00 X   2      20.490  34.378  83.4900  0.00  0.00     0.000 S
ATOM     39   O  A00 X   2      19.522  35.432  83.5280  0.00  0.00     0.000 OA
ENDBRANCH 24 34
BRANCH 20 40
ATOM     40  O4  A00 X   3      19.393  30.638  86.8710  0.00  0.00     0.000 O
BRANCH 40 44
ATOM     41  C1  A00 X   3      16.036  29.338  86.4620  0.00  0.00     0.000 C
ATOM     42  C2  A00 X   3      17.255  28.502  86.9080  0.00  0.00     0.000 C
ATOM     43  C3  A00 X   3      18.448  28.700  85.9380  0.00  0.00     0.000 C
ATOM     44  C4  A00 X   3      18.796  30.155  85.6490  0.00  0.00     0.000 C
ATOM     45  C5  A00 X   3      17.522  30.927  85.2020  0.00  0.00     0.000 C
ATOM     46  O5  A00 X   3      16.420  30.704  86.1400  0.00  0.00     0.000 O
ATOM     47   O  A00 X   3      19.604  27.907  86.2020  0.00  0.00     0.000 O
ATOM     49  HD  A00 X   3      20.016  28.634  85.9760  0.00  0.00     0.000 HD
BRANCH 42 49
ATOM     49   O  A00 X   3      17.589  28.923  88.2480  0.00  0.00     0.000 O
ATOM     50   O  A00 X   3      19.231  28.338  89.8890  0.00  0.00     0.000 OA
ATOM     51   O  A00 X   3      18.194  26.614  88.6470  0.00  0.00     0.000 OA
ATOM     52   O  A00 X   3      16.889  27.825  90.2020  0.00  0.00     0.000 OA
ATOM     53   S  A00 X   3      18.005  27.874  89.3210  0.00  0.00     0.000 S
ENDBRANCH 42 49
BRANCH 45 54
ATOM     54   C  A00 X   3      17.150  30.615  83.7480  0.00  0.00     0.000 C
ATOM     55   O  A00 X   3      17.576  29.619  83.2000  0.00  0.00     0.000 OA
ATOM     56   O  A00 X   3      16.420  31.362  83.1150  0.00  0.00     0.000 OA
ENDBRANCH 45 54
BRANCH 41 57
ATOM     57  O4  A00 X   4      15.288  28.677  85.4170  0.00  0.00     0.000 O
BRANCH 57 61
ATOM     58  C1  A00 X   4      11.340  29.484  83.8690  0.00  0.00     0.000 C
ATOM     59  C2  A00 X   4      12.563  29.766  82.9620  0.00  0.00     0.000 C
ATOM     60  C3  A00 X   4      13.867  29.115  83.4680  0.00  0.00     0.000 C
ATOM     61  C4  A00 X   4      14.094  29.380  84.9720  0.00  0.00     0.000 C
ATOM     62  C5  A00 X   4      12.844  28.831  85.7040  0.00  0.00     0.000 C
ATOM     63  O5  A00 X   4      11.674  29.571  85.2730  0.00  0.00     0.000 O
BRANCH 59 66
ATOM     64   N  A00 X   4      12.100  31.088  83.4200  0.00  0.00     0.000 N
ATOM     66  HD  A00 X   4      11.470  31.107  84.0140  0.00  0.00     0.000 HD
ATOM     66   O  A00 X   4      11.115  31.387  81.2430  0.00  0.00     0.000 OA
ATOM     67   S  A00 X   4      11.655  32.158  82.3180  0.00  0.00     0.000 S
ATOM     68   O  A00 X   4      10.701  32.922  83.0700  0.00  0.00     0.000 OA
ATOM     69   O  A00 X   4      12.904  32.830  82.0990  0.00  0.00     0.000 OA
ENDBRANCH 59 66
BRANCH 62 70
ATOM     70   C  A00 X   4      12.932  28.906  87.2470  0.00  0.00     0.000 C
ATOM     71   O  A00 X   4      12.254  31.724  89.4160  0.00  0.00     0.000 OA
ATOM     72   O  A00 X   4      14.092  30.254  89.3400  0.00  0.00     0.000 OA
ATOM     73   O  A00 X   4      12.339  30.135  87.6970  0.00  0.00     0.000 O
ATOM     74   O  A00 X   4      13.871  31.994  87.6480  0.00  0.00     0.000 OA
ATOM     75   S  A00 X   4      13.223  31.104  88.5570  0.00  0.00     0.000 S
ENDBRANCH 62 70
ENDBRANCH 57 61
ENDBRANCH 41 57
ENDBRANCH 40 44
ENDBRANCH 20 40
ENDBRANCH 19 23
ENDBRANCH 1 19
TORSDOF 14
ENDMDL
MODEL 41
REMARK VINA RESULT:      -4.3     29.169     34.311
ROOT
ATOM      1  C1  A00 X   1      17.354  49.440  31.2750  0.00  0.00     0.000 C
ATOM      2  C2  A00 X   1      16.864  49.038  32.6920  0.00  0.00     0.000 C
ATOM      3  C3  A00 X   1      17.979  48.678  33.7280  0.00  0.00     0.000 C
ATOM      4  C4  A00 X   1      19.384  48.410  33.1320  0.00  0.00     0.000 C
ATOM      5  C5  A00 X   1      19.320  48.013  31.6570  0.00  0.00     0.000 C
ATOM      6  O5  A00 X   1      18.747  49.161  30.9920  0.00  0.00     0.000 O
ATOM      7   O  A00 X   1      17.597  47.489  34.4160  0.00  0.00     0.000 O
ATOM      9  HD  A00 X   1      18.444  47.426  34.2470  0.00  0.00     0.000 HD
ATOM      9   O  A00 X   1      20.242  49.540  33.2900  0.00  0.00     0.000 O
ATOM     11  HD  A00 X   1      21.089  49.477  33.1210  0.00  0.00     0.000 HD
ENDROOT
BRANCH 2 11
ATOM     11   O  A00 X   1      16.076  50.128  33.2090  0.00  0.00     0.000 O
ATOM     12   O  A00 X   1      15.900  52.227  32.0550  0.00  0.00     0.000 OA
ATOM     13   O  A00 X   1      18.064  51.515  32.9100  0.00  0.00     0.000 OA
ATOM     14   O  A00 X   1      16.316  52.118  34.4070  0.00  0.00     0.000 OA
ATOM     15   S  A00 X   1      16.643  51.586  33.1110  0.00  0.00     0.000 S
ENDBRANCH 2 11
BRANCH 5 16
ATOM     16   C  A00 X   1      18.575  46.705  31.3710  0.00  0.00     0.000 C
ATOM     17   O  A00 X   1      18.328  45.962  32.2990  0.00  0.00     0.000 OA
ATOM     18   O  A00 X   1      18.218  46.389  30.2530  0.00  0.00     0.000 OA
ENDBRANCH 5 16
BRANCH 1 19
ATOM     19  O4  A00 X   2      16.492  48.944  30.2210  0.00  0.00     0.000 O
BRANCH 19 23
ATOM     20  C1  A00 X   2      14.859  50.873  26.7610  0.00  0.00     0.000 C
ATOM     21  C2  A00 X   2      16.399  50.878  26.9220  0.00  0.00     0.000 C
ATOM     22  C3  A00 X   2      16.848  49.807  27.9380  0.00  0.00     0.000 C
ATOM     23  C4  A00 X   2      16.103  49.985  29.2800  0.00  0.00     0.000 C
ATOM     24  C5  A00 X   2      14.579  49.982  28.9820  0.00  0.00     0.000 C
ATOM     25  O5  A00 X   2      14.278  51.075  28.0760  0.00  0.00     0.000 O
ATOM     26   O  A00 X   2      18.284  49.805  28.0010  0.00  0.00     0.000 O
ATOM     28  HD  A00 X   2      18.331  50.663  28.1130  0.00  0.00     0.000 HD
BRANCH 21 30
ATOM     28   N  A00 X   2      16.422  52.208  26.3050  0.00  0.00     0.000 N
ATOM     30  HD  A00 X   2      17.234  51.907  26.2820  0.00  0.00     0.000 HD
ATOM     30   O  A00 X   2      18.425  52.426  25.1220  0.00  0.00     0.000 OA
ATOM     31   S  A00 X   2      17.790  52.998  26.2570  0.00  0.00     0.000 S
ATOM     32   O  A00 X   2      17.389  54.362  26.1010  0.00  0.00     0.000 OA
ATOM     33   O  A00 X   2      18.433  52.810  27.5230  0.00  0.00     0.000 OA
ENDBRANCH 21 30
BRANCH 24 34
ATOM     34   C  A00 X   2      13.605  49.914  30.1810  0.00  0.00     0.000 C
ATOM     35   O  A00 X   2      10.900  47.495  30.4800  0.00  0.00     0.000 OA
ATOM     36   O  A00 X   2      12.446  49.115  29.8690  0.00  0.00     0.000 O
ATOM     37   O  A00 X   2      13.168  46.908  30.1540  0.00  0.00     0.000 OA
ATOM     38   S  A00 X   2      12.257  47.832  30.7590  0.00  0.00     0.000 S
ATOM     39   O  A00 X   2      12.518  48.233  32.1090  0.00  0.00     0.000 OA
ENDBRANCH 24 34
BRANCH 20 40
ATOM     40  O4  A00 X   3      14.523  49.562  26.2840  0.00  0.00     0.000 O
BRANCH 40 44
ATOM     41  C1  A00 X   3      12.300  46.703  26.3860  0.00  0.00     0.000 C
ATOM     42  C2  A00 X   3      13.565  46.803  25.5060  0.00  0.00     0.000 C
ATOM     43  C3  A00 X   3      13.571  48.122  24.6910  0.00  0.00     0.000 C
ATOM     44  C4  A00 X   3      13.316  49.378  25.5150  0.00  0.00     0.000 C
ATOM     45  C5  A00 X   3      12.027  49.202  26.3660  0.00  0.00     0.000 C
ATOM     46  O5  A00 X   3      12.060  47.941  27.1110  0.00  0.00     0.000 O
ATOM     47   O  A00 X   3      14.653  48.283  23.7750  0.00  0.00     0.000 O
ATOM     49  HD  A00 X   3      14.617  49.103  24.0510  0.00  0.00     0.000 HD
BRANCH 42 49
ATOM     49   O  A00 X   3      14.704  46.725  26.3920  0.00  0.00     0.000 O
ATOM     50   O  A00 X   3      17.086  46.726  26.1560  0.00  0.00     0.000 OA
ATOM     51   O  A00 X   3      15.788  45.479  24.6230  0.00  0.00     0.000 OA
ATOM     52   O  A00 X   3      15.885  44.753  26.8710  0.00  0.00     0.000 OA
ATOM     53   S  A00 X   3      15.948  45.876  26.0000  0.00  0.00     0.000 S
ENDBRANCH 42 49
BRANCH 45 54
ATOM     54   C  A00 X   3      10.760  49.370  25.5200  0.00  0.00     0.000 C
ATOM     55   O  A00 X   3       9.674  49.497  26.0490  0.00  0.00     0.000 OA
ATOM     56   O  A00 X   3      10.819  49.378  24.3000  0.00  0.00     0.000 OA
ENDBRANCH 45 54
BRANCH 41 57
ATOM     57  O4  A00 X   4      11.160  46.234  25.6310  0.00  0.00     0.000 O
BRANCH 57 61
ATOM     58  C1  A00 X   4       7.789  43.725  26.6190  0.00  0.00     0.000 C
ATOM     59  C2  A00 X   4       7.860  45.146  27.2310  0.00  0.00     0.000 C
ATOM     60  C3  A00 X   4       8.890  46.062  26.5400  0.00  0.00     0.000 C
ATOM     61  C4  A00 X   4      10.253  45.360  26.3610  0.00  0.00     0.000 C
ATOM     62  C5  A00 X   4       9.976  44.073  25.5440  0.00  0.00     0.000 C
ATOM     63  O5  A00 X   4       9.101  43.203  26.3070  0.00  0.00     0.000 O
BRANCH 59 66
ATOM     64   N  A00 X   4       8.306  44.578  28.5160  0.00  0.00     0.000 N
ATOM     66  HD  A00 X   4       8.599  43.763  28.5130  0.00  0.00     0.000 HD
ATOM     66   O  A00 X   4       5.997  44.563  29.1980  0.00  0.00     0.000 OA
ATOM     67   S  A00 X   4       7.307  44.648  29.7630  0.00  0.00     0.000 S
ATOM     68   O  A00 X   4       7.735  43.497  30.5030  0.00  0.00     0.000 OA
ATOM     69   O  A00 X   4       7.708  45.900  30.3390  0.00  0.00     0.000 OA
ENDBRANCH 59 66
BRANCH 62 70
ATOM     70   C  A00 X   4      11.249  43.280  25.1640  0.00  0.00     0.000 C
ATOM     71   O  A00 X   4      12.623  40.322  26.7340  0.00  0.00     0.000 OA
ATOM     72   O  A00 X   4      13.650  42.349  26.1180  0.00  0.00     0.000 OA
ATOM     73   O  A00 X   4      11.275  42.044  25.8960  0.00  0.00     0.000 O
ATOM     74   O  A00 X   4      12.230  42.272  28.0960  0.00  0.00     0.000 OA
ATOM     75   S  A00 X   4      12.523  41.753  26.8000  0.00  0.00     0.000 S
ENDBRANCH 62 70
ENDBRANCH 57 61
ENDBRANCH 41 57
ENDBRANCH 40 44
ENDBRANCH 20 40
ENDBRANCH 19 23
ENDBRANCH 1 19
TORSDOF 14
ENDMDL
MODEL 42
REMARK VINA RESULT:      -4.2     36.521     41.274
ROOT
ATOM      1  C1  A00 X   1       9.515  46.655  16.8630  0.00  0.00     0.000 C
ATOM      2  C2  A00 X   1       9.734  47.771  17.9200  0.00  0.00     0.000 C
ATOM      3  C3  A00 X   1       9.039  49.141  17.6270  0.00  0.00     0.000 C
ATOM      4  C4  A00 X   1       8.535  49.339  16.1750  0.00  0.00     0.000 C
ATOM      5  C5  A00 X   1       9.265  48.433  15.1820  0.00  0.00     0.000 C
ATOM      6  O5  A00 X   1       8.941  47.090  15.6050  0.00  0.00     0.000 O
ATOM      7   O  A00 X   1       9.972  50.190  17.8780  0.00  0.00     0.000 O
ATOM      9  HD  A00 X   1       9.544  50.396  17.1540  0.00  0.00     0.000 HD
ATOM      9   O  A00 X   1       7.127  49.125  16.0770  0.00  0.00     0.000 O
ATOM     11  HD  A00 X   1       6.699  49.331  15.3530  0.00  0.00     0.000 HD
ENDROOT
BRANCH 2 11
ATOM     11   O  A00 X   1       9.270  47.270  19.1890  0.00  0.00     0.000 O
ATOM     12   O  A00 X   1       8.815  48.730  21.0410  0.00  0.00     0.000 OA
ATOM     13   O  A00 X   1      11.090  48.550  20.1960  0.00  0.00     0.000 OA
ATOM     14   O  A00 X   1      10.070  46.713  21.3100  0.00  0.00     0.000 OA
ATOM     15   S  A00 X   1       9.854  47.886  20.5060  0.00  0.00     0.000 S
ENDBRANCH 2 11
BRANCH 5 16
ATOM     16   C  A00 X   1      10.770  48.691  15.0570  0.00  0.00     0.000 C
ATOM     17   O  A00 X   1      11.213  49.749  15.4520  0.00  0.00     0.000 OA
ATOM     18   O  A00 X   1      11.534  47.873  14.5830  0.00  0.00     0.000 OA
ENDBRANCH 5 16
BRANCH 1 19
ATOM     19  O4  A00 X   2      10.694  45.841  16.6530  0.00  0.00     0.000 O
BRANCH 19 23
ATOM     20  C1  A00 X   2      11.252  41.592  16.6840  0.00  0.00     0.000 C
ATOM     21  C2  A00 X   2      10.283  42.178  15.6290  0.00  0.00     0.000 C
ATOM     22  C3  A00 X   2      10.513  43.693  15.4530  0.00  0.00     0.000 C
ATOM     23  C4  A00 X   2      10.427  44.419  16.8140  0.00  0.00     0.000 C
ATOM     24  C5  A00 X   2      11.427  43.730  17.7830  0.00  0.00     0.000 C
ATOM     25  O5  A00 X   2      11.059  42.332  17.9190  0.00  0.00     0.000 O
ATOM     26   O  A00 X   2       9.639  44.175  14.4170  0.00  0.00     0.000 O
ATOM     28  HD  A00 X   2       8.938  43.806  14.7670  0.00  0.00     0.000 HD
BRANCH 21 30
ATOM     28   N  A00 X   2      10.327  40.822  15.0720  0.00  0.00     0.000 N
ATOM     30  HD  A00 X   2       9.520  41.114  14.9570  0.00  0.00     0.000 HD
ATOM     30   O  A00 X   2       8.452  40.533  13.7090  0.00  0.00     0.000 OA
ATOM     31   S  A00 X   2       8.975  40.018  14.9250  0.00  0.00     0.000 S
ATOM     32   O  A00 X   2       9.397  38.652  14.8700  0.00  0.00     0.000 OA
ATOM     33   O  A00 X   2       8.210  40.255  16.1130  0.00  0.00     0.000 OA
ENDBRANCH 21 30
BRANCH 24 34
ATOM     34   C  A00 X   2      11.703  44.409  19.1450  0.00  0.00     0.000 C
ATOM     35   O  A00 X   2      14.949  44.428  20.7950  0.00  0.00     0.000 OA
ATOM     36   O  A00 X   2      12.951  43.960  19.7090  0.00  0.00     0.000 O
ATOM     37   O  A00 X   2      14.580  45.217  18.5960  0.00  0.00     0.000 OA
ATOM     38   S  A00 X   2      14.037  45.079  19.9130  0.00  0.00     0.000 S
ATOM     39   O  A00 X   2      13.355  46.208  20.4710  0.00  0.00     0.000 OA
ENDBRANCH 24 34
BRANCH 20 40
ATOM     40  O4  A00 X   3      12.572  41.840  16.1780  0.00  0.00     0.000 O
BRANCH 40 44
ATOM     41  C1  A00 X   3      16.038  42.030  15.1410  0.00  0.00     0.000 C
ATOM     42  C2  A00 X   3      15.019  40.993  14.6210  0.00  0.00     0.000 C
ATOM     43  C3  A00 X   3      14.295  40.289  15.7970  0.00  0.00     0.000 C
ATOM     44  C4  A00 X   3      13.706  41.235  16.8360  0.00  0.00     0.000 C
ATOM     45  C5  A00 X   3      14.790  42.243  17.3120  0.00  0.00     0.000 C
ATOM     46  O5  A00 X   3      15.454  42.875  16.1710  0.00  0.00     0.000 O
ATOM     47   O  A00 X   3      13.391  39.246  15.4370  0.00  0.00     0.000 O
ATOM     49  HD  A00 X   3      12.919  39.588  16.0780  0.00  0.00     0.000 HD
BRANCH 42 49
ATOM     49   O  A00 X   3      14.087  41.702  13.7750  0.00  0.00     0.000 O
ATOM     50   O  A00 X   3      13.083  41.352  11.6300  0.00  0.00     0.000 OA
ATOM     51   O  A00 X   3      15.374  40.841  11.9140  0.00  0.00     0.000 OA
ATOM     52   O  A00 X   3      14.706  43.107  11.9980  0.00  0.00     0.000 OA
ATOM     53   S  A00 X   3      14.311  41.761  12.2360  0.00  0.00     0.000 S
ENDBRANCH 42 49
BRANCH 45 54
ATOM     54   C  A00 X   3      15.770  41.597  18.2990  0.00  0.00     0.000 C
ATOM     55   O  A00 X   3      16.716  42.224  18.7310  0.00  0.00     0.000 OA
ATOM     56   O  A00 X   3      15.618  40.443  18.6670  0.00  0.00     0.000 OA
ENDBRANCH 45 54
BRANCH 41 57
ATOM     57  O4  A00 X   4      17.283  41.408  15.5280  0.00  0.00     0.000 O
BRANCH 57 61
ATOM     58  C1  A00 X   4      21.402  42.665  15.2180  0.00  0.00     0.000 C
ATOM     59  C2  A00 X   4      20.614  43.020  16.5030  0.00  0.00     0.000 C
ATOM     60  C3  A00 X   4      19.300  42.226  16.6570  0.00  0.00     0.000 C
ATOM     61  C4  A00 X   4      18.468  42.237  15.3570  0.00  0.00     0.000 C
ATOM     62  C5  A00 X   4      19.379  41.648  14.2510  0.00  0.00     0.000 C
ATOM     63  O5  A00 X   4      20.532  42.510  14.0730  0.00  0.00     0.000 O
BRANCH 59 66
ATOM     64   N  A00 X   4      20.136  44.376  16.8280  0.00  0.00     0.000 N
ATOM     66  HD  A00 X   4      19.844  44.864  16.1760  0.00  0.00     0.000 HD
ATOM     66   O  A00 X   4      22.428  44.969  17.2680  0.00  0.00     0.000 OA
ATOM     67   S  A00 X   4      21.104  45.341  17.6590  0.00  0.00     0.000 S
ATOM     68   O  A00 X   4      20.659  46.620  17.1900  0.00  0.00     0.000 OA
ATOM     69   O  A00 X   4      20.688  45.027  18.9960  0.00  0.00     0.000 OA
ENDBRANCH 59 66
BRANCH 62 70
ATOM     70   C  A00 X   4      18.680  41.473  12.8820  0.00  0.00     0.000 C
ATOM     71   O  A00 X   4      19.771  39.551  10.0150  0.00  0.00     0.000 OA
ATOM     72   O  A00 X   4      19.004  41.771  10.1710  0.00  0.00     0.000 OA
ATOM     73   O  A00 X   4      19.339  40.433  12.1420  0.00  0.00     0.000 O
ATOM     74   O  A00 X   4      21.259  41.221  10.9160  0.00  0.00     0.000 OA
ATOM     75   S  A00 X   4      19.911  40.790  10.7260  0.00  0.00     0.000 S
ENDBRANCH 62 70
ENDBRANCH 57 61
ENDBRANCH 41 57
ENDBRANCH 40 44
ENDBRANCH 20 40
ENDBRANCH 19 23
ENDBRANCH 1 19
TORSDOF 14
ENDMDL
MODEL 43
REMARK VINA RESULT:      -4.2     21.132     26.568
ROOT
ATOM      1  C1  A00 X   1      20.874  50.926  33.3340  0.00  0.00     0.000 C
ATOM      2  C2  A00 X   1      19.755  50.449  32.3690  0.00  0.00     0.000 C
ATOM      3  C3  A00 X   1      18.286  50.703  32.8410  0.00  0.00     0.000 C
ATOM      4  C4  A00 X   1      18.117  51.051  34.3430  0.00  0.00     0.000 C
ATOM      5  C5  A00 X   1      19.296  50.563  35.1850  0.00  0.00     0.000 C
ATOM      6  O5  A00 X   1      20.438  51.283  34.6690  0.00  0.00     0.000 O
ATOM      7   O  A00 X   1      17.522  49.521  32.6120  0.00  0.00     0.000 O
ATOM      9  HD  A00 X   1      17.285  49.832  33.3850  0.00  0.00     0.000 HD
ATOM      9   O  A00 X   1      17.935  52.454  34.5350  0.00  0.00     0.000 O
ATOM     11  HD  A00 X   1      17.698  52.765  35.3080  0.00  0.00     0.000 HD
ENDROOT
BRANCH 2 11
ATOM     11   O  A00 X   1      19.961  51.104  31.1020  0.00  0.00     0.000 O
ATOM     12   O  A00 X   1      18.665  50.546  29.1590  0.00  0.00     0.000 OA
ATOM     13   O  A00 X   1      20.129  48.867  30.1360  0.00  0.00     0.000 OA
ATOM     14   O  A00 X   1      21.042  50.780  29.0580  0.00  0.00     0.000 OA
ATOM     15   S  A00 X   1      19.925  50.247  29.7900  0.00  0.00     0.000 S
ENDBRANCH 2 11
BRANCH 5 16
ATOM     16   C  A00 X   1      19.489  49.044  35.2100  0.00  0.00     0.000 C
ATOM     17   O  A00 X   1      20.521  48.596  35.6660  0.00  0.00     0.000 OA
ATOM     18   O  A00 X   1      18.645  48.273  34.7960  0.00  0.00     0.000 OA
ENDBRANCH 5 16
BRANCH 1 19
ATOM     19  O4  A00 X   2      22.006  50.023  33.3710  0.00  0.00     0.000 O
BRANCH 19 23
ATOM     20  C1  A00 X   2      26.193  50.732  33.9410  0.00  0.00     0.000 C
ATOM     21  C2  A00 X   2      25.255  50.987  35.1450  0.00  0.00     0.000 C
ATOM     22  C3  A00 X   2      23.893  50.293  34.9370  0.00  0.00     0.000 C
ATOM     23  C4  A00 X   2      23.267  50.717  33.5890  0.00  0.00     0.000 C
ATOM     24  C5  A00 X   2      24.308  50.429  32.4720  0.00  0.00     0.000 C
ATOM     25  O5  A00 X   2      25.510  51.194  32.7450  0.00  0.00     0.000 O
ATOM     26   O  A00 X   2      23.085  50.501  36.1080  0.00  0.00     0.000 O
ATOM     28  HD  A00 X   2      23.224  51.356  36.1130  0.00  0.00     0.000 HD
BRANCH 21 30
ATOM     28   N  A00 X   2      26.188  52.043  35.5490  0.00  0.00     0.000 N
ATOM     30  HD  A00 X   2      25.657  51.908  36.2190  0.00  0.00     0.000 HD
ATOM     30   O  A00 X   2      26.078  52.263  37.8720  0.00  0.00     0.000 OA
ATOM     31   S  A00 X   2      25.766  53.024  36.7140  0.00  0.00     0.000 S
ATOM     32   O  A00 X   2      26.591  54.173  36.5060  0.00  0.00     0.000 OA
ATOM     33   O  A00 X   2      24.388  53.357  36.5090  0.00  0.00     0.000 OA
ENDBRANCH 21 30
BRANCH 24 34
ATOM     34   C  A00 X   2      23.845  50.550  31.0010  0.00  0.00     0.000 C
ATOM     35   O  A00 X   2      25.776  52.183  28.3810  0.00  0.00     0.000 OA
ATOM     36   O  A00 X   2      24.622  51.532  30.2870  0.00  0.00     0.000 O
ATOM     37   O  A00 X   2      26.595  50.413  29.7190  0.00  0.00     0.000 OA
ATOM     38   S  A00 X   2      25.451  50.978  29.0720  0.00  0.00     0.000 S
ATOM     39   O  A00 X   2      24.583  50.087  28.3620  0.00  0.00     0.000 OA
ENDBRANCH 24 34
BRANCH 20 40
ATOM     40  O4  A00 X   3      26.364  49.308  33.8770  0.00  0.00     0.000 O
BRANCH 40 44
ATOM     41  C1  A00 X   3      28.225  46.200  33.8300  0.00  0.00     0.000 C
ATOM     42  C2  A00 X   3      28.805  47.567  34.2530  0.00  0.00     0.000 C
ATOM     43  C3  A00 X   3      28.510  48.651  33.1840  0.00  0.00     0.000 C
ATOM     44  C4  A00 X   3      27.053  48.730  32.7470  0.00  0.00     0.000 C
ATOM     45  C5  A00 X   3      26.544  47.320  32.3330  0.00  0.00     0.000 C
ATOM     46  O5  A00 X   3      26.852  46.329  33.3650  0.00  0.00     0.000 O
ATOM     47   O  A00 X   3      29.075  49.937  33.4280  0.00  0.00     0.000 O
ATOM     49  HD  A00 X   3      28.316  50.207  33.1100  0.00  0.00     0.000 HD
BRANCH 42 49
ATOM     49   O  A00 X   3      28.208  47.905  35.5240  0.00  0.00     0.000 O
ATOM     50   O  A00 X   3      28.228  49.788  37.0020  0.00  0.00     0.000 OA
ATOM     51   O  A00 X   3      30.251  49.123  35.9750  0.00  0.00     0.000 OA
ATOM     52   O  A00 X   3      29.290  47.699  37.5980  0.00  0.00     0.000 OA
ATOM     53   S  A00 X   3      29.030  48.676  36.5980  0.00  0.00     0.000 S
ENDBRANCH 42 49
BRANCH 45 54
ATOM     54   C  A00 X   3      27.051  46.920  30.9420  0.00  0.00     0.000 C
ATOM     55   O  A00 X   3      28.052  47.428  30.4780  0.00  0.00     0.000 OA
ATOM     56   O  A00 X   3      26.457  46.087  30.2760  0.00  0.00     0.000 OA
ENDBRANCH 45 54
BRANCH 41 57
ATOM     57  O4  A00 X   4      29.096  45.515  32.9030  0.00  0.00     0.000 O
BRANCH 57 61
ATOM     58  C1  A00 X   4      29.516  41.367  31.7800  0.00  0.00     0.000 C
ATOM     59  C2  A00 X   4      28.465  42.232  31.0410  0.00  0.00     0.000 C
ATOM     60  C3  A00 X   4      28.650  43.747  31.2630  0.00  0.00     0.000 C
ATOM     61  C4  A00 X   4      28.843  44.088  32.7570  0.00  0.00     0.000 C
ATOM     62  C5  A00 X   4      30.071  43.274  33.2340  0.00  0.00     0.000 C
ATOM     63  O5  A00 X   4      29.781  41.858  33.1140  0.00  0.00     0.000 O
BRANCH 59 66
ATOM     64   N  A00 X   4      27.854  42.288  29.7010  0.00  0.00     0.000 N
ATOM     66  HD  A00 X   4      27.159  42.795  29.5990  0.00  0.00     0.000 HD
ATOM     66   O  A00 X   4      27.108  40.026  30.0580  0.00  0.00     0.000 OA
ATOM     67   S  A00 X   4      27.461  40.909  28.9910  0.00  0.00     0.000 S
ATOM     68   O  A00 X   4      26.372  41.345  28.1660  0.00  0.00     0.000 OA
ATOM     69   O  A00 X   4      28.673  40.640  28.2710  0.00  0.00     0.000 OA
ENDBRANCH 59 66
BRANCH 62 70
ATOM     70   C  A00 X   4      30.495  43.567  34.6930  0.00  0.00     0.000 C
ATOM     71   O  A00 X   4      29.332  42.003  37.7440  0.00  0.00     0.000 OA
ATOM     72   O  A00 X   4      29.559  44.277  37.1760  0.00  0.00     0.000 OA
ATOM     73   O  A00 X   4      29.967  42.547  35.5550  0.00  0.00     0.000 O
ATOM     74   O  A00 X   4      27.705  42.986  36.2600  0.00  0.00     0.000 OA
ATOM     75   S  A00 X   4      29.048  42.994  36.7450  0.00  0.00     0.000 S
ENDBRANCH 62 70
ENDBRANCH 57 61
ENDBRANCH 41 57
ENDBRANCH 40 44
ENDBRANCH 20 40
ENDBRANCH 19 23
ENDBRANCH 1 19
TORSDOF 14
ENDMDL
MODEL 44
REMARK VINA RESULT:      -4.1     29.173     32.931
ROOT
ATOM      1  C1  A00 X   1      17.510  49.223  31.1450  0.00  0.00     0.000 C
ATOM      2  C2  A00 X   1      18.314  50.456  31.6370  0.00  0.00     0.000 C
ATOM      3  C3  A00 X   1      17.914  51.022  33.0400  0.00  0.00     0.000 C
ATOM      4  C4  A00 X   1      16.552  50.532  33.5950  0.00  0.00     0.000 C
ATOM      5  C5  A00 X   1      15.619  50.043  32.4860  0.00  0.00     0.000 C
ATOM      6  O5  A00 X   1      16.309  48.919  31.8960  0.00  0.00     0.000 O
ATOM      7   O  A00 X   1      17.829  52.442  32.9530  0.00  0.00     0.000 O
ATOM      9  HD  A00 X   1      17.160  52.175  33.4350  0.00  0.00     0.000 HD
ATOM      9   O  A00 X   1      16.725  49.502  34.5680  0.00  0.00     0.000 O
ATOM     11  HD  A00 X   1      16.057  49.235  35.0500  0.00  0.00     0.000 HD
ENDROOT
BRANCH 2 11
ATOM     11   O  A00 X   1      19.708  50.091  31.6580  0.00  0.00     0.000 O
ATOM     12   O  A00 X   1      21.439  51.710  32.0420  0.00  0.00     0.000 OA
ATOM     13   O  A00 X   1      20.056  51.896  30.0500  0.00  0.00     0.000 OA
ATOM     14   O  A00 X   1      21.595  50.098  30.2840  0.00  0.00     0.000 OA
ATOM     15   S  A00 X   1      20.750  51.038  30.9700  0.00  0.00     0.000 S
ENDBRANCH 2 11
BRANCH 5 16
ATOM     16   C  A00 X   1      15.206  51.112  31.4700  0.00  0.00     0.000 C
ATOM     17   O  A00 X   1      15.399  52.279  31.7420  0.00  0.00     0.000 OA
ATOM     18   O  A00 X   1      14.701  50.834  30.4000  0.00  0.00     0.000 OA
ENDBRANCH 5 16
BRANCH 1 19
ATOM     19  O4  A00 X   2      17.248  49.256  29.7200  0.00  0.00     0.000 O
BRANCH 19 23
ATOM     20  C1  A00 X   2      16.425  46.130  26.9070  0.00  0.00     0.000 C
ATOM     21  C2  A00 X   2      15.316  46.484  27.9270  0.00  0.00     0.000 C
ATOM     22  C3  A00 X   2      15.572  47.868  28.5600  0.00  0.00     0.000 C
ATOM     23  C4  A00 X   2      16.990  47.933  29.1690  0.00  0.00     0.000 C
ATOM     24  C5  A00 X   2      18.003  47.542  28.0580  0.00  0.00     0.000 C
ATOM     25  O5  A00 X   2      17.699  46.198  27.6010  0.00  0.00     0.000 O
ATOM     26   O  A00 X   2      14.482  48.179  29.4450  0.00  0.00     0.000 O
ATOM     28  HD  A00 X   2      14.531  47.418  29.8540  0.00  0.00     0.000 HD
BRANCH 21 30
ATOM     28   N  A00 X   2      14.175  46.619  28.8390  0.00  0.00     0.000 N
ATOM     30  HD  A00 X   2      13.919  46.104  28.1910  0.00  0.00     0.000 HD
ATOM     30   O  A00 X   2      12.639  44.931  28.3360  0.00  0.00     0.000 OA
ATOM     31   S  A00 X   2      12.721  46.348  28.2800  0.00  0.00     0.000 S
ATOM     32   O  A00 X   2      11.871  47.039  29.1990  0.00  0.00     0.000 OA
ATOM     33   O  A00 X   2      12.647  46.952  26.9830  0.00  0.00     0.000 OA
ENDBRANCH 21 30
BRANCH 24 34
ATOM     34   C  A00 X   2      19.509  47.750  28.3420  0.00  0.00     0.000 C
ATOM     35   O  A00 X   2      21.187  46.627  31.3720  0.00  0.00     0.000 OA
ATOM     36   O  A00 X   2      19.813  47.531  29.7340  0.00  0.00     0.000 O
ATOM     37   O  A00 X   2      19.954  45.205  29.9400  0.00  0.00     0.000 OA
ATOM     38   S  A00 X   2      20.809  46.349  30.0250  0.00  0.00     0.000 S
ATOM     39   O  A00 X   2      21.864  46.463  29.0630  0.00  0.00     0.000 OA
ENDBRANCH 24 34
BRANCH 20 40
ATOM     40  O4  A00 X   3      16.370  47.154  25.9040  0.00  0.00     0.000 O
BRANCH 40 44
ATOM     41  C1  A00 X   3      19.355  48.182  24.1280  0.00  0.00     0.000 C
ATOM     42  C2  A00 X   3      18.061  49.018  24.2320  0.00  0.00     0.000 C
ATOM     43  C3  A00 X   3      16.822  48.174  23.8370  0.00  0.00     0.000 C
ATOM     44  C4  A00 X   3      16.721  46.828  24.5420  0.00  0.00     0.000 C
ATOM     45  C5  A00 X   3      18.056  46.046  24.3890  0.00  0.00     0.000 C
ATOM     46  O5  A00 X   3      19.198  46.883  24.7630  0.00  0.00     0.000 O
ATOM     47   O  A00 X   3      15.577  48.870  23.8120  0.00  0.00     0.000 O
ATOM     49  HD  A00 X   3      15.285  48.128  24.1490  0.00  0.00     0.000 HD
BRANCH 42 49
ATOM     49   O  A00 X   3      17.968  49.486  25.5950  0.00  0.00     0.000 O
ATOM     50   O  A00 X   3      17.066  51.402  26.7120  0.00  0.00     0.000 OA
ATOM     51   O  A00 X   3      18.231  51.710  24.6780  0.00  0.00     0.000 OA
ATOM     52   O  A00 X   3      19.450  51.018  26.5810  0.00  0.00     0.000 OA
ATOM     53   S  A00 X   3      18.187  50.991  25.9270  0.00  0.00     0.000 S
ENDBRANCH 42 49
BRANCH 45 54
ATOM     54   C  A00 X   3      18.194  45.426  22.9930  0.00  0.00     0.000 C
ATOM     55   O  A00 X   3      19.217  44.860  22.6660  0.00  0.00     0.000 OA
ATOM     56   O  A00 X   3      17.279  45.491  22.1870  0.00  0.00     0.000 OA
ENDBRANCH 45 54
BRANCH 41 57
ATOM     57  O4  A00 X   4      19.841  48.117  22.7690  0.00  0.00     0.000 O
BRANCH 57 61
ATOM     58  C1  A00 X   4      23.794  48.279  21.0400  0.00  0.00     0.000 C
ATOM     59  C2  A00 X   4      23.272  46.920  21.5710  0.00  0.00     0.000 C
ATOM     60  C3  A00 X   4      21.751  46.903  21.8260  0.00  0.00     0.000 C
ATOM     61  C4  A00 X   4      21.290  48.139  22.6280  0.00  0.00     0.000 C
ATOM     62  C5  A00 X   4      21.731  49.378  21.8110  0.00  0.00     0.000 C
ATOM     63  O5  A00 X   4      23.178  49.398  21.7180  0.00  0.00     0.000 O
BRANCH 59 66
ATOM     64   N  A00 X   4      23.422  45.457  21.6570  0.00  0.00     0.000 N
ATOM     66  HD  A00 X   4      23.199  45.075  22.4020  0.00  0.00     0.000 HD
ATOM     66   O  A00 X   4      25.806  45.801  21.6550  0.00  0.00     0.000 OA
ATOM     67   S  A00 X   4      24.839  44.817  21.2810  0.00  0.00     0.000 S
ATOM     68   O  A00 X   4      24.814  43.636  22.0930  0.00  0.00     0.000 OA
ATOM     69   O  A00 X   4      24.641  44.571  19.8800  0.00  0.00     0.000 OA
ENDBRANCH 59 66
BRANCH 62 70
ATOM     70   C  A00 X   4      21.258  50.727  22.4050  0.00  0.00     0.000 C
ATOM     71   O  A00 X   4      23.219  53.673  23.1700  0.00  0.00     0.000 OA
ATOM     72   O  A00 X   4      21.643  52.500  24.4670  0.00  0.00     0.000 OA
ATOM     73   O  A00 X   4      22.322  51.688  22.3070  0.00  0.00     0.000 O
ATOM     74   O  A00 X   4      23.872  51.568  24.1480  0.00  0.00     0.000 OA
ATOM     75   S  A00 X   4      22.814  52.374  23.6290  0.00  0.00     0.000 S
ENDBRANCH 62 70
ENDBRANCH 57 61
ENDBRANCH 41 57
ENDBRANCH 40 44
ENDBRANCH 20 40
ENDBRANCH 19 23
ENDBRANCH 1 19
TORSDOF 14
ENDMDL
MODEL 45
REMARK VINA RESULT:      -4.1     28.961     34.779
ROOT
ATOM      1  C1  A00 X   1      17.301  49.832  32.1930  0.00  0.00     0.000 C
ATOM      2  C2  A00 X   1      16.678  49.101  33.4110  0.00  0.00     0.000 C
ATOM      3  C3  A00 X   1      17.681  48.346  34.3450  0.00  0.00     0.000 C
ATOM      4  C4  A00 X   1      19.095  48.109  33.7550  0.00  0.00     0.000 C
ATOM      5  C5  A00 X   1      19.098  48.154  32.2270  0.00  0.00     0.000 C
ATOM      6  O5  A00 X   1      18.680  49.498  31.8990  0.00  0.00     0.000 O
ATOM      7   O  A00 X   1      17.146  47.058  34.6450  0.00  0.00     0.000 O
ATOM      9  HD  A00 X   1      17.994  46.955  34.5000  0.00  0.00     0.000 HD
ATOM      9   O  A00 X   1      20.038  49.049  34.2680  0.00  0.00     0.000 O
ATOM     11  HD  A00 X   1      20.886  48.946  34.1230  0.00  0.00     0.000 HD
ENDROOT
BRANCH 2 11
ATOM     11   O  A00 X   1      15.958  50.078  34.1880  0.00  0.00     0.000 O
ATOM     12   O  A00 X   1      16.302  52.436  33.8970  0.00  0.00     0.000 OA
ATOM     13   O  A00 X   1      18.135  51.057  34.7060  0.00  0.00     0.000 OA
ATOM     14   O  A00 X   1      16.222  51.438  36.0670  0.00  0.00     0.000 OA
ATOM     15   S  A00 X   1      16.725  51.335  34.7240  0.00  0.00     0.000 S
ENDBRANCH 2 11
BRANCH 5 16
ATOM     16   C  A00 X   1      18.260  47.068  31.5450  0.00  0.00     0.000 C
ATOM     17   O  A00 X   1      17.947  46.086  32.1870  0.00  0.00     0.000 OA
ATOM     18   O  A00 X   1      17.893  47.157  30.3910  0.00  0.00     0.000 OA
ENDBRANCH 5 16
BRANCH 1 19
ATOM     19  O4  A00 X   2      16.474  49.750  31.0060  0.00  0.00     0.000 O
BRANCH 19 23
ATOM     20  C1  A00 X   2      12.994  51.987  29.8890  0.00  0.00     0.000 C
ATOM     21  C2  A00 X   2      14.197  52.776  30.4590  0.00  0.00     0.000 C
ATOM     22  C3  A00 X   2      15.486  51.928  30.4030  0.00  0.00     0.000 C
ATOM     23  C4  A00 X   2      15.273  50.568  31.1040  0.00  0.00     0.000 C
ATOM     24  C5  A00 X   2      14.034  49.889  30.4580  0.00  0.00     0.000 C
ATOM     25  O5  A00 X   2      12.880  50.751  30.6430  0.00  0.00     0.000 O
ATOM     26   O  A00 X   2      16.584  52.726  30.8770  0.00  0.00     0.000 O
ATOM     28  HD  A00 X   2      16.164  52.965  31.5970  0.00  0.00     0.000 HD
BRANCH 21 30
ATOM     28   N  A00 X   2      15.139  53.876  30.2300  0.00  0.00     0.000 N
ATOM     30  HD  A00 X   2      14.381  54.235  30.4460  0.00  0.00     0.000 HD
ATOM     30   O  A00 X   2      14.229  55.816  31.1620  0.00  0.00     0.000 OA
ATOM     31   S  A00 X   2      14.563  55.306  29.8800  0.00  0.00     0.000 S
ATOM     32   O  A00 X   2      15.657  55.963  29.2350  0.00  0.00     0.000 OA
ATOM     33   O  A00 X   2      13.485  55.114  28.9570  0.00  0.00     0.000 OA
ENDBRANCH 21 30
BRANCH 24 34
ATOM     34   C  A00 X   2      13.742  48.415  30.8220  0.00  0.00     0.000 C
ATOM     35   O  A00 X   2      10.624  47.257  32.3020  0.00  0.00     0.000 OA
ATOM     36   O  A00 X   2      12.603  48.308  31.6990  0.00  0.00     0.000 O
ATOM     37   O  A00 X   2      10.755  48.466  30.2740  0.00  0.00     0.000 OA
ATOM     38   S  A00 X   2      11.385  47.500  31.1210  0.00  0.00     0.000 S
ATOM     39   O  A00 X   2      11.932  46.331  30.5010  0.00  0.00     0.000 OA
ENDBRANCH 24 34
BRANCH 20 40
ATOM     40  O4  A00 X   3      13.335  51.689  28.5270  0.00  0.00     0.000 O
BRANCH 40 44
ATOM     41  C1  A00 X   3      13.098  48.970  26.1450  0.00  0.00     0.000 C
ATOM     42  C2  A00 X   3      13.869  50.286  25.9050  0.00  0.00     0.000 C
ATOM     43  C3  A00 X   3      12.976  51.516  26.2120  0.00  0.00     0.000 C
ATOM     44  C4  A00 X   3      12.280  51.471  27.5660  0.00  0.00     0.000 C
ATOM     45  C5  A00 X   3      11.524  50.123  27.7310  0.00  0.00     0.000 C
ATOM     46  O5  A00 X   3      12.400  48.991  27.4210  0.00  0.00     0.000 O
ATOM     47   O  A00 X   3      13.558  52.790  25.9410  0.00  0.00     0.000 O
ATOM     49  HD  A00 X   3      13.149  53.007  26.6740  0.00  0.00     0.000 HD
BRANCH 42 49
ATOM     49   O  A00 X   3      15.035  50.254  26.7550  0.00  0.00     0.000 O
ATOM     50   O  A00 X   3      16.882  51.706  27.2180  0.00  0.00     0.000 OA
ATOM     51   O  A00 X   3      16.161  51.455  24.9810  0.00  0.00     0.000 OA
ATOM     52   O  A00 X   3      17.180  49.610  26.0500  0.00  0.00     0.000 OA
ATOM     53   S  A00 X   3      16.403  50.786  26.2350  0.00  0.00     0.000 S
ENDBRANCH 42 49
BRANCH 45 54
ATOM     54   C  A00 X   3      10.213  50.106  26.9360  0.00  0.00     0.000 C
ATOM     55   O  A00 X   3       9.363  49.269  27.1610  0.00  0.00     0.000 OA
ATOM     56   O  A00 X   3      10.002  50.932  26.0610  0.00  0.00     0.000 OA
ENDBRANCH 45 54
BRANCH 41 57
ATOM     57  O4  A00 X   4      12.255  48.632  25.0210  0.00  0.00     0.000 O
BRANCH 57 61
ATOM     58  C1  A00 X   4      10.602  44.848  23.7600  0.00  0.00     0.000 C
ATOM     59  C2  A00 X   4       9.655  45.895  24.3980  0.00  0.00     0.000 C
ATOM     60  C3  A00 X   4      10.264  47.310  24.4730  0.00  0.00     0.000 C
ATOM     61  C4  A00 X   4      11.696  47.288  25.0490  0.00  0.00     0.000 C
ATOM     62  C5  A00 X   4      12.519  46.346  24.1350  0.00  0.00     0.000 C
ATOM     63  O5  A00 X   4      11.967  45.007  24.2090  0.00  0.00     0.000 O
BRANCH 59 66
ATOM     64   N  A00 X   4       9.134  45.746  25.7690  0.00  0.00     0.000 N
ATOM     66  HD  A00 X   4       9.661  45.398  26.3610  0.00  0.00     0.000 HD
ATOM     66   O  A00 X   4       7.682  44.022  24.9220  0.00  0.00     0.000 OA
ATOM     67   S  A00 X   4       7.738  44.992  25.9700  0.00  0.00     0.000 S
ATOM     68   O  A00 X   4       7.918  44.464  27.2910  0.00  0.00     0.000 OA
ATOM     69   O  A00 X   4       6.836  46.106  25.9000  0.00  0.00     0.000 OA
ENDBRANCH 59 66
BRANCH 62 70
ATOM     70   C  A00 X   4      14.024  46.278  24.4890  0.00  0.00     0.000 C
ATOM     71   O  A00 X   4      15.656  44.326  27.0640  0.00  0.00     0.000 OA
ATOM     72   O  A00 X   4      15.842  46.609  26.5200  0.00  0.00     0.000 OA
ATOM     73   O  A00 X   4      14.248  45.195  25.4060  0.00  0.00     0.000 O
ATOM     74   O  A00 X   4      13.867  45.811  27.7040  0.00  0.00     0.000 OA
ATOM     75   S  A00 X   4      14.920  45.527  26.7830  0.00  0.00     0.000 S
ENDBRANCH 62 70
ENDBRANCH 57 61
ENDBRANCH 41 57
ENDBRANCH 40 44
ENDBRANCH 20 40
ENDBRANCH 19 23
ENDBRANCH 1 19
TORSDOF 14
ENDMDL
MODEL 46
REMARK VINA RESULT:      -4.0     40.525     44.015
ROOT
ATOM      1  C1  A00 X   1      17.087  31.577  90.7350  0.00  0.00     0.000 C
ATOM      2  C2  A00 X   1      16.193  31.013  91.8710  0.00  0.00     0.000 C
ATOM      3  C3  A00 X   1      14.687  31.433  91.8330  0.00  0.00     0.000 C
ATOM      4  C4  A00 X   1      14.350  32.631  90.9080  0.00  0.00     0.000 C
ATOM      5  C5  A00 X   1      15.569  33.510  90.6350  0.00  0.00     0.000 C
ATOM      6  O5  A00 X   1      16.500  32.644  89.9480  0.00  0.00     0.000 O
ATOM      7   O  A00 X   1      14.284  31.811  93.1480  0.00  0.00     0.000 O
ATOM      9  HD  A00 X   1      13.931  32.380  92.5990  0.00  0.00     0.000 HD
ATOM      9   O  A00 X   1      13.784  32.193  89.6730  0.00  0.00     0.000 O
ATOM     11  HD  A00 X   1      13.431  32.762  89.1240  0.00  0.00     0.000 HD
ENDROOT
BRANCH 2 11
ATOM     11   O  A00 X   1      16.280  29.575  91.8240  0.00  0.00     0.000 O
ATOM     12   O  A00 X   1      16.463  28.381  89.7490  0.00  0.00     0.000 OA
ATOM     13   O  A00 X   1      14.447  29.661  90.2120  0.00  0.00     0.000 OA
ATOM     14   O  A00 X   1      14.942  27.697  91.4600  0.00  0.00     0.000 OA
ATOM     15   S  A00 X   1      15.483  28.803  90.7170  0.00  0.00     0.000 S
ENDBRANCH 2 11
BRANCH 5 16
ATOM     16   C  A00 X   1      16.165  34.193  91.8700  0.00  0.00     0.000 C
ATOM     17   O  A00 X   1      15.497  34.250  92.8820  0.00  0.00     0.000 OA
ATOM     18   O  A00 X   1      17.282  34.672  91.8750  0.00  0.00     0.000 OA
ENDBRANCH 5 16
BRANCH 1 19
ATOM     19  O4  A00 X   2      18.418  31.927  91.1890  0.00  0.00     0.000 O
BRANCH 19 23
ATOM     20  C1  A00 X   2      20.305  30.963  87.4640  0.00  0.00     0.000 C
ATOM     21  C2  A00 X   2      20.264  29.861  88.5500  0.00  0.00     0.000 C
ATOM     22  C3  A00 X   2      19.207  30.189  89.6250  0.00  0.00     0.000 C
ATOM     23  C4  A00 X   2      19.445  31.599  90.2100  0.00  0.00     0.000 C
ATOM     24  C5  A00 X   2      19.484  32.604  89.0260  0.00  0.00     0.000 C
ATOM     25  O5  A00 X   2      20.562  32.228  88.1300  0.00  0.00     0.000 O
ATOM     26   O  A00 X   2      19.159  29.106  90.5700  0.00  0.00     0.000 O
ATOM     28  HD  A00 X   2      20.017  29.103  90.6860  0.00  0.00     0.000 HD
BRANCH 21 30
ATOM     28   N  A00 X   2      20.770  29.018  87.4620  0.00  0.00     0.000 N
ATOM     30  HD  A00 X   2      21.128  28.725  88.1940  0.00  0.00     0.000 HD
ATOM     30   O  A00 X   2      21.694  27.091  88.4050  0.00  0.00     0.000 OA
ATOM     31   S  A00 X   2      22.124  28.233  87.6790  0.00  0.00     0.000 S
ATOM     32   O  A00 X   2      22.578  27.967  86.3490  0.00  0.00     0.000 OA
ATOM     33   O  A00 X   2      23.028  29.123  88.3440  0.00  0.00     0.000 OA
ENDBRANCH 21 30
BRANCH 24 34
ATOM     34   C  A00 X   2      19.481  34.115  89.3570  0.00  0.00     0.000 C
ATOM     35   O  A00 X   2      22.071  35.785  91.2970  0.00  0.00     0.000 OA
ATOM     36   O  A00 X   2      20.414  34.421  90.4130  0.00  0.00     0.000 O
ATOM     37   O  A00 X   2      22.492  34.518  89.3450  0.00  0.00     0.000 OA
ATOM     38   S  A00 X   2      21.582  35.395  90.0150  0.00  0.00     0.000 S
ATOM     39   O  A00 X   2      20.988  36.448  89.2470  0.00  0.00     0.000 OA
ENDBRANCH 24 34
BRANCH 20 40
ATOM     40  O4  A00 X   3      18.993  30.985  86.8830  0.00  0.00     0.000 O
BRANCH 40 44
ATOM     41  C1  A00 X   3      16.008  31.096  84.8330  0.00  0.00     0.000 C
ATOM     42  C2  A00 X   3      17.246  30.223  84.5380  0.00  0.00     0.000 C
ATOM     43  C3  A00 X   3      18.545  31.069  84.5780  0.00  0.00     0.000 C
ATOM     44  C4  A00 X   3      18.703  31.926  85.8270  0.00  0.00     0.000 C
ATOM     45  C5  A00 X   3      17.423  32.778  86.0540  0.00  0.00     0.000 C
ATOM     46  O5  A00 X   3      16.222  31.941  85.9970  0.00  0.00     0.000 O
ATOM     47   O  A00 X   3      19.747  30.382  84.2340  0.00  0.00     0.000 O
ATOM     49  HD  A00 X   3      20.072  30.863  84.8760  0.00  0.00     0.000 HD
BRANCH 42 49
ATOM     49   O  A00 X   3      17.269  29.172  85.5290  0.00  0.00     0.000 O
ATOM     50   O  A00 X   3      18.770  27.416  86.1580  0.00  0.00     0.000 OA
ATOM     51   O  A00 X   3      18.416  27.846  83.8610  0.00  0.00     0.000 OA
ATOM     52   O  A00 X   3      16.634  26.948  85.1270  0.00  0.00     0.000 OA
ATOM     53   S  A00 X   3      17.803  27.757  85.1620  0.00  0.00     0.000 S
ENDBRANCH 42 49
BRANCH 45 54
ATOM     54   C  A00 X   3      17.365  33.980  85.1050  0.00  0.00     0.000 C
ATOM     55   O  A00 X   3      16.346  34.631  84.9910  0.00  0.00     0.000 OA
ATOM     56   O  A00 X   3      18.341  34.304  84.4460  0.00  0.00     0.000 OA
ENDBRANCH 45 54
BRANCH 41 57
ATOM     57  O4  A00 X   4      15.569  31.815  83.6590  0.00  0.00     0.000 O
BRANCH 57 61
ATOM     58  C1  A00 X   4      11.604  32.568  82.1270  0.00  0.00     0.000 C
ATOM     59  C2  A00 X   4      12.386  33.742  82.7680  0.00  0.00     0.000 C
ATOM     60  C3  A00 X   4      13.891  33.453  82.9450  0.00  0.00     0.000 C
ATOM     61  C4  A00 X   4      14.138  32.073  83.5910  0.00  0.00     0.000 C
ATOM     62  C5  A00 X   4      13.448  31.033  82.6740  0.00  0.00     0.000 C
ATOM     63  O5  A00 X   4      12.020  31.288  82.6520  0.00  0.00     0.000 O
BRANCH 59 66
ATOM     64   N  A00 X   4      11.482  33.479  83.9020  0.00  0.00     0.000 N
ATOM     66  HD  A00 X   4      11.016  32.749  83.8820  0.00  0.00     0.000 HD
ATOM     66   O  A00 X   4      10.110  35.287  83.0970  0.00  0.00     0.000 OA
ATOM     67   S  A00 X   4      10.437  34.617  84.3160  0.00  0.00     0.000 S
ATOM     68   O  A00 X   4       9.390  33.815  84.8790  0.00  0.00     0.000 OA
ATOM     69   O  A00 X   4      11.215  35.334  85.2860  0.00  0.00     0.000 OA
ENDBRANCH 59 66
BRANCH 62 70
ATOM     70   C  A00 X   4      13.679  29.563  83.0990  0.00  0.00     0.000 C
ATOM     71   O  A00 X   4      11.256  27.140  84.2680  0.00  0.00     0.000 OA
ATOM     72   O  A00 X   4      13.346  27.770  85.1530  0.00  0.00     0.000 OA
ATOM     73   O  A00 X   4      12.410  28.908  83.2520  0.00  0.00     0.000 O
ATOM     74   O  A00 X   4      11.428  29.249  85.4260  0.00  0.00     0.000 OA
ATOM     75   S  A00 X   4      12.084  28.254  84.6390  0.00  0.00     0.000 S
ENDBRANCH 62 70
ENDBRANCH 57 61
ENDBRANCH 41 57
ENDBRANCH 40 44
ENDBRANCH 20 40
ENDBRANCH 19 23
ENDBRANCH 1 19
TORSDOF 14
ENDMDL
MODEL 47
REMARK VINA RESULT:      -3.9     28.906     34.673
ROOT
ATOM      1  C1  A00 X   1      17.464  47.338  30.9330  0.00  0.00     0.000 C
ATOM      2  C2  A00 X   1      18.428  48.520  30.6510  0.00  0.00     0.000 C
ATOM      3  C3  A00 X   1      19.053  49.213  31.9070  0.00  0.00     0.000 C
ATOM      4  C4  A00 X   1      18.366  48.890  33.2590  0.00  0.00     0.000 C
ATOM      5  C5  A00 X   1      16.924  48.417  33.0750  0.00  0.00     0.000 C
ATOM      6  O5  A00 X   1      17.032  47.197  32.3090  0.00  0.00     0.000 O
ATOM      7   O  A00 X   1      18.970  50.626  31.7380  0.00  0.00     0.000 O
ATOM      9  HD  A00 X   1      18.769  50.455  32.5630  0.00  0.00     0.000 HD
ATOM      9   O  A00 X   1      19.103  47.916  33.9980  0.00  0.00     0.000 O
ATOM     11  HD  A00 X   1      18.902  47.745  34.8230  0.00  0.00     0.000 HD
ENDROOT
BRANCH 2 11
ATOM     11   O  A00 X   1      19.490  48.030  29.8090  0.00  0.00     0.000 O
ATOM     12   O  A00 X   1      19.931  45.682  29.5600  0.00  0.00     0.000 OA
ATOM     13   O  A00 X   1      20.220  46.723  31.7390  0.00  0.00     0.000 OA
ATOM     14   O  A00 X   1      21.688  47.255  29.9460  0.00  0.00     0.000 OA
ATOM     15   S  A00 X   1      20.365  46.831  30.3140  0.00  0.00     0.000 S
ENDBRANCH 2 11
BRANCH 5 16
ATOM     16   C  A00 X   1      15.978  49.450  32.4530  0.00  0.00     0.000 C
ATOM     17   O  A00 X   1      14.900  49.075  32.0400  0.00  0.00     0.000 OA
ATOM     18   O  A00 X   1      16.265  50.627  32.3660  0.00  0.00     0.000 OA
ENDBRANCH 5 16
BRANCH 1 19
ATOM     19  O4  A00 X   2      16.340  47.300  30.0200  0.00  0.00     0.000 O
BRANCH 19 23
ATOM     20  C1  A00 X   2      16.118  47.877  25.7800  0.00  0.00     0.000 C
ATOM     21  C2  A00 X   2      17.053  46.759  26.3000  0.00  0.00     0.000 C
ATOM     22  C3  A00 X   2      16.707  46.387  27.7570  0.00  0.00     0.000 C
ATOM     23  C4  A00 X   2      16.716  47.644  28.6560  0.00  0.00     0.000 C
ATOM     24  C5  A00 X   2      15.760  48.690  28.0190  0.00  0.00     0.000 C
ATOM     25  O5  A00 X   2      16.235  49.006  26.6850  0.00  0.00     0.000 O
ATOM     26   O  A00 X   2      17.554  45.302  28.1710  0.00  0.00     0.000 O
ATOM     28  HD  A00 X   2      18.277  45.699  27.9060  0.00  0.00     0.000 HD
BRANCH 21 30
ATOM     28   N  A00 X   2      17.955  47.055  25.1840  0.00  0.00     0.000 N
ATOM     30  HD  A00 X   2      18.195  46.286  25.5030  0.00  0.00     0.000 HD
ATOM     30   O  A00 X   2      19.034  45.074  24.5750  0.00  0.00     0.000 OA
ATOM     31   S  A00 X   2      19.363  46.337  25.1350  0.00  0.00     0.000 S
ATOM     32   O  A00 X   2      20.147  47.186  24.2920  0.00  0.00     0.000 OA
ATOM     33   O  A00 X   2      19.886  46.339  26.4680  0.00  0.00     0.000 OA
ENDBRANCH 21 30
BRANCH 24 34
ATOM     34   C  A00 X   2      15.412  49.952  28.8440  0.00  0.00     0.000 C
ATOM     35   O  A00 X   2      17.798  52.579  29.6580  0.00  0.00     0.000 OA
ATOM     36   O  A00 X   2      16.604  50.621  29.3040  0.00  0.00     0.000 O
ATOM     37   O  A00 X   2      17.326  51.859  27.4550  0.00  0.00     0.000 OA
ATOM     38   S  A00 X   2      16.800  52.086  28.7670  0.00  0.00     0.000 S
ATOM     39   O  A00 X   2      15.524  52.728  28.8680  0.00  0.00     0.000 OA
ENDBRANCH 24 34
BRANCH 20 40
ATOM     40  O4  A00 X   3      14.790  47.338  25.8540  0.00  0.00     0.000 O
BRANCH 40 44
ATOM     41  C1  A00 X   3      11.380  47.923  26.9280  0.00  0.00     0.000 C
ATOM     42  C2  A00 X   3      11.892  46.607  26.3040  0.00  0.00     0.000 C
ATOM     43  C3  A00 X   3      12.657  46.880  24.9830  0.00  0.00     0.000 C
ATOM     44  C4  A00 X   3      13.734  47.952  25.0840  0.00  0.00     0.000 C
ATOM     45  C5  A00 X   3      13.142  49.244  25.7150  0.00  0.00     0.000 C
ATOM     46  O5  A00 X   3      12.421  48.938  26.9530  0.00  0.00     0.000 O
ATOM     47   O  A00 X   3      13.103  45.727  24.2710  0.00  0.00     0.000 O
ATOM     49  HD  A00 X   3      13.798  46.223  24.1290  0.00  0.00     0.000 HD
BRANCH 42 49
ATOM     49   O  A00 X   3      12.744  45.977  27.2860  0.00  0.00     0.000 O
ATOM     50   O  A00 X   3      14.061  43.982  27.4110  0.00  0.00     0.000 OA
ATOM     51   O  A00 X   3      11.922  43.875  26.4100  0.00  0.00     0.000 OA
ATOM     52   O  A00 X   3      12.059  44.263  28.7370  0.00  0.00     0.000 OA
ATOM     53   S  A00 X   3      12.707  44.433  27.4830  0.00  0.00     0.000 S
ENDBRANCH 42 49
BRANCH 45 54
ATOM     54   C  A00 X   3      12.299  50.034  24.7060  0.00  0.00     0.000 C
ATOM     55   O  A00 X   3      11.995  51.188  24.9240  0.00  0.00     0.000 OA
ATOM     56   O  A00 X   3      11.919  49.515  23.6680  0.00  0.00     0.000 OA
ENDBRANCH 45 54
BRANCH 41 57
ATOM     57  O4  A00 X   4      10.148  48.361  26.3120  0.00  0.00     0.000 O
BRANCH 57 61
ATOM     58  C1  A00 X   4       7.150  51.111  27.7590  0.00  0.00     0.000 C
ATOM     59  C2  A00 X   4       7.989  51.513  26.5200  0.00  0.00     0.000 C
ATOM     60  C3  A00 X   4       8.755  50.334  25.8870  0.00  0.00     0.000 C
ATOM     61  C4  A00 X   4       9.512  49.506  26.9480  0.00  0.00     0.000 C
ATOM     62  C5  A00 X   4       8.450  49.031  27.9700  0.00  0.00     0.000 C
ATOM     63  O5  A00 X   4       7.858  50.187  28.6160  0.00  0.00     0.000 O
BRANCH 59 66
ATOM     64   N  A00 X   4       7.741  52.309  25.3040  0.00  0.00     0.000 N
ATOM     66  HD  A00 X   4       8.421  52.491  24.8000  0.00  0.00     0.000 HD
ATOM     66   O  A00 X   4       7.324  54.194  26.7440  0.00  0.00     0.000 OA
ATOM     67   S  A00 X   4       6.960  53.697  25.4540  0.00  0.00     0.000 S
ATOM     68   O  A00 X   4       7.501  54.419  24.3390  0.00  0.00     0.000 OA
ATOM     69   O  A00 X   4       5.609  53.249  25.2650  0.00  0.00     0.000 OA
ENDBRANCH 59 66
BRANCH 62 70
ATOM     70   C  A00 X   4       9.003  48.086  29.0630  0.00  0.00     0.000 C
ATOM     71   O  A00 X   4       9.316  48.681  32.6200  0.00  0.00     0.000 OA
ATOM     72   O  A00 X   4      10.875  47.858  31.0590  0.00  0.00     0.000 OA
ATOM     73   O  A00 X   4       8.709  48.634  30.3580  0.00  0.00     0.000 O
ATOM     74   O  A00 X   4      10.349  50.237  31.0960  0.00  0.00     0.000 OA
ATOM     75   S  A00 X   4       9.910  48.900  31.3310  0.00  0.00     0.000 S
ENDBRANCH 62 70
ENDBRANCH 57 61
ENDBRANCH 41 57
ENDBRANCH 40 44
ENDBRANCH 20 40
ENDBRANCH 19 23
ENDBRANCH 1 19
TORSDOF 14
ENDMDL
MODEL 48
REMARK VINA RESULT:      -3.9     28.980     34.969
ROOT
ATOM      1  C1  A00 X   1      17.213  49.673  32.0590  0.00  0.00     0.000 C
ATOM      2  C2  A00 X   1      16.634  49.061  33.3620  0.00  0.00     0.000 C
ATOM      3  C3  A00 X   1      17.663  48.361  34.3100  0.00  0.00     0.000 C
ATOM      4  C4  A00 X   1      19.042  48.041  33.6790  0.00  0.00     0.000 C
ATOM      5  C5  A00 X   1      18.974  47.959  32.1540  0.00  0.00     0.000 C
ATOM      6  O5  A00 X   1      18.570  49.281  31.7330  0.00  0.00     0.000 O
ATOM      7   O  A00 X   1      17.115  47.117  34.7400  0.00  0.00     0.000 O
ATOM      9  HD  A00 X   1      17.953  46.981  34.5660  0.00  0.00     0.000 HD
ATOM      9   O  A00 X   1      20.028  48.996  34.0670  0.00  0.00     0.000 O
ATOM     11  HD  A00 X   1      20.866  48.860  33.8930  0.00  0.00     0.000 HD
ENDROOT
BRANCH 2 11
ATOM     11   O  A00 X   1      15.972  50.117  34.0860  0.00  0.00     0.000 O
ATOM     12   O  A00 X   1      16.357  52.434  33.5870  0.00  0.00     0.000 OA
ATOM     13   O  A00 X   1      18.192  51.077  34.4280  0.00  0.00     0.000 OA
ATOM     14   O  A00 X   1      16.351  51.618  35.8340  0.00  0.00     0.000 OA
ATOM     15   S  A00 X   1      16.791  51.393  34.4840  0.00  0.00     0.000 S
ENDBRANCH 2 11
BRANCH 5 16
ATOM     16   C  A00 X   1      18.082  46.841  31.6040  0.00  0.00     0.000 C
ATOM     17   O  A00 X   1      17.710  45.969  32.3610  0.00  0.00     0.000 OA
ATOM     18   O  A00 X   1      17.728  46.802  30.4420  0.00  0.00     0.000 OA
ENDBRANCH 5 16
BRANCH 1 19
ATOM     19  O4  A00 X   2      16.329  49.514  30.9230  0.00  0.00     0.000 O
BRANCH 19 23
ATOM     20  C1  A00 X   2      12.898  51.795  29.7450  0.00  0.00     0.000 C
ATOM     21  C2  A00 X   2      14.149  52.576  30.2140  0.00  0.00     0.000 C
ATOM     22  C3  A00 X   2      15.402  51.677  30.1830  0.00  0.00     0.000 C
ATOM     23  C4  A00 X   2      15.164  50.384  30.9950  0.00  0.00     0.000 C
ATOM     24  C5  A00 X   2      13.879  49.707  30.4430  0.00  0.00     0.000 C
ATOM     25  O5  A00 X   2      12.765  50.625  30.5960  0.00  0.00     0.000 O
ATOM     26   O  A00 X   2      16.545  52.465  30.5600  0.00  0.00     0.000 O
ATOM     28  HD  A00 X   2      16.160  52.774  31.2710  0.00  0.00     0.000 HD
BRANCH 21 30
ATOM     28   N  A00 X   2      15.097  53.626  29.8290  0.00  0.00     0.000 N
ATOM     30  HD  A00 X   2      14.369  54.025  30.0760  0.00  0.00     0.000 HD
ATOM     30   O  A00 X   2      14.317  55.658  30.6780  0.00  0.00     0.000 OA
ATOM     31   S  A00 X   2      14.533  55.044  29.4170  0.00  0.00     0.000 S
ATOM     32   O  A00 X   2      15.589  55.615  28.6390  0.00  0.00     0.000 OA
ATOM     33   O  A00 X   2      13.379  54.818  28.5980  0.00  0.00     0.000 OA
ENDBRANCH 21 30
BRANCH 24 34
ATOM     34   C  A00 X   2      13.546  48.277  30.9290  0.00  0.00     0.000 C
ATOM     35   O  A00 X   2      10.354  47.311  32.3900  0.00  0.00     0.000 OA
ATOM     36   O  A00 X   2      12.374  48.271  31.7680  0.00  0.00     0.000 O
ATOM     37   O  A00 X   2      10.582  48.326  30.2660  0.00  0.00     0.000 OA
ATOM     38   S  A00 X   2      11.161  47.432  31.2210  0.00  0.00     0.000 S
ATOM     39   O  A00 X   2      11.708  46.202  30.7320  0.00  0.00     0.000 OA
ENDBRANCH 24 34
BRANCH 20 40
ATOM     40  O4  A00 X   3      13.181  51.381  28.4010  0.00  0.00     0.000 O
BRANCH 40 44
ATOM     41  C1  A00 X   3      13.339  49.207  25.5070  0.00  0.00     0.000 C
ATOM     42  C2  A00 X   3      13.653  50.719  25.4900  0.00  0.00     0.000 C
ATOM     43  C3  A00 X   3      12.511  51.531  26.1540  0.00  0.00     0.000 C
ATOM     44  C4  A00 X   3      12.089  51.023  27.5270  0.00  0.00     0.000 C
ATOM     45  C5  A00 X   3      11.785  49.500  27.4610  0.00  0.00     0.000 C
ATOM     46  O5  A00 X   3      12.884  48.775  26.8190  0.00  0.00     0.000 O
ATOM     47   O  A00 X   3      12.653  52.949  26.1180  0.00  0.00     0.000 O
ATOM     49  HD  A00 X   3      12.326  52.889  26.9180  0.00  0.00     0.000 HD
BRANCH 42 49
ATOM     49   O  A00 X   3      14.904  50.899  26.1900  0.00  0.00     0.000 O
ATOM     50   O  A00 X   3      16.245  52.753  26.8940  0.00  0.00     0.000 OA
ATOM     51   O  A00 X   3      15.245  52.815  24.7520  0.00  0.00     0.000 OA
ATOM     52   O  A00 X   3      16.976  51.254  25.1430  0.00  0.00     0.000 OA
ATOM     53   S  A00 X   3      15.912  51.992  25.7300  0.00  0.00     0.000 S
ENDBRANCH 42 49
BRANCH 45 54
ATOM     54   C  A00 X   3      10.421  49.220  26.8190  0.00  0.00     0.000 C
ATOM     55   O  A00 X   3       9.923  48.115  26.8830  0.00  0.00     0.000 OA
ATOM     56   O  A00 X   3       9.813  50.102  26.2330  0.00  0.00     0.000 OA
ENDBRANCH 45 54
BRANCH 41 57
ATOM     57  O4  A00 X   4      12.454  48.834  24.4270  0.00  0.00     0.000 O
BRANCH 57 61
ATOM     58  C1  A00 X   4      12.017  45.225  22.0970  0.00  0.00     0.000 C
ATOM     59  C2  A00 X   4      11.766  45.157  23.6250  0.00  0.00     0.000 C
ATOM     60  C3  A00 X   4      11.597  46.542  24.2820  0.00  0.00     0.000 C
ATOM     61  C4  A00 X   4      12.706  47.523  23.8460  0.00  0.00     0.000 C
ATOM     62  C5  A00 X   4      12.638  47.599  22.3010  0.00  0.00     0.000 C
ATOM     63  O5  A00 X   4      12.929  46.291  21.7450  0.00  0.00     0.000 O
BRANCH 59 66
ATOM     64   N  A00 X   4      12.624  44.523  24.6410  0.00  0.00     0.000 N
ATOM     66  HD  A00 X   4      13.481  44.620  24.5580  0.00  0.00     0.000 HD
ATOM     66   O  A00 X   4      11.998  42.397  23.6990  0.00  0.00     0.000 OA
ATOM     67   S  A00 X   4      12.418  42.965  24.9410  0.00  0.00     0.000 S
ATOM     68   O  A00 X   4      13.739  42.607  25.3680  0.00  0.00     0.000 OA
ATOM     69   O  A00 X   4      11.456  43.037  26.0040  0.00  0.00     0.000 OA
ENDBRANCH 59 66
BRANCH 62 70
ATOM     70   C  A00 X   4      13.611  48.626  21.6750  0.00  0.00     0.000 C
ATOM     71   O  A00 X   4      17.227  48.527  21.5420  0.00  0.00     0.000 OA
ATOM     72   O  A00 X   4      15.763  50.250  22.2000  0.00  0.00     0.000 OA
ATOM     73   O  A00 X   4      14.932  48.065  21.6330  0.00  0.00     0.000 O
ATOM     74   O  A00 X   4      16.148  48.361  23.6920  0.00  0.00     0.000 OA
ATOM     75   S  A00 X   4      16.085  48.848  22.3520  0.00  0.00     0.000 S
ENDBRANCH 62 70
ENDBRANCH 57 61
ENDBRANCH 41 57
ENDBRANCH 40 44
ENDBRANCH 20 40
ENDBRANCH 19 23
ENDBRANCH 1 19
TORSDOF 14
ENDMDL
MODEL 49
REMARK VINA RESULT:      -3.8     24.734     30.299
ROOT
ATOM      1  C1  A00 X   1      19.022  50.919  32.4970  0.00  0.00     0.000 C
ATOM      2  C2  A00 X   1      17.495  50.705  32.6740  0.00  0.00     0.000 C
ATOM      3  C3  A00 X   1      16.954  50.793  34.1390  0.00  0.00     0.000 C
ATOM      4  C4  A00 X   1      18.028  50.713  35.2540  0.00  0.00     0.000 C
ATOM      5  C5  A00 X   1      19.310  50.034  34.7740  0.00  0.00     0.000 C
ATOM      6  O5  A00 X   1      19.804  50.888  33.7170  0.00  0.00     0.000 O
ATOM      7   O  A00 X   1      16.058  49.706  34.3610  0.00  0.00     0.000 O
ATOM      9  HD  A00 X   1      16.541  49.789  35.0750  0.00  0.00     0.000 HD
ATOM      9   O  A00 X   1      18.333  52.006  35.7770  0.00  0.00     0.000 O
ATOM     11  HD  A00 X   1      18.816  52.089  36.4910  0.00  0.00     0.000 HD
ENDROOT
BRANCH 2 11
ATOM     11   O  A00 X   1      16.819  51.686  31.8640  0.00  0.00     0.000 O
ATOM     12   O  A00 X   1      17.422  54.010  31.9150  0.00  0.00     0.000 OA
ATOM     13   O  A00 X   1      16.522  52.969  33.9210  0.00  0.00     0.000 OA
ATOM     14   O  A00 X   1      15.141  53.303  32.0140  0.00  0.00     0.000 OA
ATOM     15   S  A00 X   1      16.480  53.083  32.4900  0.00  0.00     0.000 S
ENDBRANCH 2 11
BRANCH 5 16
ATOM     16   C  A00 X   1      19.149  48.570  34.3540  0.00  0.00     0.000 C
ATOM     17   O  A00 X   1      18.162  47.965  34.7190  0.00  0.00     0.000 OA
ATOM     18   O  A00 X   1      19.968  47.996  33.6640  0.00  0.00     0.000 OA
ENDBRANCH 5 16
BRANCH 1 19
ATOM     19  O4  A00 X   2      19.596  50.060  31.4810  0.00  0.00     0.000 O
BRANCH 19 23
ATOM     20  C1  A00 X   2      23.199  52.288  30.8330  0.00  0.00     0.000 C
ATOM     21  C2  A00 X   2      21.888  52.862  30.2430  0.00  0.00     0.000 C
ATOM     22  C3  A00 X   2      20.656  52.213  30.9070  0.00  0.00     0.000 C
ATOM     23  C4  A00 X   2      20.734  50.673  30.8090  0.00  0.00     0.000 C
ATOM     24  C5  A00 X   2      22.093  50.227  31.4130  0.00  0.00     0.000 C
ATOM     25  O5  A00 X   2      23.166  50.846  30.6570  0.00  0.00     0.000 O
ATOM     26   O  A00 X   2      19.469  52.827  30.3770  0.00  0.00     0.000 O
ATOM     28  HD  A00 X   2      19.719  52.717  29.5550  0.00  0.00     0.000 HD
BRANCH 21 30
ATOM     28   N  A00 X   2      21.068  54.077  30.2350  0.00  0.00     0.000 N
ATOM     30  HD  A00 X   2      21.725  54.214  29.6870  0.00  0.00     0.000 HD
ATOM     30   O  A00 X   2      21.657  55.339  28.3590  0.00  0.00     0.000 OA
ATOM     31   S  A00 X   2      21.731  55.436  29.7730  0.00  0.00     0.000 S
ATOM     32   O  A00 X   2      20.891  56.437  30.3550  0.00  0.00     0.000 OA
ATOM     33   O  A00 X   2      23.040  55.487  30.3540  0.00  0.00     0.000 OA
ENDBRANCH 21 30
BRANCH 24 34
ATOM     34   C  A00 X   2      22.323  48.715  31.6460  0.00  0.00     0.000 C
ATOM     35   O  A00 X   2      21.911  46.168  29.0770  0.00  0.00     0.000 OA
ATOM     36   O  A00 X   2      21.753  47.929  30.5810  0.00  0.00     0.000 O
ATOM     37   O  A00 X   2      23.334  48.045  28.8610  0.00  0.00     0.000 OA
ATOM     38   S  A00 X   2      22.781  47.073  29.7540  0.00  0.00     0.000 S
ATOM     39   O  A00 X   2      23.663  46.469  30.7070  0.00  0.00     0.000 OA
ENDBRANCH 24 34
BRANCH 20 40
ATOM     40  O4  A00 X   3      23.164  52.601  32.2330  0.00  0.00     0.000 O
BRANCH 40 44
ATOM     41  C1  A00 X   3      23.624  52.291  35.8130  0.00  0.00     0.000 C
ATOM     42  C2  A00 X   3      23.218  53.592  35.0870  0.00  0.00     0.000 C
ATOM     43  C3  A00 X   3      24.180  53.895  33.9100  0.00  0.00     0.000 C
ATOM     44  C4  A00 X   3      24.406  52.726  32.9590  0.00  0.00     0.000 C
ATOM     45  C5  A00 X   3      24.815  51.459  33.7610  0.00  0.00     0.000 C
ATOM     46  O5  A00 X   3      23.886  51.217  34.8670  0.00  0.00     0.000 O
ATOM     47   O  A00 X   3      23.953  55.122  33.2190  0.00  0.00     0.000 O
ATOM     49  HD  A00 X   3      24.149  54.638  32.5280  0.00  0.00     0.000 HD
BRANCH 42 49
ATOM     49   O  A00 X   3      21.860  53.413  34.6260  0.00  0.00     0.000 O
ATOM     50   O  A00 X   3      20.288  54.676  33.3360  0.00  0.00     0.000 OA
ATOM     51   O  A00 X   3      21.613  55.800  34.9400  0.00  0.00     0.000 OA
ATOM     52   O  A00 X   3      19.964  54.287  35.7010  0.00  0.00     0.000 OA
ATOM     53   S  A00 X   3      20.861  54.606  34.6440  0.00  0.00     0.000 S
ENDBRANCH 42 49
BRANCH 45 54
ATOM     54   C  A00 X   3      26.281  51.518  34.2070  0.00  0.00     0.000 C
ATOM     55   O  A00 X   3      26.725  50.700  34.9870  0.00  0.00     0.000 OA
ATOM     56   O  A00 X   3      27.027  52.389  33.7880  0.00  0.00     0.000 OA
ENDBRANCH 45 54
BRANCH 41 57
ATOM     57  O4  A00 X   4      24.696  52.517  36.7550  0.00  0.00     0.000 O
BRANCH 57 61
ATOM     58  C1  A00 X   4      25.201  50.704  40.6400  0.00  0.00     0.000 C
ATOM     59  C2  A00 X   4      26.365  50.613  39.6230  0.00  0.00     0.000 C
ATOM     60  C3  A00 X   4      26.220  51.584  38.4340  0.00  0.00     0.000 C
ATOM     61  C4  A00 X   4      24.806  51.526  37.8160  0.00  0.00     0.000 C
ATOM     62  C5  A00 X   4      23.816  51.853  38.9610  0.00  0.00     0.000 C
ATOM     63  O5  A00 X   4      23.918  50.831  39.9860  0.00  0.00     0.000 O
BRANCH 59 66
ATOM     64   N  A00 X   4      27.801  50.356  39.4100  0.00  0.00     0.000 N
ATOM     66  HD  A00 X   4      28.040  50.029  38.6440  0.00  0.00     0.000 HD
ATOM     66   O  A00 X   4      27.609  48.549  40.9910  0.00  0.00     0.000 OA
ATOM     67   S  A00 X   4      28.581  49.472  40.4910  0.00  0.00     0.000 S
ATOM     68   O  A00 X   4      29.607  48.902  39.6680  0.00  0.00     0.000 OA
ATOM     69   O  A00 X   4      29.042  50.503  41.3770  0.00  0.00     0.000 OA
ENDBRANCH 59 66
BRANCH 62 70
ATOM     70   C  A00 X   4      22.339  51.951  38.5100  0.00  0.00     0.000 C
ATOM     71   O  A00 X   4      19.632  53.819  40.0240  0.00  0.00     0.000 OA
ATOM     72   O  A00 X   4      19.742  51.574  39.3220  0.00  0.00     0.000 OA
ATOM     73   O  A00 X   4      21.684  52.992  39.2530  0.00  0.00     0.000 O
ATOM     74   O  A00 X   4      20.849  52.245  41.3870  0.00  0.00     0.000 OA
ATOM     75   S  A00 X   4      20.407  52.611  40.0800  0.00  0.00     0.000 S
ENDBRANCH 62 70
ENDBRANCH 57 61
ENDBRANCH 41 57
ENDBRANCH 40 44
ENDBRANCH 20 40
ENDBRANCH 19 23
ENDBRANCH 1 19
TORSDOF 14
ENDMDL
MODEL 50
REMARK VINA RESULT:      -3.6     21.990     27.098
ROOT
ATOM      1  C1  A00 X   1      20.472  51.020  33.7110  0.00  0.00     0.000 C
ATOM      2  C2  A00 X   1      20.180  50.568  32.2550  0.00  0.00     0.000 C
ATOM      3  C3  A00 X   1      18.671  50.490  31.8490  0.00  0.00     0.000 C
ATOM      4  C4  A00 X   1      17.661  50.511  33.0250  0.00  0.00     0.000 C
ATOM      5  C5  A00 X   1      18.297  50.062  34.3400  0.00  0.00     0.000 C
ATOM      6  O5  A00 X   1      19.329  51.038  34.6020  0.00  0.00     0.000 O
ATOM      7   O  A00 X   1      18.449  49.269  31.1460  0.00  0.00     0.000 O
ATOM      9  HD  A00 X   1      17.775  49.384  31.6780  0.00  0.00     0.000 HD
ATOM      9   O  A00 X   1      17.077  51.803  33.1880  0.00  0.00     0.000 O
ATOM     11  HD  A00 X   1      16.403  51.918  33.7200  0.00  0.00     0.000 HD
ENDROOT
BRANCH 2 11
ATOM     11   O  A00 X   1      20.858  51.479  31.3690  0.00  0.00     0.000 O
ATOM     12   O  A00 X   1      21.334  50.912  29.0840  0.00  0.00     0.000 OA
ATOM     13   O  A00 X   1      22.380  49.635  30.8710  0.00  0.00     0.000 OA
ATOM     14   O  A00 X   1      22.983  51.906  30.5000  0.00  0.00     0.000 OA
ATOM     15   S  A00 X   1      21.945  50.917  30.3890  0.00  0.00     0.000 S
ENDBRANCH 2 11
BRANCH 5 16
ATOM     16   C  A00 X   1      18.803  48.616  34.3550  0.00  0.00     0.000 C
ATOM     17   O  A00 X   1      19.491  48.250  35.2850  0.00  0.00     0.000 OA
ATOM     18   O  A00 X   1      18.535  47.823  33.4740  0.00  0.00     0.000 OA
ENDBRANCH 5 16
BRANCH 1 19
ATOM     19  O4  A00 X   2      21.592  50.317  34.3030  0.00  0.00     0.000 O
BRANCH 19 23
ATOM     20  C1  A00 X   2      24.291  51.537  37.4000  0.00  0.00     0.000 C
ATOM     21  C2  A00 X   2      23.052  50.708  37.8170  0.00  0.00     0.000 C
ATOM     22  C3  A00 X   2      22.435  49.991  36.5980  0.00  0.00     0.000 C
ATOM     23  C4  A00 X   2      22.128  51.002  35.4710  0.00  0.00     0.000 C
ATOM     24  C5  A00 X   2      23.437  51.777  35.1590  0.00  0.00     0.000 C
ATOM     25  O5  A00 X   2      23.871  52.463  36.3620  0.00  0.00     0.000 O
ATOM     26   O  A00 X   2      21.334  49.183  37.0480  0.00  0.00     0.000 O
ATOM     28  HD  A00 X   2      20.972  49.833  37.4910  0.00  0.00     0.000 HD
BRANCH 21 30
ATOM     28   N  A00 X   2      23.033  51.470  39.0700  0.00  0.00     0.000 N
ATOM     30  HD  A00 X   2      22.516  50.784  39.1850  0.00  0.00     0.000 HD
ATOM     30   O  A00 X   2      22.160  50.093  40.7440  0.00  0.00     0.000 OA
ATOM     31   S  A00 X   2      21.809  51.282  40.0530  0.00  0.00     0.000 S
ATOM     32   O  A00 X   2      21.827  52.471  40.8470  0.00  0.00     0.000 OA
ATOM     33   O  A00 X   2      20.623  51.239  39.2490  0.00  0.00     0.000 OA
ENDBRANCH 21 30
BRANCH 24 34
ATOM     34   C  A00 X   2      23.460  52.690  33.9100  0.00  0.00     0.000 C
ATOM     35   O  A00 X   2      24.639  56.135  33.9220  0.00  0.00     0.000 OA
ATOM     36   O  A00 X   2      23.633  54.073  34.2770  0.00  0.00     0.000 O
ATOM     37   O  A00 X   2      25.931  54.294  34.6510  0.00  0.00     0.000 OA
ATOM     38   S  A00 X   2      24.940  54.755  33.7280  0.00  0.00     0.000 S
ATOM     39   O  A00 X   2      25.065  54.347  32.3610  0.00  0.00     0.000 OA
ENDBRANCH 24 34
BRANCH 20 40
ATOM     40  O4  A00 X   3      25.223  50.593  36.8520  0.00  0.00     0.000 O
BRANCH 40 44
ATOM     41  C1  A00 X   3      28.621  49.402  37.2460  0.00  0.00     0.000 C
ATOM     42  C2  A00 X   3      27.957  50.478  38.1320  0.00  0.00     0.000 C
ATOM     43  C3  A00 X   3      27.310  51.589  37.2660  0.00  0.00     0.000 C
ATOM     44  C4  A00 X   3      26.394  51.077  36.1610  0.00  0.00     0.000 C
ATOM     45  C5  A00 X   3      27.133  50.005  35.3120  0.00  0.00     0.000 C
ATOM     46  O5  A00 X   3      27.736  48.983  36.1700  0.00  0.00     0.000 O
ATOM     47   O  A00 X   3      26.741  52.684  37.9810  0.00  0.00     0.000 O
ATOM     49  HD  A00 X   3      26.132  52.621  37.3680  0.00  0.00     0.000 HD
BRANCH 42 49
ATOM     49   O  A00 X   3      26.974  49.806  38.9500  0.00  0.00     0.000 O
ATOM     50   O  A00 X   3      25.470  50.420  40.7080  0.00  0.00     0.000 OA
ATOM     51   O  A00 X   3      27.664  51.303  40.7220  0.00  0.00     0.000 OA
ATOM     52   O  A00 X   3      27.377  48.990  41.1150  0.00  0.00     0.000 OA
ATOM     53   S  A00 X   3      26.850  50.140  40.4650  0.00  0.00     0.000 S
ENDBRANCH 42 49
BRANCH 45 54
ATOM     54   C  A00 X   3      28.131  50.641  34.3370  0.00  0.00     0.000 C
ATOM     55   O  A00 X   3      28.164  51.845  34.1830  0.00  0.00     0.000 OA
ATOM     56   O  A00 X   3      28.909  49.949  33.6990  0.00  0.00     0.000 OA
ENDBRANCH 45 54
BRANCH 41 57
ATOM     57  O4  A00 X   4      29.934  49.811  36.8010  0.00  0.00     0.000 O
BRANCH 57 61
ATOM     58  C1  A00 X   4      33.690  47.685  36.7350  0.00  0.00     0.000 C
ATOM     59  C2  A00 X   4      32.953  47.930  35.3950  0.00  0.00     0.000 C
ATOM     60  C3  A00 X   4      31.836  48.989  35.4920  0.00  0.00     0.000 C
ATOM     61  C4  A00 X   4      30.916  48.741  36.7070  0.00  0.00     0.000 C
ATOM     62  C5  A00 X   4      31.833  48.744  37.9550  0.00  0.00     0.000 C
ATOM     63  O5  A00 X   4      32.777  47.647  37.8560  0.00  0.00     0.000 O
BRANCH 59 66
ATOM     64   N  A00 X   4      33.506  48.220  34.0590  0.00  0.00     0.000 N
ATOM     66  HD  A00 X   4      32.946  48.292  33.4020  0.00  0.00     0.000 HD
ATOM     66   O  A00 X   4      34.409  45.988  34.0580  0.00  0.00     0.000 OA
ATOM     67   S  A00 X   4      34.671  47.278  33.5010  0.00  0.00     0.000 S
ATOM     68   O  A00 X   4      34.447  47.398  32.0900  0.00  0.00     0.000 OA
ATOM     69   O  A00 X   4      35.823  47.991  33.9760  0.00  0.00     0.000 OA
ENDBRANCH 59 66
BRANCH 62 70
ATOM     70   C  A00 X   4      31.073  48.619  39.2980  0.00  0.00     0.000 C
ATOM     71   O  A00 X   4      32.417  48.065  42.6140  0.00  0.00     0.000 OA
ATOM     72   O  A00 X   4      30.662  46.990  41.4700  0.00  0.00     0.000 OA
ATOM     73   O  A00 X   4      32.016  48.653  40.3820  0.00  0.00     0.000 O
ATOM     74   O  A00 X   4      32.971  46.496  40.8690  0.00  0.00     0.000 OA
ATOM     75   S  A00 X   4      32.032  47.443  41.3780  0.00  0.00     0.000 S
ENDBRANCH 62 70
ENDBRANCH 57 61
ENDBRANCH 41 57
ENDBRANCH 40 44
ENDBRANCH 20 40
ENDBRANCH 19 23
ENDBRANCH 1 19
TORSDOF 14
ENDMDL
MODEL 51
REMARK VINA RESULT:      -3.6     29.117     34.704
ROOT
ATOM      1  C1  A00 X   1      16.557  48.517  31.1040  0.00  0.00     0.000 C
ATOM      2  C2  A00 X   1      18.078  48.826  31.1140  0.00  0.00     0.000 C
ATOM      3  C3  A00 X   1      18.730  49.022  32.5220  0.00  0.00     0.000 C
ATOM      4  C4  A00 X   1      17.739  49.249  33.6920  0.00  0.00     0.000 C
ATOM      5  C5  A00 X   1      16.388  49.776  33.2090  0.00  0.00     0.000 C
ATOM      6  O5  A00 X   1      15.867  48.729  32.3600  0.00  0.00     0.000 O
ATOM      7   O  A00 X   1      19.576  50.169  32.4790  0.00  0.00     0.000 O
ATOM      9  HD  A00 X   1      19.153  50.192  33.2340  0.00  0.00     0.000 HD
ATOM      9   O  A00 X   1      17.548  48.057  34.4530  0.00  0.00     0.000 O
ATOM     11  HD  A00 X   1      17.125  48.080  35.2090  0.00  0.00     0.000 HD
ENDROOT
BRANCH 2 11
ATOM     11   O  A00 X   1      18.748  47.748  30.4320  0.00  0.00     0.000 O
ATOM     12   O  A00 X   1      18.891  45.543  31.3730  0.00  0.00     0.000 OA
ATOM     13   O  A00 X   1      19.985  47.396  32.5090  0.00  0.00     0.000 OA
ATOM     14   O  A00 X   1      20.794  46.623  30.4100  0.00  0.00     0.000 OA
ATOM     15   S  A00 X   1      19.645  46.767  31.2620  0.00  0.00     0.000 S
ENDBRANCH 2 11
BRANCH 5 16
ATOM     16   C  A00 X   1      16.432  51.149  32.5310  0.00  0.00     0.000 C
ATOM     17   O  A00 X   1      15.465  51.515  31.8950  0.00  0.00     0.000 OA
ATOM     18   O  A00 X   1      17.395  51.886  32.6130  0.00  0.00     0.000 OA
ENDBRANCH 5 16
BRANCH 1 19
ATOM     19  O4  A00 X   2      15.862  49.157  30.0050  0.00  0.00     0.000 O
BRANCH 19 23
ATOM     20  C1  A00 X   2      12.224  48.140  27.9810  0.00  0.00     0.000 C
ATOM     21  C2  A00 X   2      12.105  48.842  29.3550  0.00  0.00     0.000 C
ATOM     22  C3  A00 X   2      13.436  49.520  29.7440  0.00  0.00     0.000 C
ATOM     23  C4  A00 X   2      14.599  48.504  29.6870  0.00  0.00     0.000 C
ATOM     24  C5  A00 X   2      14.599  47.861  28.2740  0.00  0.00     0.000 C
ATOM     25  O5  A00 X   2      13.326  47.198  28.0620  0.00  0.00     0.000 O
ATOM     26   O  A00 X   2      13.254  50.213  30.9900  0.00  0.00     0.000 O
ATOM     28  HD  A00 X   2      12.902  49.524  31.3800  0.00  0.00     0.000 HD
BRANCH 21 30
ATOM     28   N  A00 X   2      10.892  48.056  29.5980  0.00  0.00     0.000 N
ATOM     30  HD  A00 X   2      10.898  48.694  30.1840  0.00  0.00     0.000 HD
ATOM     30   O  A00 X   2       9.462  49.320  30.9460  0.00  0.00     0.000 OA
ATOM     31   S  A00 X   2      10.218  48.121  31.0270  0.00  0.00     0.000 S
ATOM     32   O  A00 X   2       9.443  46.921  31.0910  0.00  0.00     0.000 OA
ATOM     33   O  A00 X   2      11.274  48.083  31.9950  0.00  0.00     0.000 OA
ENDBRANCH 21 30
BRANCH 24 34
ATOM     34   C  A00 X   2      15.806  46.976  27.8790  0.00  0.00     0.000 C
ATOM     35   O  A00 X   2      15.552  43.452  27.0010  0.00  0.00     0.000 OA
ATOM     36   O  A00 X   2      15.467  45.576  27.9330  0.00  0.00     0.000 O
ATOM     37   O  A00 X   2      14.339  45.173  25.9240  0.00  0.00     0.000 OA
ATOM     38   S  A00 X   2      15.566  44.809  26.5630  0.00  0.00     0.000 S
ATOM     39   O  A00 X   2      16.787  45.236  25.9480  0.00  0.00     0.000 OA
ENDBRANCH 24 34
BRANCH 20 40
ATOM     40  O4  A00 X   3      12.548  49.177  27.0430  0.00  0.00     0.000 O
BRANCH 40 44
ATOM     41  C1  A00 X   3      14.650  49.659  24.1320  0.00  0.00     0.000 C
ATOM     42  C2  A00 X   3      13.877  50.783  24.8550  0.00  0.00     0.000 C
ATOM     43  C3  A00 X   3      12.386  50.399  25.0430  0.00  0.00     0.000 C
ATOM     44  C4  A00 X   3      12.159  49.026  25.6610  0.00  0.00     0.000 C
ATOM     45  C5  A00 X   3      12.963  47.950  24.8770  0.00  0.00     0.000 C
ATOM     46  O5  A00 X   3      14.360  48.358  24.7150  0.00  0.00     0.000 O
ATOM     47   O  A00 X   3      11.554  51.402  25.6240  0.00  0.00     0.000 O
ATOM     49  HD  A00 X   3      11.207  50.719  26.0280  0.00  0.00     0.000 HD
BRANCH 42 49
ATOM     49   O  A00 X   3      14.531  50.997  26.1250  0.00  0.00     0.000 O
ATOM     50   O  A00 X   3      14.235  52.452  28.0030  0.00  0.00     0.000 OA
ATOM     51   O  A00 X   3      13.989  53.337  25.8250  0.00  0.00     0.000 OA
ATOM     52   O  A00 X   3      16.141  52.658  26.5300  0.00  0.00     0.000 OA
ATOM     53   S  A00 X   3      14.742  52.441  26.6670  0.00  0.00     0.000 S
ENDBRANCH 42 49
BRANCH 45 54
ATOM     54   C  A00 X   3      12.283  47.586  23.5520  0.00  0.00     0.000 C
ATOM     55   O  A00 X   3      11.396  48.282  23.1010  0.00  0.00     0.000 OA
ATOM     56   O  A00 X   3      12.619  46.591  22.9300  0.00  0.00     0.000 OA
ENDBRANCH 45 54
BRANCH 41 57
ATOM     57  O4  A00 X   4      14.461  49.716  22.7010  0.00  0.00     0.000 O
BRANCH 57 61
ATOM     58  C1  A00 X   4      16.637  47.898  19.4450  0.00  0.00     0.000 C
ATOM     59  C2  A00 X   4      15.295  47.262  19.8860  0.00  0.00     0.000 C
ATOM     60  C3  A00 X   4      14.447  48.181  20.7890  0.00  0.00     0.000 C
ATOM     61  C4  A00 X   4      15.285  48.795  21.9310  0.00  0.00     0.000 C
ATOM     62  C5  A00 X   4      16.451  49.557  21.2540  0.00  0.00     0.000 C
ATOM     63  O5  A00 X   4      17.278  48.614  20.5250  0.00  0.00     0.000 O
BRANCH 59 66
ATOM     64   N  A00 X   4      14.814  45.998  20.4730  0.00  0.00     0.000 N
ATOM     66  HD  A00 X   4      15.194  45.727  21.2030  0.00  0.00     0.000 HD
ATOM     66   O  A00 X   4      15.830  44.862  18.6090  0.00  0.00     0.000 OA
ATOM     67   S  A00 X   4      14.755  44.703  19.5370  0.00  0.00     0.000 S
ATOM     68   O  A00 X   4      14.933  43.669  20.5150  0.00  0.00     0.000 OA
ATOM     69   O  A00 X   4      13.415  44.814  19.0350  0.00  0.00     0.000 OA
ENDBRANCH 59 66
BRANCH 62 70
ATOM     70   C  A00 X   4      17.351  50.341  22.2390  0.00  0.00     0.000 C
ATOM     71   O  A00 X   4      19.973  49.083  24.3960  0.00  0.00     0.000 OA
ATOM     72   O  A00 X   4      18.152  50.503  24.8610  0.00  0.00     0.000 OA
ATOM     73   O  A00 X   4      18.411  49.486  22.6970  0.00  0.00     0.000 O
ATOM     74   O  A00 X   4      17.772  48.114  24.5720  0.00  0.00     0.000 OA
ATOM     75   S  A00 X   4      18.556  49.260  24.2420  0.00  0.00     0.000 S
ENDBRANCH 62 70
ENDBRANCH 57 61
ENDBRANCH 41 57
ENDBRANCH 40 44
ENDBRANCH 20 40
ENDBRANCH 19 23
ENDBRANCH 1 19
TORSDOF 14
ENDMDL
MODEL 52
REMARK VINA RESULT:      -3.5     28.692     34.475
ROOT
ATOM      1  C1  A00 X   1      18.255  50.259  32.7170  0.00  0.00     0.000 C
ATOM      2  C2  A00 X   1      17.252  49.365  33.4930  0.00  0.00     0.000 C
ATOM      3  C3  A00 X   1      17.875  48.368  34.5240  0.00  0.00     0.000 C
ATOM      4  C4  A00 X   1      19.401  48.131  34.3860  0.00  0.00     0.000 C
ATOM      5  C5  A00 X   1      19.913  48.463  32.9850  0.00  0.00     0.000 C
ATOM      6  O5  A00 X   1      19.648  49.875  32.8220  0.00  0.00     0.000 O
ATOM      7   O  A00 X   1      17.252  47.095  34.3650  0.00  0.00     0.000 O
ATOM      9  HD  A00 X   1      18.098  46.952  34.4830  0.00  0.00     0.000 HD
ATOM      9   O  A00 X   1      20.135  48.878  35.3570  0.00  0.00     0.000 O
ATOM     11  HD  A00 X   1      20.981  48.735  35.4750  0.00  0.00     0.000 HD
ENDROOT
BRANCH 2 11
ATOM     11   O  A00 X   1      16.329  50.233  34.1790  0.00  0.00     0.000 O
ATOM     12   O  A00 X   1      16.705  52.598  34.3570  0.00  0.00     0.000 OA
ATOM     13   O  A00 X   1      18.260  51.062  35.4240  0.00  0.00     0.000 OA
ATOM     14   O  A00 X   1      16.038  51.288  36.2410  0.00  0.00     0.000 OA
ATOM     15   S  A00 X   1      16.897  51.374  35.0920  0.00  0.00     0.000 S
ENDBRANCH 2 11
BRANCH 5 16
ATOM     16   C  A00 X   1      19.333  47.597  31.8620  0.00  0.00     0.000 C
ATOM     17   O  A00 X   1      18.782  46.557  32.1560  0.00  0.00     0.000 OA
ATOM     18   O  A00 X   1      19.399  47.917  30.6920  0.00  0.00     0.000 OA
ENDBRANCH 5 16
BRANCH 1 19
ATOM     19  O4  A00 X   2      17.868  50.470  31.3370  0.00  0.00     0.000 O
BRANCH 19 23
ATOM     20  C1  A00 X   2      14.962  53.103  29.6080  0.00  0.00     0.000 C
ATOM     21  C2  A00 X   2      15.990  53.718  30.5880  0.00  0.00     0.000 C
ATOM     22  C3  A00 X   2      17.198  52.778  30.7790  0.00  0.00     0.000 C
ATOM     23  C4  A00 X   2      16.729  51.369  31.2070  0.00  0.00     0.000 C
ATOM     24  C5  A00 X   2      15.695  50.875  30.1590  0.00  0.00     0.000 C
ATOM     25  O5  A00 X   2      14.579  51.803  30.1290  0.00  0.00     0.000 O
ATOM     26   O  A00 X   2      18.152  53.422  31.6400  0.00  0.00     0.000 O
ATOM     28  HD  A00 X   2      17.558  53.612  32.2410  0.00  0.00     0.000 HD
BRANCH 21 30
ATOM     28   N  A00 X   2      17.009  54.754  30.7800  0.00  0.00     0.000 N
ATOM     30  HD  A00 X   2      16.239  55.149  30.8220  0.00  0.00     0.000 HD
ATOM     30   O  A00 X   2      15.965  56.645  31.6710  0.00  0.00     0.000 OA
ATOM     31   S  A00 X   2      16.628  56.258  30.4760  0.00  0.00     0.000 S
ATOM     32   O  A00 X   2      17.892  56.890  30.2540  0.00  0.00     0.000 OA
ATOM     33   O  A00 X   2      15.852  56.263  29.2720  0.00  0.00     0.000 OA
ENDBRANCH 21 30
BRANCH 24 34
ATOM     34   C  A00 X   2      15.241  49.397  30.2280  0.00  0.00     0.000 C
ATOM     35   O  A00 X   2      12.350  48.237  32.1140  0.00  0.00     0.000 OA
ATOM     36   O  A00 X   2      14.309  49.187  31.3080  0.00  0.00     0.000 O
ATOM     37   O  A00 X   2      12.258  49.921  30.4560  0.00  0.00     0.000 OA
ATOM     38   S  A00 X   2      12.878  48.701  30.8730  0.00  0.00     0.000 S
ATOM     39   O  A00 X   2      13.079  47.687  29.8820  0.00  0.00     0.000 OA
ENDBRANCH 24 34
BRANCH 20 40
ATOM     40  O4  A00 X   3      15.663  52.935  28.3670  0.00  0.00     0.000 O
BRANCH 40 44
ATOM     41  C1  A00 X   3      15.425  50.267  25.9270  0.00  0.00     0.000 C
ATOM     42  C2  A00 X   3      16.554  51.319  25.9740  0.00  0.00     0.000 C
ATOM     43  C3  A00 X   3      15.973  52.755  26.0450  0.00  0.00     0.000 C
ATOM     44  C4  A00 X   3      14.921  52.959  27.1280  0.00  0.00     0.000 C
ATOM     45  C5  A00 X   3      13.819  51.869  27.0130  0.00  0.00     0.000 C
ATOM     46  O5  A00 X   3      14.413  50.532  26.9380  0.00  0.00     0.000 O
ATOM     47   O  A00 X   3      16.926  53.815  26.0050  0.00  0.00     0.000 O
ATOM     49  HD  A00 X   3      16.392  54.166  26.5900  0.00  0.00     0.000 HD
BRANCH 42 49
ATOM     49   O  A00 X   3      17.364  51.020  27.1310  0.00  0.00     0.000 O
ATOM     50   O  A00 X   3      19.299  51.959  28.1820  0.00  0.00     0.000 OA
ATOM     51   O  A00 X   3      19.238  51.816  25.8230  0.00  0.00     0.000 OA
ATOM     52   O  A00 X   3      19.378  49.813  27.0710  0.00  0.00     0.000 OA
ATOM     53   S  A00 X   3      18.913  51.157  27.0640  0.00  0.00     0.000 S
ENDBRANCH 42 49
BRANCH 45 54
ATOM     54   C  A00 X   3      12.848  52.163  25.8630  0.00  0.00     0.000 C
ATOM     55   O  A00 X   3      11.766  51.615  25.8130  0.00  0.00     0.000 OA
ATOM     56   O  A00 X   3      13.146  52.951  24.9790  0.00  0.00     0.000 OA
ENDBRANCH 45 54
BRANCH 41 57
ATOM     57  O4  A00 X   4      14.894  50.113  24.5920  0.00  0.00     0.000 O
BRANCH 57 61
ATOM     58  C1  A00 X   4      12.775  46.846  22.7280  0.00  0.00     0.000 C
ATOM     59  C2  A00 X   4      11.973  48.099  23.1600  0.00  0.00     0.000 C
ATOM     60  C3  A00 X   4      12.862  49.320  23.4720  0.00  0.00     0.000 C
ATOM     61  C4  A00 X   4      14.042  48.948  24.3960  0.00  0.00     0.000 C
ATOM     62  C5  A00 X   4      14.826  47.826  23.6720  0.00  0.00     0.000 C
ATOM     63  O5  A00 X   4      13.968  46.665  23.5240  0.00  0.00     0.000 O
BRANCH 59 66
ATOM     64   N  A00 X   4      10.912  48.435  24.1270  0.00  0.00     0.000 N
ATOM     66  HD  A00 X   4      11.034  48.199  24.9520  0.00  0.00     0.000 HD
ATOM     66   O  A00 X   4       9.541  46.776  23.0470  0.00  0.00     0.000 OA
ATOM     67   S  A00 X   4       9.413  47.990  23.7920  0.00  0.00     0.000 S
ATOM     68   O  A00 X   4       8.883  47.847  25.1170  0.00  0.00     0.000 OA
ATOM     69   O  A00 X   4       8.952  49.157  23.0970  0.00  0.00     0.000 OA
ENDBRANCH 59 66
BRANCH 62 70
ATOM     70   C  A00 X   4      16.121  47.390  24.3980  0.00  0.00     0.000 C
ATOM     71   O  A00 X   4      16.493  45.119  27.1930  0.00  0.00     0.000 OA
ATOM     72   O  A00 X   4      17.362  47.279  26.8460  0.00  0.00     0.000 OA
ATOM     73   O  A00 X   4      15.826  46.294  25.2790  0.00  0.00     0.000 O
ATOM     74   O  A00 X   4      15.013  47.007  27.4320  0.00  0.00     0.000 OA
ATOM     75   S  A00 X   4      16.171  46.462  26.8000  0.00  0.00     0.000 S
ENDBRANCH 62 70
ENDBRANCH 57 61
ENDBRANCH 41 57
ENDBRANCH 40 44
ENDBRANCH 20 40
ENDBRANCH 19 23
ENDBRANCH 1 19
TORSDOF 14
ENDMDL
MODEL 53
REMARK VINA RESULT:      -3.3     29.586     35.485
ROOT
ATOM      1  C1  A00 X   1      17.043  49.797  32.1000  0.00  0.00     0.000 C
ATOM      2  C2  A00 X   1      16.611  49.159  33.4480  0.00  0.00     0.000 C
ATOM      3  C3  A00 X   1      17.737  48.439  34.2590  0.00  0.00     0.000 C
ATOM      4  C4  A00 X   1      19.036  48.129  33.4710  0.00  0.00     0.000 C
ATOM      5  C5  A00 X   1      18.796  48.078  31.9620  0.00  0.00     0.000 C
ATOM      6  O5  A00 X   1      18.353  49.409  31.6160  0.00  0.00     0.000 O
ATOM      7   O  A00 X   1      17.237  47.187  34.7240  0.00  0.00     0.000 O
ATOM      9  HD  A00 X   1      18.049  47.053  34.4540  0.00  0.00     0.000 HD
ATOM      9   O  A00 X   1      20.063  49.075  33.7650  0.00  0.00     0.000 O
ATOM     11  HD  A00 X   1      20.875  48.941  33.4950  0.00  0.00     0.000 HD
ENDROOT
BRANCH 2 11
ATOM     11   O  A00 X   1      16.039  50.201  34.2620  0.00  0.00     0.000 O
ATOM     12   O  A00 X   1      16.343  52.527  33.7470  0.00  0.00     0.000 OA
ATOM     13   O  A00 X   1      18.278  51.175  34.3340  0.00  0.00     0.000 OA
ATOM     14   O  A00 X   1      16.626  51.686  35.9660  0.00  0.00     0.000 OA
ATOM     15   S  A00 X   1      16.894  51.479  34.5690  0.00  0.00     0.000 S
ENDBRANCH 2 11
BRANCH 5 16
ATOM     16   C  A00 X   1      17.843  46.973  31.4940  0.00  0.00     0.000 C
ATOM     17   O  A00 X   1      17.675  46.009  32.2120  0.00  0.00     0.000 OA
ATOM     18   O  A00 X   1      17.248  47.031  30.4370  0.00  0.00     0.000 OA
ENDBRANCH 5 16
BRANCH 1 19
ATOM     19  O4  A00 X   2      16.036  49.661  31.0670  0.00  0.00     0.000 O
BRANCH 19 23
ATOM     20  C1  A00 X   2      13.202  52.597  29.7600  0.00  0.00     0.000 C
ATOM     21  C2  A00 X   2      14.540  53.108  30.3470  0.00  0.00     0.000 C
ATOM     22  C3  A00 X   2      15.597  51.984  30.3620  0.00  0.00     0.000 C
ATOM     23  C4  A00 X   2      15.056  50.738  31.0980  0.00  0.00     0.000 C
ATOM     24  C5  A00 X   2      13.711  50.340  30.4310  0.00  0.00     0.000 C
ATOM     25  O5  A00 X   2      12.784  51.451  30.5480  0.00  0.00     0.000 O
ATOM     26   O  A00 X   2      16.838  52.524  30.8490  0.00  0.00     0.000 O
ATOM     28  HD  A00 X   2      16.466  52.881  31.5450  0.00  0.00     0.000 HD
BRANCH 21 30
ATOM     28   N  A00 X   2      15.693  53.968  30.0630  0.00  0.00     0.000 N
ATOM     30  HD  A00 X   2      15.039  54.491  30.2850  0.00  0.00     0.000 HD
ATOM     30   O  A00 X   2      15.258  56.084  30.9550  0.00  0.00     0.000 OA
ATOM     31   S  A00 X   2      15.435  55.481  29.6820  0.00  0.00     0.000 S
ATOM     32   O  A00 X   2      16.628  55.864  28.9920  0.00  0.00     0.000 OA
ATOM     33   O  A00 X   2      14.314  55.507  28.7890  0.00  0.00     0.000 OA
ENDBRANCH 21 30
BRANCH 24 34
ATOM     34   C  A00 X   2      13.075  48.987  30.8300  0.00  0.00     0.000 C
ATOM     35   O  A00 X   2      11.705  46.595  28.4530  0.00  0.00     0.000 OA
ATOM     36   O  A00 X   2      12.314  48.426  29.7420  0.00  0.00     0.000 O
ATOM     37   O  A00 X   2      13.918  47.422  28.3670  0.00  0.00     0.000 OA
ATOM     38   S  A00 X   2      12.828  47.038  29.2110  0.00  0.00     0.000 S
ATOM     39   O  A00 X   2      13.130  46.248  30.3670  0.00  0.00     0.000 OA
ENDBRANCH 24 34
BRANCH 20 40
ATOM     40  O4  A00 X   3      13.501  52.177  28.4210  0.00  0.00     0.000 O
BRANCH 40 44
ATOM     41  C1  A00 X   3      13.508  50.427  25.2490  0.00  0.00     0.000 C
ATOM     42  C2  A00 X   3      14.120  51.825  25.4840  0.00  0.00     0.000 C
ATOM     43  C3  A00 X   3      13.103  52.765  26.1820  0.00  0.00     0.000 C
ATOM     44  C4  A00 X   3      12.452  52.181  27.4290  0.00  0.00     0.000 C
ATOM     45  C5  A00 X   3      11.857  50.780  27.1110  0.00  0.00     0.000 C
ATOM     46  O5  A00 X   3      12.846  49.930  26.4450  0.00  0.00     0.000 O
ATOM     47   O  A00 X   3      13.531  54.113  26.3720  0.00  0.00     0.000 O
ATOM     49  HD  A00 X   3      13.120  54.017  27.1280  0.00  0.00     0.000 HD
BRANCH 42 49
ATOM     49   O  A00 X   3      15.305  51.638  26.2890  0.00  0.00     0.000 O
ATOM     50   O  A00 X   3      16.939  53.051  27.3200  0.00  0.00     0.000 OA
ATOM     51   O  A00 X   3      16.193  53.572  25.1380  0.00  0.00     0.000 OA
ATOM     52   O  A00 X   3      17.497  51.625  25.4480  0.00  0.00     0.000 OA
ATOM     53   S  A00 X   3      16.566  52.518  26.0480  0.00  0.00     0.000 S
ENDBRANCH 42 49
BRANCH 45 54
ATOM     54   C  A00 X   3      10.536  50.886  26.3400  0.00  0.00     0.000 C
ATOM     55   O  A00 X   3       9.789  49.933  26.2570  0.00  0.00     0.000 OA
ATOM     56   O  A00 X   3      10.212  51.930  25.7950  0.00  0.00     0.000 OA
ENDBRANCH 45 54
BRANCH 41 57
ATOM     57  O4  A00 X   4      12.679  50.399  24.0650  0.00  0.00     0.000 O
BRANCH 57 61
ATOM     58  C1  A00 X   4      11.479  47.160  21.4750  0.00  0.00     0.000 C
ATOM     59  C2  A00 X   4      10.471  47.677  22.5320  0.00  0.00     0.000 C
ATOM     60  C3  A00 X   4      10.861  49.040  23.1380  0.00  0.00     0.000 C
ATOM     61  C4  A00 X   4      12.341  49.069  23.5790  0.00  0.00     0.000 C
ATOM     62  C5  A00 X   4      13.177  48.730  22.3200  0.00  0.00     0.000 C
ATOM     63  O5  A00 X   4      12.850  47.388  21.8770  0.00  0.00     0.000 O
BRANCH 59 66
ATOM     64   N  A00 X   4       9.016  47.783  22.7420  0.00  0.00     0.000 N
ATOM     66  HD  A00 X   4       8.739  47.950  23.5460  0.00  0.00     0.000 HD
ATOM     66   O  A00 X   4       8.888  45.409  22.3610  0.00  0.00     0.000 OA
ATOM     67   S  A00 X   4       8.087  46.586  22.2310  0.00  0.00     0.000 S
ATOM     68   O  A00 X   4       6.995  46.694  23.1530  0.00  0.00     0.000 OA
ATOM     69   O  A00 X   4       7.786  47.048  20.9050  0.00  0.00     0.000 OA
ENDBRANCH 59 66
BRANCH 62 70
ATOM     70   C  A00 X   4      14.707  48.818  22.5350  0.00  0.00     0.000 C
ATOM     71   O  A00 X   4      16.936  46.343  23.9520  0.00  0.00     0.000 OA
ATOM     72   O  A00 X   4      16.696  48.638  24.4200  0.00  0.00     0.000 OA
ATOM     73   O  A00 X   4      15.211  47.521  22.8920  0.00  0.00     0.000 O
ATOM     74   O  A00 X   4      15.036  47.060  25.2510  0.00  0.00     0.000 OA
ATOM     75   S  A00 X   4      15.994  47.386  24.2440  0.00  0.00     0.000 S
ENDBRANCH 62 70
ENDBRANCH 57 61
ENDBRANCH 41 57
ENDBRANCH 40 44
ENDBRANCH 20 40
ENDBRANCH 19 23
ENDBRANCH 1 19
TORSDOF 14
ENDMDL
MODEL 54
REMARK VINA RESULT:      -3.2     18.759     24.941
ROOT
ATOM      1  C1  A00 X   1      44.419  46.647  63.1960  0.00  0.00     0.000 C
ATOM      2  C2  A00 X   1      45.105  45.778  62.1080  0.00  0.00     0.000 C
ATOM      3  C3  A00 X   1      44.869  44.235  62.2100  0.00  0.00     0.000 C
ATOM      4  C4  A00 X   1      44.303  43.734  63.5640  0.00  0.00     0.000 C
ATOM      5  C5  A00 X   1      44.585  44.712  64.7050  0.00  0.00     0.000 C
ATOM      6  O5  A00 X   1      43.887  45.921  64.3320  0.00  0.00     0.000 O
ATOM      7   O  A00 X   1      46.115  43.568  62.0210  0.00  0.00     0.000 O
ATOM      9  HD  A00 X   1      45.703  43.161  62.6640  0.00  0.00     0.000 HD
ATOM      9   O  A00 X   1      42.901  43.480  63.4810  0.00  0.00     0.000 O
ATOM     11  HD  A00 X   1      42.489  43.073  64.1250  0.00  0.00     0.000 HD
ENDROOT
BRANCH 2 11
ATOM     11   O  A00 X   1      44.642  46.239  60.8230  0.00  0.00     0.000 O
ATOM     12   O  A00 X   1      44.931  44.936  58.8270  0.00  0.00     0.000 OA
ATOM     13   O  A00 X   1      46.893  45.762  60.0030  0.00  0.00     0.000 OA
ATOM     14   O  A00 X   1      45.434  47.272  58.8850  0.00  0.00     0.000 OA
ATOM     15   S  A00 X   1      45.548  46.010  59.5640  0.00  0.00     0.000 S
ENDBRANCH 2 11
BRANCH 5 16
ATOM     16   C  A00 X   1      46.068  44.932  65.0180  0.00  0.00     0.000 C
ATOM     17   O  A00 X   1      46.373  45.805  65.8040  0.00  0.00     0.000 OA
ATOM     18   O  A00 X   1      46.947  44.261  64.5150  0.00  0.00     0.000 OA
ENDBRANCH 5 16
BRANCH 1 19
ATOM     19  O4  A00 X   2      45.237  47.765  63.6190  0.00  0.00     0.000 O
BRANCH 19 23
ATOM     20  C1  A00 X   2      42.072  50.613  63.1340  0.00  0.00     0.000 C
ATOM     21  C2  A00 X   2      43.208  50.621  62.0820  0.00  0.00     0.000 C
ATOM     22  C3  A00 X   2      44.011  49.304  62.1310  0.00  0.00     0.000 C
ATOM     23  C4  A00 X   2      44.522  49.032  63.5640  0.00  0.00     0.000 C
ATOM     24  C5  A00 X   2      43.298  49.069  64.5190  0.00  0.00     0.000 C
ATOM     25  O5  A00 X   2      42.677  50.378  64.4330  0.00  0.00     0.000 O
ATOM     26   O  A00 X   2      45.007  49.332  61.0940  0.00  0.00     0.000 O
ATOM     28  HD  A00 X   2      45.298  50.114  61.3250  0.00  0.00     0.000 HD
BRANCH 21 30
ATOM     28   N  A00 X   2      42.998  50.613  60.6310  0.00  0.00     0.000 N
ATOM     30  HD  A00 X   2      43.065  51.442  60.8700  0.00  0.00     0.000 HD
ATOM     30   O  A00 X   2      43.579  52.718  59.8010  0.00  0.00     0.000 OA
ATOM     31   S  A00 X   2      42.419  51.912  59.9410  0.00  0.00     0.000 S
ATOM     32   O  A00 X   2      41.868  51.426  58.7140  0.00  0.00     0.000 OA
ATOM     33   O  A00 X   2      41.378  52.413  60.7890  0.00  0.00     0.000 OA
ENDBRANCH 21 30
BRANCH 24 34
ATOM     34   C  A00 X   2      43.503  48.600  65.9790  0.00  0.00     0.000 C
ATOM     35   O  A00 X   2      40.840  47.305  68.0990  0.00  0.00     0.000 OA
ATOM     36   O  A00 X   2      42.243  48.480  66.6710  0.00  0.00     0.000 O
ATOM     37   O  A00 X   2      41.396  46.412  65.9800  0.00  0.00     0.000 OA
ATOM     38   S  A00 X   2      41.890  47.032  67.1720  0.00  0.00     0.000 S
ATOM     39   O  A00 X   2      43.087  46.499  67.7500  0.00  0.00     0.000 OA
ENDBRANCH 24 34
BRANCH 20 40
ATOM     40  O4  A00 X   3      41.231  49.503  62.7880  0.00  0.00     0.000 O
BRANCH 40 44
ATOM     41  C1  A00 X   3      38.789  46.867  62.3250  0.00  0.00     0.000 C
ATOM     42  C2  A00 X   3      39.247  47.846  61.2220  0.00  0.00     0.000 C
ATOM     43  C3  A00 X   3      39.152  49.315  61.7100  0.00  0.00     0.000 C
ATOM     44  C4  A00 X   3      39.815  49.579  63.0560  0.00  0.00     0.000 C
ATOM     45  C5  A00 X   3      39.301  48.560  64.1110  0.00  0.00     0.000 C
ATOM     46  O5  A00 X   3      39.399  47.189  63.6050  0.00  0.00     0.000 O
ATOM     47   O  A00 X   3      39.469  50.314  60.7430  0.00  0.00     0.000 O
ATOM     49  HD  A00 X   3      39.844  50.695  61.4240  0.00  0.00     0.000 HD
BRANCH 42 49
ATOM     49   O  A00 X   3      40.604  47.491  60.8780  0.00  0.00     0.000 O
ATOM     50   O  A00 X   3      42.249  48.250  59.3130  0.00  0.00     0.000 OA
ATOM     51   O  A00 X   3      40.002  48.059  58.6030  0.00  0.00     0.000 OA
ATOM     52   O  A00 X   3      41.200  46.082  59.0960  0.00  0.00     0.000 OA
ATOM     53   S  A00 X   3      41.056  47.466  59.3880  0.00  0.00     0.000 S
ENDBRANCH 42 49
BRANCH 45 54
ATOM     54   C  A00 X   3      37.896  48.919  64.6110  0.00  0.00     0.000 C
ATOM     55   O  A00 X   3      37.460  48.433  65.6340  0.00  0.00     0.000 OA
ATOM     56   O  A00 X   3      37.192  49.699  63.9880  0.00  0.00     0.000 OA
ENDBRANCH 45 54
BRANCH 41 57
ATOM     57  O4  A00 X   4      37.350  46.752  62.3720  0.00  0.00     0.000 O
BRANCH 57 61
ATOM     58  C1  A00 X   4      34.677  43.681  63.8100  0.00  0.00     0.000 C
ATOM     59  C2  A00 X   4      35.312  44.652  64.8370  0.00  0.00     0.000 C
ATOM     60  C3  A00 X   4      35.944  45.902  64.1920  0.00  0.00     0.000 C
ATOM     61  C4  A00 X   4      36.847  45.536  62.9950  0.00  0.00     0.000 C
ATOM     62  C5  A00 X   4      35.954  44.753  62.0000  0.00  0.00     0.000 C
ATOM     63  O5  A00 X   4      35.497  43.529  62.6290  0.00  0.00     0.000 O
BRANCH 59 66
ATOM     64   N  A00 X   4      36.234  43.554  65.1800  0.00  0.00     0.000 N
ATOM     66  HD  A00 X   4      36.273  42.880  64.6370  0.00  0.00     0.000 HD
ATOM     66   O  A00 X   4      34.743  43.000  66.9880  0.00  0.00     0.000 OA
ATOM     67   S  A00 X   4      36.125  42.899  66.6350  0.00  0.00     0.000 S
ATOM     68   O  A00 X   4      36.596  41.573  66.3580  0.00  0.00     0.000 OA
ATOM     69   O  A00 X   4      37.061  43.718  67.3520  0.00  0.00     0.000 OA
ENDBRANCH 59 66
BRANCH 62 70
ATOM     70   C  A00 X   4      36.659  44.389  60.6710  0.00  0.00     0.000 C
ATOM     71   O  A00 X   4      36.196  41.460  58.5940  0.00  0.00     0.000 OA
ATOM     72   O  A00 X   4      38.162  42.467  59.4110  0.00  0.00     0.000 OA
ATOM     73   O  A00 X   4      35.992  43.267  60.0720  0.00  0.00     0.000 O
ATOM     74   O  A00 X   4      36.771  41.148  60.9150  0.00  0.00     0.000 OA
ATOM     75   S  A00 X   4      36.844  41.987  59.7630  0.00  0.00     0.000 S
ENDBRANCH 62 70
ENDBRANCH 57 61
ENDBRANCH 41 57
ENDBRANCH 40 44
ENDBRANCH 20 40
ENDBRANCH 19 23
ENDBRANCH 1 19
TORSDOF 14
ENDMDL
MODEL 55
REMARK VINA RESULT:      -2.8     29.538     35.641
ROOT
ATOM      1  C1  A00 X   1      16.945  47.349  30.5630  0.00  0.00     0.000 C
ATOM      2  C2  A00 X   1      18.137  48.330  30.3980  0.00  0.00     0.000 C
ATOM      3  C3  A00 X   1      18.704  48.948  31.7180  0.00  0.00     0.000 C
ATOM      4  C4  A00 X   1      17.798  48.805  32.9680  0.00  0.00     0.000 C
ATOM      5  C5  A00 X   1      16.331  48.590  32.5950  0.00  0.00     0.000 C
ATOM      6  O5  A00 X   1      16.316  47.341  31.8680  0.00  0.00     0.000 O
ATOM      7   O  A00 X   1      18.902  50.346  31.5200  0.00  0.00     0.000 O
ATOM      9  HD  A00 X   1      18.566  50.246  32.3110  0.00  0.00     0.000 HD
ATOM      9   O  A00 X   1      18.241  47.745  33.8150  0.00  0.00     0.000 O
ATOM     11  HD  A00 X   1      17.905  47.645  34.6070  0.00  0.00     0.000 HD
ENDROOT
BRANCH 2 11
ATOM     11   O  A00 X   1      19.193  47.625  29.7180  0.00  0.00     0.000 O
ATOM     12   O  A00 X   1      19.213  45.231  29.5370  0.00  0.00     0.000 OA
ATOM     13   O  A00 X   1      19.386  46.261  31.7340  0.00  0.00     0.000 OA
ATOM     14   O  A00 X   1      21.165  46.458  30.1670  0.00  0.00     0.000 OA
ATOM     15   S  A00 X   1      19.747  46.299  30.3440  0.00  0.00     0.000 S
ENDBRANCH 2 11
BRANCH 5 16
ATOM     16   C  A00 X   1      15.679  49.749  31.8340  0.00  0.00     0.000 C
ATOM     17   O  A00 X   1      16.253  50.818  31.8010  0.00  0.00     0.000 OA
ATOM     18   O  A00 X   1      14.615  49.635  31.2590  0.00  0.00     0.000 OA
ENDBRANCH 5 16
BRANCH 1 19
ATOM     19  O4  A00 X   2      15.963  47.476  29.5050  0.00  0.00     0.000 O
BRANCH 19 23
ATOM     20  C1  A00 X   2      16.407  48.074  25.2840  0.00  0.00     0.000 C
ATOM     21  C2  A00 X   2      17.054  46.809  25.8990  0.00  0.00     0.000 C
ATOM     22  C3  A00 X   2      16.459  46.508  27.2900  0.00  0.00     0.000 C
ATOM     23  C4  A00 X   2      16.571  47.746  28.2090  0.00  0.00     0.000 C
ATOM     24  C5  A00 X   2      15.906  48.943  27.4750  0.00  0.00     0.000 C
ATOM     25  O5  A00 X   2      16.601  49.167  26.2210  0.00  0.00     0.000 O
ATOM     26   O  A00 X   2      17.040  45.290  27.7870  0.00  0.00     0.000 O
ATOM     28  HD  A00 X   2      17.850  45.553  27.6270  0.00  0.00     0.000 HD
BRANCH 21 30
ATOM     28   N  A00 X   2      18.094  46.933  24.8740  0.00  0.00     0.000 N
ATOM     30  HD  A00 X   2      18.184  46.148  25.2280  0.00  0.00     0.000 HD
ATOM     30   O  A00 X   2      18.917  44.797  24.4100  0.00  0.00     0.000 OA
ATOM     31   S  A00 X   2      19.376  46.014  24.9790  0.00  0.00     0.000 S
ATOM     32   O  A00 X   2      20.357  46.711  24.2050  0.00  0.00     0.000 OA
ATOM     33   O  A00 X   2      19.762  45.982  26.3580  0.00  0.00     0.000 OA
ENDBRANCH 21 30
BRANCH 24 34
ATOM     34   C  A00 X   2      15.679  50.248  28.2740  0.00  0.00     0.000 C
ATOM     35   O  A00 X   2      16.773  53.538  27.1600  0.00  0.00     0.000 OA
ATOM     36   O  A00 X   2      16.512  51.315  27.7780  0.00  0.00     0.000 O
ATOM     37   O  A00 X   2      15.377  52.109  25.8930  0.00  0.00     0.000 OA
ATOM     38   S  A00 X   2      15.737  52.558  27.2030  0.00  0.00     0.000 S
ATOM     39   O  A00 X   2      14.677  52.835  28.1250  0.00  0.00     0.000 OA
ENDBRANCH 24 34
BRANCH 20 40
ATOM     40  O4  A00 X   3      15.007  47.779  25.1750  0.00  0.00     0.000 O
BRANCH 40 44
ATOM     41  C1  A00 X   3      11.394  47.997  25.0200  0.00  0.00     0.000 C
ATOM     42  C2  A00 X   3      12.229  46.823  24.4650  0.00  0.00     0.000 C
ATOM     43  C3  A00 X   3      13.369  47.337  23.5490  0.00  0.00     0.000 C
ATOM     44  C4  A00 X   3      14.223  48.442  24.1590  0.00  0.00     0.000 C
ATOM     45  C5  A00 X   3      13.313  49.586  24.6890  0.00  0.00     0.000 C
ATOM     46  O5  A00 X   3      12.246  49.054  25.5390  0.00  0.00     0.000 O
ATOM     47   O  A00 X   3      14.155  46.333  22.9090  0.00  0.00     0.000 O
ATOM     49  HD  A00 X   3      14.799  46.884  23.0860  0.00  0.00     0.000 HD
BRANCH 42 49
ATOM     49   O  A00 X   3      12.751  46.100  25.6020  0.00  0.00     0.000 O
ATOM     50   O  A00 X   3      13.115  43.806  26.1770  0.00  0.00     0.000 OA
ATOM     51   O  A00 X   3      11.116  44.399  25.0640  0.00  0.00     0.000 OA
ATOM     52   O  A00 X   3      11.430  45.137  27.2870  0.00  0.00     0.000 OA
ATOM     53   S  A00 X   3      12.074  44.779  26.0710  0.00  0.00     0.000 S
ENDBRANCH 42 49
BRANCH 45 54
ATOM     54   C  A00 X   3      12.792  50.470  23.5490  0.00  0.00     0.000 C
ATOM     55   O  A00 X   3      12.205  51.506  23.7890  0.00  0.00     0.000 OA
ATOM     56   O  A00 X   3      12.957  50.149  22.3830  0.00  0.00     0.000 OA
ENDBRANCH 45 54
BRANCH 41 57
ATOM     57  O4  A00 X   4      10.411  48.452  24.0630  0.00  0.00     0.000 O
BRANCH 57 61
ATOM     58  C1  A00 X   4       6.346  49.858  24.4380  0.00  0.00     0.000 C
ATOM     59  C2  A00 X   4       7.498  50.790  24.8890  0.00  0.00     0.000 C
ATOM     60  C3  A00 X   4       8.885  50.344  24.3840  0.00  0.00     0.000 C
ATOM     61  C4  A00 X   4       9.128  48.839  24.6310  0.00  0.00     0.000 C
ATOM     62  C5  A00 X   4       7.977  48.089  23.9160  0.00  0.00     0.000 C
ATOM     63  O5  A00 X   4       6.714  48.462  24.5240  0.00  0.00     0.000 O
BRANCH 59 66
ATOM     64   N  A00 X   4       7.694  52.251  24.8790  0.00  0.00     0.000 N
ATOM     66  HD  A00 X   4       8.394  52.564  25.2810  0.00  0.00     0.000 HD
ATOM     66   O  A00 X   4       5.813  52.413  26.3740  0.00  0.00     0.000 OA
ATOM     67   S  A00 X   4       6.490  53.180  25.3760  0.00  0.00     0.000 S
ATOM     68   O  A00 X   4       7.222  54.314  25.8600  0.00  0.00     0.000 OA
ATOM     69   O  A00 X   4       5.813  53.405  24.1310  0.00  0.00     0.000 OA
ENDBRANCH 59 66
BRANCH 62 70
ATOM     70   C  A00 X   4       8.106  46.547  23.9570  0.00  0.00     0.000 C
ATOM     71   O  A00 X   4       5.730  44.049  22.8530  0.00  0.00     0.000 OA
ATOM     72   O  A00 X   4       6.921  44.246  24.8750  0.00  0.00     0.000 OA
ATOM     73   O  A00 X   4       7.040  45.961  23.1930  0.00  0.00     0.000 O
ATOM     74   O  A00 X   4       5.007  45.696  24.4590  0.00  0.00     0.000 OA
ATOM     75   S  A00 X   4       6.092  44.943  23.9170  0.00  0.00     0.000 S
ENDBRANCH 62 70
ENDBRANCH 57 61
ENDBRANCH 41 57
ENDBRANCH 40 44
ENDBRANCH 20 40
ENDBRANCH 19 23
ENDBRANCH 1 19
TORSDOF 14
ENDMDL
MODEL 56
REMARK VINA RESULT:      -2.7     20.642     27.132
ROOT
ATOM      1  C1  A00 X   1      40.384  50.329  69.7880  0.00  0.00     0.000 C
ATOM      2  C2  A00 X   1      38.924  50.577  70.2520  0.00  0.00     0.000 C
ATOM      3  C3  A00 X   1      38.689  51.847  71.1340  0.00  0.00     0.000 C
ATOM      4  C4  A00 X   1      39.966  52.488  71.7360  0.00  0.00     0.000 C
ATOM      5  C5  A00 X   1      41.125  51.495  71.8220  0.00  0.00     0.000 C
ATOM      6  O5  A00 X   1      41.395  51.127  70.4510  0.00  0.00     0.000 O
ATOM      7   O  A00 X   1      37.856  51.492  72.2350  0.00  0.00     0.000 O
ATOM      9  HD  A00 X   1      38.473  52.018  72.5400  0.00  0.00     0.000 HD
ATOM      9   O  A00 X   1      40.372  53.639  70.9950  0.00  0.00     0.000 O
ATOM     11  HD  A00 X   1      40.989  54.164  71.3010  0.00  0.00     0.000 HD
ENDROOT
BRANCH 2 11
ATOM     11   O  A00 X   1      38.098  50.664  69.0740  0.00  0.00     0.000 O
ATOM     12   O  A00 X   1      35.707  50.471  69.1830  0.00  0.00     0.000 OA
ATOM     13   O  A00 X   1      37.084  48.566  69.8070  0.00  0.00     0.000 OA
ATOM     14   O  A00 X   1      36.988  49.294  67.5440  0.00  0.00     0.000 OA
ATOM     15   S  A00 X   1      36.885  49.683  68.9250  0.00  0.00     0.000 S
ENDBRANCH 2 11
BRANCH 5 16
ATOM     16   C  A00 X   1      40.882  50.294  72.7430  0.00  0.00     0.000 C
ATOM     17   O  A00 X   1      41.667  49.369  72.7110  0.00  0.00     0.000 OA
ATOM     18   O  A00 X   1      39.938  50.239  73.5050  0.00  0.00     0.000 OA
ENDBRANCH 5 16
BRANCH 1 19
ATOM     19  O4  A00 X   2      40.740  48.925  69.7800  0.00  0.00     0.000 O
BRANCH 19 23
ATOM     20  C1  A00 X   2      43.575  46.787  67.3810  0.00  0.00     0.000 C
ATOM     21  C2  A00 X   2      44.074  47.376  68.7220  0.00  0.00     0.000 C
ATOM     22  C3  A00 X   2      42.888  47.719  69.6470  0.00  0.00     0.000 C
ATOM     23  C4  A00 X   2      41.883  48.643  68.9230  0.00  0.00     0.000 C
ATOM     24  C5  A00 X   2      41.476  47.952  67.5930  0.00  0.00     0.000 C
ATOM     25  O5  A00 X   2      42.666  47.752  66.7870  0.00  0.00     0.000 O
ATOM     26   O  A00 X   2      43.404  48.197  70.9010  0.00  0.00     0.000 O
ATOM     28  HD  A00 X   2      43.934  48.767  70.5230  0.00  0.00     0.000 HD
BRANCH 21 30
ATOM     28   N  A00 X   2      45.317  46.732  68.2860  0.00  0.00     0.000 N
ATOM     30  HD  A00 X   2      45.543  47.382  68.8140  0.00  0.00     0.000 HD
ATOM     30   O  A00 X   2      47.033  47.422  69.7150  0.00  0.00     0.000 OA
ATOM     31   S  A00 X   2      46.663  47.560  68.3510  0.00  0.00     0.000 S
ATOM     32   O  A00 X   2      47.518  46.888  67.4220  0.00  0.00     0.000 OA
ATOM     33   O  A00 X   2      46.368  48.883  67.8880  0.00  0.00     0.000 OA
ENDBRANCH 21 30
BRANCH 24 34
ATOM     34   C  A00 X   2      40.305  48.561  66.7870  0.00  0.00     0.000 C
ATOM     35   O  A00 X   2      40.467  49.363  63.2390  0.00  0.00     0.000 OA
ATOM     36   O  A00 X   2      40.758  49.092  65.5260  0.00  0.00     0.000 O
ATOM     37   O  A00 X   2      40.925  47.221  64.1320  0.00  0.00     0.000 OA
ATOM     38   S  A00 X   2      40.140  48.412  64.2500  0.00  0.00     0.000 S
ATOM     39   O  A00 X   2      38.740  48.261  64.5100  0.00  0.00     0.000 OA
ENDBRANCH 24 34
BRANCH 20 40
ATOM     40  O4  A00 X   3      42.851  45.596  67.7260  0.00  0.00     0.000 O
BRANCH 40 44
ATOM     41  C1  A00 X   3      40.269  43.078  67.3930  0.00  0.00     0.000 C
ATOM     42  C2  A00 X   3      41.436  43.014  68.4020  0.00  0.00     0.000 C
ATOM     43  C3  A00 X   3      42.795  43.248  67.6940  0.00  0.00     0.000 C
ATOM     44  C4  A00 X   3      42.841  44.484  66.8050  0.00  0.00     0.000 C
ATOM     45  C5  A00 X   3      41.642  44.474  65.8160  0.00  0.00     0.000 C
ATOM     46  O5  A00 X   3      40.382  44.240  66.5260  0.00  0.00     0.000 O
ATOM     47   O  A00 X   3      43.954  43.125  68.5150  0.00  0.00     0.000 O
ATOM     49  HD  A00 X   3      44.222  43.800  68.0440  0.00  0.00     0.000 HD
BRANCH 42 49
ATOM     49   O  A00 X   3      41.183  44.021  69.4060  0.00  0.00     0.000 O
ATOM     50   O  A00 X   3      41.717  44.335  71.7180  0.00  0.00     0.000 OA
ATOM     51   O  A00 X   3      41.059  42.187  70.9800  0.00  0.00     0.000 OA
ATOM     52   O  A00 X   3      39.450  43.918  70.9870  0.00  0.00     0.000 OA
ATOM     53   S  A00 X   3      40.832  43.606  70.8640  0.00  0.00     0.000 S
ENDBRANCH 42 49
BRANCH 45 54
ATOM     54   C  A00 X   3      41.871  43.499  64.6560  0.00  0.00     0.000 C
ATOM     55   O  A00 X   3      42.902  42.864  64.5750  0.00  0.00     0.000 OA
ATOM     56   O  A00 X   3      41.021  43.344  63.7920  0.00  0.00     0.000 OA
ENDBRANCH 45 54
BRANCH 41 57
ATOM     57  O4  A00 X   4      40.108  41.829  66.6830  0.00  0.00     0.000 O
BRANCH 57 61
ATOM     58  C1  A00 X   4      36.655  39.647  65.2830  0.00  0.00     0.000 C
ATOM     59  C2  A00 X   4      37.120  40.890  64.4850  0.00  0.00     0.000 C
ATOM     60  C3  A00 X   4      38.540  41.363  64.8560  0.00  0.00     0.000 C
ATOM     61  C4  A00 X   4      38.731  41.461  66.3850  0.00  0.00     0.000 C
ATOM     62  C5  A00 X   4      38.417  40.055  66.9530  0.00  0.00     0.000 C
ATOM     63  O5  A00 X   4      37.031  39.727  66.6770  0.00  0.00     0.000 O
BRANCH 59 66
ATOM     64   N  A00 X   4      36.226  42.022  64.7870  0.00  0.00     0.000 N
ATOM     66  HD  A00 X   4      35.830  42.024  65.5570  0.00  0.00     0.000 HD
ATOM     66   O  A00 X   4      34.706  41.129  63.1460  0.00  0.00     0.000 OA
ATOM     67   S  A00 X   4      35.073  42.378  63.7360  0.00  0.00     0.000 S
ATOM     68   O  A00 X   4      34.096  42.958  64.6110  0.00  0.00     0.000 OA
ATOM     69   O  A00 X   4      35.766  43.330  62.9140  0.00  0.00     0.000 OA
ENDBRANCH 59 66
BRANCH 62 70
ATOM     70   C  A00 X   4      38.660  39.920  68.4760  0.00  0.00     0.000 C
ATOM     71   O  A00 X   4      36.264  39.207  71.0940  0.00  0.00     0.000 OA
ATOM     72   O  A00 X   4      37.910  40.883  70.9360  0.00  0.00     0.000 OA
ATOM     73   O  A00 X   4      37.480  39.390  69.1000  0.00  0.00     0.000 O
ATOM     74   O  A00 X   4      35.856  41.086  69.6400  0.00  0.00     0.000 OA
ATOM     75   S  A00 X   4      36.819  40.227  70.2500  0.00  0.00     0.000 S
ENDBRANCH 62 70
ENDBRANCH 57 61
ENDBRANCH 41 57
ENDBRANCH 40 44
ENDBRANCH 20 40
ENDBRANCH 19 23
ENDBRANCH 1 19
TORSDOF 14
ENDMDL
MODEL 57
REMARK VINA RESULT:      -2.6     44.899     48.615
ROOT
ATOM      1  C1  A00 X   1      14.673  44.082  91.5830  0.00  0.00     0.000 C
ATOM      2  C2  A00 X   1      13.350  43.905  90.7910  0.00  0.00     0.000 C
ATOM      3  C3  A00 X   1      12.901  45.126  89.9210  0.00  0.00     0.000 C
ATOM      4  C4  A00 X   1      13.612  46.468  90.2360  0.00  0.00     0.000 C
ATOM      5  C5  A00 X   1      14.197  46.494  91.6480  0.00  0.00     0.000 C
ATOM      6  O5  A00 X   1      15.182  45.437  91.6560  0.00  0.00     0.000 O
ATOM      7   O  A00 X   1      11.508  45.347  90.1280  0.00  0.00     0.000 O
ATOM      9  HD  A00 X   1      11.890  46.124  90.1110  0.00  0.00     0.000 HD
ATOM      9   O  A00 X   1      14.637  46.751  89.2830  0.00  0.00     0.000 O
ATOM     11  HD  A00 X   1      15.019  47.528  89.2660  0.00  0.00     0.000 HD
ENDROOT
BRANCH 2 11
ATOM     11   O  A00 X   1      13.500  42.752  89.9390  0.00  0.00     0.000 O
ATOM     12   O  A00 X   1      11.922  42.243  88.2020  0.00  0.00     0.000 OA
ATOM     13   O  A00 X   1      11.192  42.202  90.5220  0.00  0.00     0.000 OA
ATOM     14   O  A00 X   1      12.715  40.566  89.7090  0.00  0.00     0.000 OA
ATOM     15   S  A00 X   1      12.229  41.912  89.5710  0.00  0.00     0.000 S
ENDBRANCH 2 11
BRANCH 5 16
ATOM     16   C  A00 X   1      13.168  46.382  92.7770  0.00  0.00     0.000 C
ATOM     17   O  A00 X   1      13.565  46.174  93.9060  0.00  0.00     0.000 OA
ATOM     18   O  A00 X   1      11.974  46.502  92.5860  0.00  0.00     0.000 OA
ENDBRANCH 5 16
BRANCH 1 19
ATOM     19  O4  A00 X   2      14.630  43.463  92.8920  0.00  0.00     0.000 O
BRANCH 19 23
ATOM     20  C1  A00 X   2      18.393  41.478  92.3790  0.00  0.00     0.000 C
ATOM     21  C2  A00 X   2      17.111  40.619  92.2650  0.00  0.00     0.000 C
ATOM     22  C3  A00 X   2      15.871  41.509  92.0380  0.00  0.00     0.000 C
ATOM     23  C4  A00 X   2      15.772  42.592  93.1360  0.00  0.00     0.000 C
ATOM     24  C5  A00 X   2      17.118  43.367  93.1620  0.00  0.00     0.000 C
ATOM     25  O5  A00 X   2      18.189  42.432  93.4550  0.00  0.00     0.000 O
ATOM     26   O  A00 X   2      14.720  40.664  91.8700  0.00  0.00     0.000 O
ATOM     28  HD  A00 X   2      14.891  40.204  92.5830  0.00  0.00     0.000 HD
BRANCH 21 30
ATOM     28   N  A00 X   2      16.619  39.689  91.2430  0.00  0.00     0.000 N
ATOM     30  HD  A00 X   2      17.134  39.233  91.7700  0.00  0.00     0.000 HD
ATOM     30   O  A00 X   2      17.005  37.511  91.9960  0.00  0.00     0.000 OA
ATOM     31   S  A00 X   2      17.444  38.372  90.9560  0.00  0.00     0.000 S
ATOM     32   O  A00 X   2      17.029  37.992  89.6410  0.00  0.00     0.000 OA
ATOM     33   O  A00 X   2      18.831  38.733  90.9550  0.00  0.00     0.000 OA
ENDBRANCH 21 30
BRANCH 24 34
ATOM     34   C  A00 X   2      17.198  44.654  94.0170  0.00  0.00     0.000 C
ATOM     35   O  A00 X   2      19.915  45.408  96.3190  0.00  0.00     0.000 OA
ATOM     36   O  A00 X   2      18.171  44.520  95.0720  0.00  0.00     0.000 O
ATOM     37   O  A00 X   2      20.224  44.922  94.0260  0.00  0.00     0.000 OA
ATOM     38   S  A00 X   2      19.375  45.529  95.0050  0.00  0.00     0.000 S
ATOM     39   O  A00 X   2      18.814  46.810  94.6950  0.00  0.00     0.000 OA
ENDBRANCH 24 34
BRANCH 20 40
ATOM     40  O4  A00 X   3      18.504  42.178  91.1320  0.00  0.00     0.000 O
BRANCH 40 44
ATOM     41  C1  A00 X   3      19.262  44.380  88.3570  0.00  0.00     0.000 C
ATOM     42  C2  A00 X   3      18.915  42.882  88.2220  0.00  0.00     0.000 C
ATOM     43  C3  A00 X   3      19.789  42.022  89.1710  0.00  0.00     0.000 C
ATOM     44  C4  A00 X   3      19.814  42.501  90.6170  0.00  0.00     0.000 C
ATOM     45  C5  A00 X   3      20.174  44.013  90.6710  0.00  0.00     0.000 C
ATOM     46  O5  A00 X   3      19.333  44.783  89.7530  0.00  0.00     0.000 O
ATOM     47   O  A00 X   3      19.616  40.610  89.0690  0.00  0.00     0.000 O
ATOM     49  HD  A00 X   3      19.700  40.651  89.9300  0.00  0.00     0.000 HD
BRANCH 42 49
ATOM     49   O  A00 X   3      17.510  42.743  88.5270  0.00  0.00     0.000 O
ATOM     50   O  A00 X   3      15.932  40.947  88.6480  0.00  0.00     0.000 OA
ATOM     51   O  A00 X   3      17.491  40.979  86.8710  0.00  0.00     0.000 OA
ATOM     52   O  A00 X   3      15.803  42.633  86.9190  0.00  0.00     0.000 OA
ATOM     53   S  A00 X   3      16.619  41.770  87.7020  0.00  0.00     0.000 S
ENDBRANCH 42 49
BRANCH 45 54
ATOM     54   C  A00 X   3      21.674  44.246  90.4550  0.00  0.00     0.000 C
ATOM     55   O  A00 X   3      22.165  45.338  90.6550  0.00  0.00     0.000 OA
ATOM     56   O  A00 X   3      22.400  43.340  90.0770  0.00  0.00     0.000 OA
ENDBRANCH 45 54
BRANCH 41 57
ATOM     57  O4  A00 X   4      20.433  44.729  87.5850  0.00  0.00     0.000 O
BRANCH 57 61
ATOM     58  C1  A00 X   4      21.702  48.478  85.8610  0.00  0.00     0.000 C
ATOM     59  C2  A00 X   4      22.396  47.985  87.1550  0.00  0.00     0.000 C
ATOM     60  C3  A00 X   4      22.125  46.499  87.4700  0.00  0.00     0.000 C
ATOM     61  C4  A00 X   4      20.624  46.155  87.3620  0.00  0.00     0.000 C
ATOM     62  C5  A00 X   4      20.192  46.535  85.9240  0.00  0.00     0.000 C
ATOM     63  O5  A00 X   4      20.356  47.964  85.7380  0.00  0.00     0.000 O
BRANCH 59 66
ATOM     64   N  A00 X   4      22.459  48.441  88.5550  0.00  0.00     0.000 N
ATOM     66  HD  A00 X   4      21.710  48.630  88.9480  0.00  0.00     0.000 HD
ATOM     66   O  A00 X   4      23.435  50.486  87.7390  0.00  0.00     0.000 OA
ATOM     67   S  A00 X   4      23.425  49.665  88.9100  0.00  0.00     0.000 S
ATOM     68   O  A00 X   4      22.740  50.215  90.0430  0.00  0.00     0.000 OA
ATOM     69   O  A00 X   4      24.627  48.952  89.2380  0.00  0.00     0.000 OA
ENDBRANCH 59 66
BRANCH 62 70
ATOM     70   C  A00 X   4      18.730  46.159  85.5830  0.00  0.00     0.000 C
ATOM     71   O  A00 X   4      15.728  48.136  86.0150  0.00  0.00     0.000 OA
ATOM     72   O  A00 X   4      16.202  45.912  86.6280  0.00  0.00     0.000 OA
ATOM     73   O  A00 X   4      17.903  47.329  85.6870  0.00  0.00     0.000 O
ATOM     74   O  A00 X   4      17.137  47.746  87.9330  0.00  0.00     0.000 OA
ATOM     75   S  A00 X   4      16.678  47.278  86.6650  0.00  0.00     0.000 S
ENDBRANCH 62 70
ENDBRANCH 57 61
ENDBRANCH 41 57
ENDBRANCH 40 44
ENDBRANCH 20 40
ENDBRANCH 19 23
ENDBRANCH 1 19
TORSDOF 14
ENDMDL
MODEL 58
REMARK VINA RESULT:      -2.5     17.524     23.910
ROOT
ATOM      1  C1  A00 X   1      44.117  46.158  63.3060  0.00  0.00     0.000 C
ATOM      2  C2  A00 X   1      44.893  46.117  61.9620  0.00  0.00     0.000 C
ATOM      3  C3  A00 X   1      45.150  44.697  61.3600  0.00  0.00     0.000 C
ATOM      4  C4  A00 X   1      44.935  43.509  62.3340  0.00  0.00     0.000 C
ATOM      5  C5  A00 X   1      45.047  43.935  63.7980  0.00  0.00     0.000 C
ATOM      6  O5  A00 X   1      43.975  44.886  63.9860  0.00  0.00     0.000 O
ATOM      7   O  A00 X   1      46.506  44.623  60.9250  0.00  0.00     0.000 O
ATOM      9  HD  A00 X   1      46.320  43.870  61.3090  0.00  0.00     0.000 HD
ATOM      9   O  A00 X   1      43.677  42.873  62.1110  0.00  0.00     0.000 O
ATOM     11  HD  A00 X   1      43.491  42.119  62.4950  0.00  0.00     0.000 HD
ENDROOT
BRANCH 2 11
ATOM     11   O  A00 X   1      44.156  46.906  61.0070  0.00  0.00     0.000 O
ATOM     12   O  A00 X   1      44.676  46.871  58.6630  0.00  0.00     0.000 OA
ATOM     13   O  A00 X   1      46.322  47.729  60.2340  0.00  0.00     0.000 OA
ATOM     14   O  A00 X   1      44.303  48.920  59.8350  0.00  0.00     0.000 OA
ATOM     15   S  A00 X   1      44.939  47.631  59.8590  0.00  0.00     0.000 S
ENDBRANCH 2 11
BRANCH 5 16
ATOM     16   C  A00 X   1      46.421  44.470  64.2140  0.00  0.00     0.000 C
ATOM     17   O  A00 X   1      46.528  45.022  65.2900  0.00  0.00     0.000 OA
ATOM     18   O  A00 X   1      47.405  44.356  63.5100  0.00  0.00     0.000 OA
ENDBRANCH 5 16
BRANCH 1 19
ATOM     19  O4  A00 X   2      44.604  47.186  64.2040  0.00  0.00     0.000 O
BRANCH 19 23
ATOM     20  C1  A00 X   2      40.695  48.789  64.9210  0.00  0.00     0.000 C
ATOM     21  C2  A00 X   2      41.651  49.612  64.0240  0.00  0.00     0.000 C
ATOM     22  C3  A00 X   2      42.813  48.736  63.5120  0.00  0.00     0.000 C
ATOM     23  C4  A00 X   2      43.539  48.051  64.6920  0.00  0.00     0.000 C
ATOM     24  C5  A00 X   2      42.475  47.280  65.5200  0.00  0.00     0.000 C
ATOM     25  O5  A00 X   2      41.483  48.223  66.0020  0.00  0.00     0.000 O
ATOM     26   O  A00 X   2      43.632  49.524  62.6310  0.00  0.00     0.000 O
ATOM     28  HD  A00 X   2      43.699  50.177  63.1960  0.00  0.00     0.000 HD
BRANCH 21 30
ATOM     28   N  A00 X   2      40.535  50.256  63.3230  0.00  0.00     0.000 N
ATOM     30  HD  A00 X   2      41.042  50.890  63.6260  0.00  0.00     0.000 HD
ATOM     30   O  A00 X   2      41.117  52.484  62.9260  0.00  0.00     0.000 OA
ATOM     31   S  A00 X   2      40.171  51.750  63.6900  0.00  0.00     0.000 S
ATOM     32   O  A00 X   2      38.814  51.883  63.2610  0.00  0.00     0.000 OA
ATOM     33   O  A00 X   2      40.256  51.869  65.1160  0.00  0.00     0.000 OA
ENDBRANCH 21 30
BRANCH 24 34
ATOM     34   C  A00 X   2      42.973  46.320  66.6260  0.00  0.00     0.000 C
ATOM     35   O  A00 X   2      41.407  45.988  69.8970  0.00  0.00     0.000 OA
ATOM     36   O  A00 X   2      42.397  46.653  67.9050  0.00  0.00     0.000 O
ATOM     37   O  A00 X   2      40.261  45.701  67.8480  0.00  0.00     0.000 OA
ATOM     38   S  A00 X   2      41.498  45.534  68.5480  0.00  0.00     0.000 S
ATOM     39   O  A00 X   2      42.200  44.298  68.3700  0.00  0.00     0.000 OA
ENDBRANCH 24 34
BRANCH 20 40
ATOM     40  O4  A00 X   3      40.194  47.733  64.0890  0.00  0.00     0.000 O
BRANCH 40 44
ATOM     41  C1  A00 X   3      38.442  45.222  62.1530  0.00  0.00     0.000 C
ATOM     42  C2  A00 X   3      38.329  46.745  61.9260  0.00  0.00     0.000 C
ATOM     43  C3  A00 X   3      38.013  47.482  63.2530  0.00  0.00     0.000 C
ATOM     44  C4  A00 X   3      38.929  47.117  64.4140  0.00  0.00     0.000 C
ATOM     45  C5  A00 X   3      38.987  45.572  64.5820  0.00  0.00     0.000 C
ATOM     46  O5  A00 X   3      39.277  44.918  63.3040  0.00  0.00     0.000 O
ATOM     47   O  A00 X   3      37.800  48.888  63.1490  0.00  0.00     0.000 O
ATOM     49  HD  A00 X   3      38.241  48.896  63.8950  0.00  0.00     0.000 HD
BRANCH 42 49
ATOM     49   O  A00 X   3      39.586  47.184  61.3660  0.00  0.00     0.000 O
ATOM     50   O  A00 X   3      40.518  49.256  60.6130  0.00  0.00     0.000 OA
ATOM     51   O  A00 X   3      38.274  48.750  60.0680  0.00  0.00     0.000 OA
ATOM     52   O  A00 X   3      39.992  47.470  59.0710  0.00  0.00     0.000 OA
ATOM     53   S  A00 X   3      39.610  48.228  60.2120  0.00  0.00     0.000 S
ENDBRANCH 42 49
BRANCH 45 54
ATOM     54   C  A00 X   3      37.726  45.028  65.2650  0.00  0.00     0.000 C
ATOM     55   O  A00 X   3      37.662  43.866  65.6090  0.00  0.00     0.000 OA
ATOM     56   O  A00 X   3      36.766  45.753  65.4740  0.00  0.00     0.000 OA
ENDBRANCH 45 54
BRANCH 41 57
ATOM     57  O4  A00 X   4      37.143  44.590  62.1870  0.00  0.00     0.000 O
BRANCH 57 61
ATOM     58  C1  A00 X   4      35.680  40.769  60.8080  0.00  0.00     0.000 C
ATOM     59  C2  A00 X   4      36.670  40.798  61.9990  0.00  0.00     0.000 C
ATOM     60  C3  A00 X   4      36.838  42.197  62.6260  0.00  0.00     0.000 C
ATOM     61  C4  A00 X   4      37.075  43.281  61.5530  0.00  0.00     0.000 C
ATOM     62  C5  A00 X   4      35.864  43.214  60.5900  0.00  0.00     0.000 C
ATOM     63  O5  A00 X   4      35.840  41.916  59.9420  0.00  0.00     0.000 O
BRANCH 59 66
ATOM     64   N  A00 X   4      37.967  40.405  61.4170  0.00  0.00     0.000 N
ATOM     66  HD  A00 X   4      38.083  40.543  60.5700  0.00  0.00     0.000 HD
ATOM     66   O  A00 X   4      37.305  38.113  61.7400  0.00  0.00     0.000 OA
ATOM     67   S  A00 X   4      38.487  38.913  61.6630  0.00  0.00     0.000 S
ATOM     68   O  A00 X   4      39.286  38.721  60.4890  0.00  0.00     0.000 OA
ATOM     69   O  A00 X   4      39.246  39.104  62.8670  0.00  0.00     0.000 OA
ENDBRANCH 59 66
BRANCH 62 70
ATOM     70   C  A00 X   4      35.864  44.309  59.4970  0.00  0.00     0.000 C
ATOM     71   O  A00 X   4      37.144  44.128  56.1150  0.00  0.00     0.000 OA
ATOM     72   O  A00 X   4      37.472  45.744  57.7950  0.00  0.00     0.000 OA
ATOM     73   O  A00 X   4      36.244  43.725  58.2400  0.00  0.00     0.000 O
ATOM     74   O  A00 X   4      38.631  43.606  57.9390  0.00  0.00     0.000 OA
ATOM     75   S  A00 X   4      37.484  44.330  57.4950  0.00  0.00     0.000 S
ENDBRANCH 62 70
ENDBRANCH 57 61
ENDBRANCH 41 57
ENDBRANCH 40 44
ENDBRANCH 20 40
ENDBRANCH 19 23
ENDBRANCH 1 19
TORSDOF 14
ENDMDL
MODEL 59
REMARK VINA RESULT:      -2.5     17.361     22.055
ROOT
ATOM      1  C1  A00 X   1      36.588  43.437  61.1110  0.00  0.00     0.000 C
ATOM      2  C2  A00 X   1      37.898  43.669  61.9110  0.00  0.00     0.000 C
ATOM      3  C3  A00 X   1      37.921  43.107  63.3700  0.00  0.00     0.000 C
ATOM      4  C4  A00 X   1      36.540  42.725  63.9610  0.00  0.00     0.000 C
ATOM      5  C5  A00 X   1      35.391  43.449  63.2600  0.00  0.00     0.000 C
ATOM      6  O5  A00 X   1      35.450  42.991  61.8900  0.00  0.00     0.000 O
ATOM      7   O  A00 X   1      38.470  44.100  64.2340  0.00  0.00     0.000 O
ATOM      9  HD  A00 X   1      37.800  43.743  64.6500  0.00  0.00     0.000 HD
ATOM      9   O  A00 X   1      36.324  41.315  63.9110  0.00  0.00     0.000 O
ATOM     11  HD  A00 X   1      35.653  40.957  64.3270  0.00  0.00     0.000 HD
ENDROOT
BRANCH 2 11
ATOM     11   O  A00 X   1      38.978  43.078  61.1630  0.00  0.00     0.000 O
ATOM     12   O  A00 X   1      41.200  42.908  62.0590  0.00  0.00     0.000 OA
ATOM     13   O  A00 X   1      40.242  45.108  61.6600  0.00  0.00     0.000 OA
ATOM     14   O  A00 X   1      40.799  43.688  59.8350  0.00  0.00     0.000 OA
ATOM     15   S  A00 X   1      40.393  43.751  61.2130  0.00  0.00     0.000 S
ENDBRANCH 2 11
BRANCH 5 16
ATOM     16   C  A00 X   1      35.407  44.975  63.3970  0.00  0.00     0.000 C
ATOM     17   O  A00 X   1      34.695  45.631  62.6660  0.00  0.00     0.000 OA
ATOM     18   O  A00 X   1      36.101  45.548  64.2130  0.00  0.00     0.000 OA
ENDBRANCH 5 16
BRANCH 1 19
ATOM     19  O4  A00 X   2      36.240  44.560  60.2650  0.00  0.00     0.000 O
BRANCH 19 23
ATOM     20  C1  A00 X   2      38.443  46.559  57.1790  0.00  0.00     0.000 C
ATOM     21  C2  A00 X   2      38.239  45.031  57.0370  0.00  0.00     0.000 C
ATOM     22  C3  A00 X   2      37.097  44.541  57.9520  0.00  0.00     0.000 C
ATOM     23  C4  A00 X   2      37.344  44.980  59.4130  0.00  0.00     0.000 C
ATOM     24  C5  A00 X   2      37.550  46.520  59.4170  0.00  0.00     0.000 C
ATOM     25  O5  A00 X   2      38.692  46.841  58.5820  0.00  0.00     0.000 O
ATOM     26   O  A00 X   2      36.902  43.133  57.7330  0.00  0.00     0.000 O
ATOM     28  HD  A00 X   2      37.744  42.951  57.8290  0.00  0.00     0.000 HD
BRANCH 21 30
ATOM     28   N  A00 X   2      37.770  43.909  56.2170  0.00  0.00     0.000 N
ATOM     30  HD  A00 X   2      38.504  44.193  55.8570  0.00  0.00     0.000 HD
ATOM     30   O  A00 X   2      39.541  43.203  54.8680  0.00  0.00     0.000 OA
ATOM     31   S  A00 X   2      38.264  43.805  54.7200  0.00  0.00     0.000 S
ATOM     32   O  A00 X   2      37.277  42.981  54.0940  0.00  0.00     0.000 OA
ATOM     33   O  A00 X   2      38.230  45.128  54.1700  0.00  0.00     0.000 OA
ENDBRANCH 21 30
BRANCH 24 34
ATOM     34   C  A00 X   2      37.587  47.243  60.7840  0.00  0.00     0.000 C
ATOM     35   O  A00 X   2      40.142  49.651  61.7490  0.00  0.00     0.000 OA
ATOM     36   O  A00 X   2      38.874  47.849  61.0190  0.00  0.00     0.000 O
ATOM     37   O  A00 X   2      38.805  49.849  59.8080  0.00  0.00     0.000 OA
ATOM     38   S  A00 X   2      38.860  49.414  61.1710  0.00  0.00     0.000 S
ATOM     39   O  A00 X   2      37.746  49.730  62.0130  0.00  0.00     0.000 OA
ENDBRANCH 24 34
BRANCH 20 40
ATOM     40  O4  A00 X   3      37.198  47.154  56.7840  0.00  0.00     0.000 O
BRANCH 40 44
ATOM     41  C1  A00 X   3      34.312  49.296  56.3260  0.00  0.00     0.000 C
ATOM     42  C2  A00 X   3      34.803  48.249  55.3020  0.00  0.00     0.000 C
ATOM     43  C3  A00 X   3      36.317  48.422  55.0140  0.00  0.00     0.000 C
ATOM     44  C4  A00 X   3      37.194  48.498  56.2570  0.00  0.00     0.000 C
ATOM     45  C5  A00 X   3      36.640  49.573  57.2340  0.00  0.00     0.000 C
ATOM     46  O5  A00 X   3      35.208  49.378  57.4690  0.00  0.00     0.000 O
ATOM     47   O  A00 X   3      36.863  47.563  54.0150  0.00  0.00     0.000 O
ATOM     49  HD  A00 X   3      37.535  47.541  54.5610  0.00  0.00     0.000 HD
BRANCH 42 49
ATOM     49   O  A00 X   3      34.517  46.947  55.8580  0.00  0.00     0.000 O
ATOM     50   O  A00 X   3      34.870  44.670  55.2080  0.00  0.00     0.000 OA
ATOM     51   O  A00 X   3      34.171  46.228  53.5730  0.00  0.00     0.000 OA
ATOM     52   O  A00 X   3      32.655  45.636  55.2860  0.00  0.00     0.000 OA
ATOM     53   S  A00 X   3      34.025  45.791  54.9390  0.00  0.00     0.000 S
ENDBRANCH 42 49
BRANCH 45 54
ATOM     54   C  A00 X   3      36.987  50.993  56.7710  0.00  0.00     0.000 C
ATOM     55   O  A00 X   3      37.621  51.174  55.7520  0.00  0.00     0.000 OA
ATOM     56   O  A00 X   3      36.634  51.966  57.4200  0.00  0.00     0.000 OA
ENDBRANCH 45 54
BRANCH 41 57
ATOM     57  O4  A00 X   4      34.042  50.570  55.6990  0.00  0.00     0.000 O
BRANCH 57 61
ATOM     58  C1  A00 X   4      31.013  53.572  56.3690  0.00  0.00     0.000 C
ATOM     59  C2  A00 X   4      31.931  53.170  57.5500  0.00  0.00     0.000 C
ATOM     60  C3  A00 X   4      33.181  52.378  57.1140  0.00  0.00     0.000 C
ATOM     61  C4  A00 X   4      32.823  51.231  56.1440  0.00  0.00     0.000 C
ATOM     62  C5  A00 X   4      32.099  51.886  54.9420  0.00  0.00     0.000 C
ATOM     63  O5  A00 X   4      30.871  52.505  55.4040  0.00  0.00     0.000 O
BRANCH 59 66
ATOM     64   N  A00 X   4      32.195  52.943  58.9820  0.00  0.00     0.000 N
ATOM     66  HD  A00 X   4      32.071  52.143  59.2900  0.00  0.00     0.000 HD
ATOM     66   O  A00 X   4      30.233  54.259  59.4490  0.00  0.00     0.000 OA
ATOM     67   S  A00 X   4      31.483  53.903  60.0450  0.00  0.00     0.000 S
ATOM     68   O  A00 X   4      31.400  53.023  61.1740  0.00  0.00     0.000 OA
ATOM     69   O  A00 X   4      32.482  54.927  60.1690  0.00  0.00     0.000 OA
ENDBRANCH 59 66
BRANCH 62 70
ATOM     70   C  A00 X   4      31.754  50.902  53.7990  0.00  0.00     0.000 C
ATOM     71   O  A00 X   4      30.863  51.643  50.3690  0.00  0.00     0.000 OA
ATOM     72   O  A00 X   4      29.836  50.233  51.9510  0.00  0.00     0.000 OA
ATOM     73   O  A00 X   4      31.708  51.618  52.5540  0.00  0.00     0.000 O
ATOM     74   O  A00 X   4      29.570  52.649  52.1380  0.00  0.00     0.000 OA
ATOM     75   S  A00 X   4      30.382  51.552  51.7190  0.00  0.00     0.000 S
ENDBRANCH 62 70
ENDBRANCH 57 61
ENDBRANCH 41 57
ENDBRANCH 40 44
ENDBRANCH 20 40
ENDBRANCH 19 23
ENDBRANCH 1 19
TORSDOF 14
ENDMDL
MODEL 60
REMARK VINA RESULT:      -2.4     13.394     16.863
ROOT
ATOM      1  C1  A00 X   1      45.448  44.604  40.7680  0.00  0.00     0.000 C
ATOM      2  C2  A00 X   1      45.129  45.156  39.3530  0.00  0.00     0.000 C
ATOM      3  C3  A00 X   1      46.142  46.199  38.7770  0.00  0.00     0.000 C
ATOM      4  C4  A00 X   1      47.118  46.823  39.8080  0.00  0.00     0.000 C
ATOM      5  C5  A00 X   1      46.581  46.736  41.2370  0.00  0.00     0.000 C
ATOM      6  O5  A00 X   1      46.472  45.320  41.5020  0.00  0.00     0.000 O
ATOM      7   O  A00 X   1      45.410  47.281  38.2060  0.00  0.00     0.000 O
ATOM      9  HD  A00 X   1      46.081  47.624  38.6330  0.00  0.00     0.000 HD
ATOM      9   O  A00 X   1      48.408  46.216  39.7400  0.00  0.00     0.000 O
ATOM     11  HD  A00 X   1      49.079  46.559  40.1670  0.00  0.00     0.000 HD
ENDROOT
BRANCH 2 11
ATOM     11   O  A00 X   1      45.047  44.034  38.4530  0.00  0.00     0.000 O
ATOM     12   O  A00 X   1      44.895  44.323  36.0740  0.00  0.00     0.000 OA
ATOM     13   O  A00 X   1      43.091  45.134  37.4890  0.00  0.00     0.000 OA
ATOM     14   O  A00 X   1      43.475  42.799  37.2460  0.00  0.00     0.000 OA
ATOM     15   S  A00 X   1      44.066  44.110  37.2330  0.00  0.00     0.000 S
ENDBRANCH 2 11
BRANCH 5 16
ATOM     16   C  A00 X   1      45.282  47.508  41.4890  0.00  0.00     0.000 C
ATOM     17   O  A00 X   1      44.951  48.364  40.6940  0.00  0.00     0.000 OA
ATOM     18   O  A00 X   1      44.569  47.290  42.4490  0.00  0.00     0.000 OA
ENDBRANCH 5 16
BRANCH 1 19
ATOM     19  O4  A00 X   2      44.261  44.405  41.5740  0.00  0.00     0.000 O
BRANCH 19 23
ATOM     20  C1  A00 X   2      43.398  41.590  44.6880  0.00  0.00     0.000 C
ATOM     21  C2  A00 X   2      44.230  42.840  45.0650  0.00  0.00     0.000 C
ATOM     22  C3  A00 X   2      44.089  43.938  43.9910  0.00  0.00     0.000 C
ATOM     23  C4  A00 X   2      44.443  43.381  42.5930  0.00  0.00     0.000 C
ATOM     24  C5  A00 X   2      43.560  42.128  42.3450  0.00  0.00     0.000 C
ATOM     25  O5  A00 X   2      43.839  41.147  43.3770  0.00  0.00     0.000 O
ATOM     26   O  A00 X   2      44.822  45.099  44.4190  0.00  0.00     0.000 O
ATOM     28  HD  A00 X   2      45.539  44.645  44.5900  0.00  0.00     0.000 HD
BRANCH 21 30
ATOM     28   N  A00 X   2      44.252  43.961  46.0090  0.00  0.00     0.000 N
ATOM     30  HD  A00 X   2      44.548  43.269  46.4360  0.00  0.00     0.000 HD
ATOM     30   O  A00 X   2      45.606  43.364  47.8170  0.00  0.00     0.000 OA
ATOM     31   S  A00 X   2      44.239  43.649  47.5590  0.00  0.00     0.000 S
ATOM     32   O  A00 X   2      43.753  44.860  48.1450  0.00  0.00     0.000 OA
ATOM     33   O  A00 X   2      43.303  42.584  47.7680  0.00  0.00     0.000 OA
ENDBRANCH 21 30
BRANCH 24 34
ATOM     34   C  A00 X   2      43.554  41.515  40.9240  0.00  0.00     0.000 C
ATOM     35   O  A00 X   2      44.180  37.998  40.2170  0.00  0.00     0.000 OA
ATOM     36   O  A00 X   2      44.172  40.212  40.9150  0.00  0.00     0.000 O
ATOM     37   O  A00 X   2      42.502  38.771  41.6940  0.00  0.00     0.000 OA
ATOM     38   S  A00 X   2      43.230  39.027  40.4890  0.00  0.00     0.000 S
ATOM     39   O  A00 X   2      42.491  39.486  39.3510  0.00  0.00     0.000 OA
ENDBRANCH 24 34
BRANCH 20 40
ATOM     40  O4  A00 X   3      42.037  42.039  44.6100  0.00  0.00     0.000 O
BRANCH 40 44
ATOM     41  C1  A00 X   3      38.550  42.448  43.7160  0.00  0.00     0.000 C
ATOM     42  C2  A00 X   3      39.192  42.969  45.0200  0.00  0.00     0.000 C
ATOM     43  C3  A00 X   3      39.985  41.846  45.7360  0.00  0.00     0.000 C
ATOM     44  C4  A00 X   3      40.968  41.098  44.8450  0.00  0.00     0.000 C
ATOM     45  C5  A00 X   3      40.250  40.602  43.5590  0.00  0.00     0.000 C
ATOM     46  O5  A00 X   3      39.506  41.691  42.9220  0.00  0.00     0.000 O
ATOM     47   O  A00 X   3      40.550  42.190  47.0000  0.00  0.00     0.000 O
ATOM     49  HD  A00 X   3      41.209  41.709  46.7100  0.00  0.00     0.000 HD
BRANCH 42 49
ATOM     49   O  A00 X   3      40.050  44.073  44.6580  0.00  0.00     0.000 O
ATOM     50   O  A00 X   3      41.532  45.563  45.8040  0.00  0.00     0.000 OA
ATOM     51   O  A00 X   3      39.460  45.023  46.8050  0.00  0.00     0.000 OA
ATOM     52   O  A00 X   3      39.454  46.337  44.8400  0.00  0.00     0.000 OA
ATOM     53   S  A00 X   3      40.141  45.330  45.5720  0.00  0.00     0.000 S
ENDBRANCH 42 49
BRANCH 45 54
ATOM     54   C  A00 X   3      39.389  39.362  43.8320  0.00  0.00     0.000 C
ATOM     55   O  A00 X   3      39.049  39.082  44.9630  0.00  0.00     0.000 OA
ATOM     56   O  A00 X   3      39.031  38.636  42.9180  0.00  0.00     0.000 OA
ENDBRANCH 45 54
BRANCH 41 57
ATOM     57  O4  A00 X   4      37.314  41.745  43.9730  0.00  0.00     0.000 O
BRANCH 57 61
ATOM     58  C1  A00 X   4      33.964  40.792  41.4210  0.00  0.00     0.000 C
ATOM     59  C2  A00 X   4      35.016  39.691  41.7060  0.00  0.00     0.000 C
ATOM     60  C3  A00 X   4      35.947  40.022  42.8910  0.00  0.00     0.000 C
ATOM     61  C4  A00 X   4      36.511  41.455  42.7930  0.00  0.00     0.000 C
ATOM     62  C5  A00 X   4      35.288  42.402  42.7300  0.00  0.00     0.000 C
ATOM     63  O5  A00 X   4      34.526  42.119  41.5280  0.00  0.00     0.000 O
BRANCH 59 66
ATOM     64   N  A00 X   4      35.579  39.937  40.3660  0.00  0.00     0.000 N
ATOM     66  HD  A00 X   4      35.344  40.666  39.9620  0.00  0.00     0.000 HD
ATOM     66   O  A00 X   4      34.198  38.134  39.5650  0.00  0.00     0.000 OA
ATOM     67   S  A00 X   4      35.431  38.791  39.2600  0.00  0.00     0.000 S
ATOM     68   O  A00 X   4      35.429  39.583  38.0660  0.00  0.00     0.000 OA
ATOM     69   O  A00 X   4      36.649  38.065  39.4830  0.00  0.00     0.000 OA
ENDBRANCH 59 66
BRANCH 62 70
ATOM     70   C  A00 X   4      35.651  43.906  42.7390  0.00  0.00     0.000 C
ATOM     71   O  A00 X   4      36.796  45.972  39.9940  0.00  0.00     0.000 OA
ATOM     72   O  A00 X   4      37.645  45.710  42.1750  0.00  0.00     0.000 OA
ATOM     73   O  A00 X   4      35.814  44.363  41.3860  0.00  0.00     0.000 O
ATOM     74   O  A00 X   4      38.026  43.965  40.5170  0.00  0.00     0.000 OA
ATOM     75   S  A00 X   4      37.185  45.016  40.9930  0.00  0.00     0.000 S
ENDBRANCH 62 70
ENDBRANCH 57 61
ENDBRANCH 41 57
ENDBRANCH 40 44
ENDBRANCH 20 40
ENDBRANCH 19 23
ENDBRANCH 1 19
TORSDOF 14
ENDMDL
MODEL 61
REMARK VINA RESULT:      -2.4     29.634     34.446
ROOT
ATOM      1  C1  A00 X   1      17.192  47.307  30.5670  0.00  0.00     0.000 C
ATOM      2  C2  A00 X   1      17.761  48.565  29.8570  0.00  0.00     0.000 C
ATOM      3  C3  A00 X   1      18.769  49.426  30.6870  0.00  0.00     0.000 C
ATOM      4  C4  A00 X   1      18.795  49.142  32.2110  0.00  0.00     0.000 C
ATOM      5  C5  A00 X   1      17.499  48.494  32.6990  0.00  0.00     0.000 C
ATOM      6  O5  A00 X   1      17.430  47.234  31.9950  0.00  0.00     0.000 O
ATOM      7   O  A00 X   1      18.425  50.802  30.5380  0.00  0.00     0.000 O
ATOM      9  HD  A00 X   1      18.631  50.679  31.3700  0.00  0.00     0.000 HD
ATOM      9   O  A00 X   1      19.908  48.323  32.5690  0.00  0.00     0.000 O
ATOM     11  HD  A00 X   1      20.114  48.200  33.4020  0.00  0.00     0.000 HD
ENDROOT
BRANCH 2 11
ATOM     11   O  A00 X   1      18.405  48.129  28.6430  0.00  0.00     0.000 O
ATOM     12   O  A00 X   1      19.262  45.900  28.3900  0.00  0.00     0.000 OA
ATOM     13   O  A00 X   1      20.242  47.369  30.0620  0.00  0.00     0.000 OA
ATOM     14   O  A00 X   1      20.537  47.816  27.7450  0.00  0.00     0.000 OA
ATOM     15   S  A00 X   1      19.685  47.231  28.7450  0.00  0.00     0.000 S
ENDBRANCH 2 11
BRANCH 5 16
ATOM     16   C  A00 X   1      16.243  49.357  32.5370  0.00  0.00     0.000 C
ATOM     17   O  A00 X   1      15.158  48.841  32.7110  0.00  0.00     0.000 OA
ATOM     18   O  A00 X   1      16.295  50.536  32.2480  0.00  0.00     0.000 OA
ENDBRANCH 5 16
BRANCH 1 19
ATOM     19  O4  A00 X   2      15.800  47.065  30.2500  0.00  0.00     0.000 O
BRANCH 19 23
ATOM     20  C1  A00 X   2      13.699  47.297  26.5220  0.00  0.00     0.000 C
ATOM     21  C2  A00 X   2      15.025  46.499  26.5470  0.00  0.00     0.000 C
ATOM     22  C3  A00 X   2      15.425  46.142  27.9940  0.00  0.00     0.000 C
ATOM     23  C4  A00 X   2      15.472  47.411  28.8740  0.00  0.00     0.000 C
ATOM     24  C5  A00 X   2      14.099  48.126  28.7490  0.00  0.00     0.000 C
ATOM     25  O5  A00 X   2      13.877  48.472  27.3570  0.00  0.00     0.000 O
ATOM     26   O  A00 X   2      16.621  45.345  27.9580  0.00  0.00     0.000 O
ATOM     28  HD  A00 X   2      17.036  45.901  27.4400  0.00  0.00     0.000 HD
BRANCH 21 30
ATOM     28   N  A00 X   2      15.264  46.949  25.1720  0.00  0.00     0.000 N
ATOM     30  HD  A00 X   2      15.813  46.296  25.3210  0.00  0.00     0.000 HD
ATOM     30   O  A00 X   2      16.483  45.291  24.0660  0.00  0.00     0.000 OA
ATOM     31   S  A00 X   2      16.660  46.630  24.5020  0.00  0.00     0.000 S
ATOM     32   O  A00 X   2      16.761  47.598  23.4530  0.00  0.00     0.000 OA
ATOM     33   O  A00 X   2      17.668  46.863  25.4920  0.00  0.00     0.000 OA
ENDBRANCH 21 30
BRANCH 24 34
ATOM     34   C  A00 X   2      13.803  49.301  29.7110  0.00  0.00     0.000 C
ATOM     35   O  A00 X   2      11.956  52.294  28.7690  0.00  0.00     0.000 OA
ATOM     36   O  A00 X   2      13.380  50.475  28.9880  0.00  0.00     0.000 O
ATOM     37   O  A00 X   2      11.117  50.095  28.5340  0.00  0.00     0.000 OA
ATOM     38   S  A00 X   2      11.927  50.978  29.3170  0.00  0.00     0.000 S
ATOM     39   O  A00 X   2      11.790  50.917  30.7410  0.00  0.00     0.000 OA
ENDBRANCH 24 34
BRANCH 20 40
ATOM     40  O4  A00 X   3      12.716  46.434  27.1120  0.00  0.00     0.000 O
BRANCH 40 44
ATOM     41  C1  A00 X   3       9.987  44.204  27.9500  0.00  0.00     0.000 C
ATOM     42  C2  A00 X   3      10.918  44.036  26.7300  0.00  0.00     0.000 C
ATOM     43  C3  A00 X   3      11.008  45.352  25.9150  0.00  0.00     0.000 C
ATOM     44  C4  A00 X   3      11.328  46.589  26.7440  0.00  0.00     0.000 C
ATOM     45  C5  A00 X   3      10.349  46.692  27.9470  0.00  0.00     0.000 C
ATOM     46  O5  A00 X   3      10.287  45.426  28.6800  0.00  0.00     0.000 O
ATOM     47   O  A00 X   3      11.775  45.289  24.7140  0.00  0.00     0.000 O
ATOM     49  HD  A00 X   3      12.026  46.078  24.9660  0.00  0.00     0.000 HD
BRANCH 42 49
ATOM     49   O  A00 X   3      12.211  43.638  27.2360  0.00  0.00     0.000 O
ATOM     50   O  A00 X   3      14.352  43.118  26.3010  0.00  0.00     0.000 OA
ATOM     51   O  A00 X   3      12.410  42.311  25.2220  0.00  0.00     0.000 OA
ATOM     52   O  A00 X   3      12.976  41.421  27.3360  0.00  0.00     0.000 OA
ATOM     53   S  A00 X   3      13.050  42.561  26.4890  0.00  0.00     0.000 S
ENDBRANCH 42 49
BRANCH 45 54
ATOM     54   C  A00 X   3       8.970  47.206  27.5140  0.00  0.00     0.000 C
ATOM     55   O  A00 X   3       8.059  47.282  28.3130  0.00  0.00     0.000 OA
ATOM     56   O  A00 X   3       8.765  47.548  26.3590  0.00  0.00     0.000 OA
ENDBRANCH 45 54
BRANCH 41 57
ATOM     57  O4  A00 X   4       8.596  44.066  27.5840  0.00  0.00     0.000 O
BRANCH 57 61
ATOM     58  C1  A00 X   4       5.210  42.222  29.5270  0.00  0.00     0.000 C
ATOM     59  C2  A00 X   4       5.906  43.417  30.2260  0.00  0.00     0.000 C
ATOM     60  C3  A00 X   4       6.847  44.210  29.2960  0.00  0.00     0.000 C
ATOM     61  C4  A00 X   4       7.789  43.278  28.5040  0.00  0.00     0.000 C
ATOM     62  C5  A00 X   4       6.877  42.303  27.7180  0.00  0.00     0.000 C
ATOM     63  O5  A00 X   4       6.113  41.503  28.6560  0.00  0.00     0.000 O
BRANCH 59 66
ATOM     64   N  A00 X   4       5.515  44.517  31.1250  0.00  0.00     0.000 N
ATOM     66  HD  A00 X   4       6.149  44.977  31.4940  0.00  0.00     0.000 HD
ATOM     66   O  A00 X   4       4.771  42.842  32.6880  0.00  0.00     0.000 OA
ATOM     67   S  A00 X   4       4.498  44.196  32.3180  0.00  0.00     0.000 S
ATOM     68   O  A00 X   4       4.896  45.189  33.2720  0.00  0.00     0.000 OA
ATOM     69   O  A00 X   4       3.249  44.473  31.6670  0.00  0.00     0.000 OA
ENDBRANCH 59 66
BRANCH 62 70
ATOM     70   C  A00 X   4       7.642  41.349  26.7690  0.00  0.00     0.000 C
ATOM     71   O  A00 X   4       6.383  38.488  24.9430  0.00  0.00     0.000 OA
ATOM     72   O  A00 X   4       8.285  38.719  26.3120  0.00  0.00     0.000 OA
ATOM     73   O  A00 X   4       6.700  40.513  26.0770  0.00  0.00     0.000 O
ATOM     74   O  A00 X   4       6.078  38.554  27.3340  0.00  0.00     0.000 OA
ATOM     75   S  A00 X   4       6.862  38.959  26.2120  0.00  0.00     0.000 S
ENDBRANCH 62 70
ENDBRANCH 57 61
ENDBRANCH 41 57
ENDBRANCH 40 44
ENDBRANCH 20 40
ENDBRANCH 19 23
ENDBRANCH 1 19
TORSDOF 14
ENDMDL
MODEL 62
REMARK VINA RESULT:      -2.4     29.977     35.604
ROOT
ATOM      1  C1  A00 X   1      17.458  49.142  30.8120  0.00  0.00     0.000 C
ATOM      2  C2  A00 X   1      18.887  48.994  31.4000  0.00  0.00     0.000 C
ATOM      3  C3  A00 X   1      19.089  47.837  32.4320  0.00  0.00     0.000 C
ATOM      4  C4  A00 X   1      17.788  47.225  33.0130  0.00  0.00     0.000 C
ATOM      5  C5  A00 X   1      16.602  48.184  32.9080  0.00  0.00     0.000 C
ATOM      6  O5  A00 X   1      16.422  48.390  31.4890  0.00  0.00     0.000 O
ATOM      7   O  A00 X   1      19.831  48.337  33.5420  0.00  0.00     0.000 O
ATOM      9  HD  A00 X   1      19.207  47.829  33.8610  0.00  0.00     0.000 HD
ATOM      9   O  A00 X   1      17.465  45.987  32.3800  0.00  0.00     0.000 O
ATOM     11  HD  A00 X   1      16.841  45.479  32.6990  0.00  0.00     0.000 HD
ENDROOT
BRANCH 2 11
ATOM     11   O  A00 X   1      19.797  48.805  30.2990  0.00  0.00     0.000 O
ATOM     12   O  A00 X   1      22.156  48.507  30.6380  0.00  0.00     0.000 OA
ATOM     13   O  A00 X   1      21.120  50.615  31.2710  0.00  0.00     0.000 OA
ATOM     14   O  A00 X   1      21.306  50.003  28.9800  0.00  0.00     0.000 OA
ATOM     15   S  A00 X   1      21.187  49.529  30.3320  0.00  0.00     0.000 S
ENDBRANCH 2 11
BRANCH 5 16
ATOM     16   C  A00 X   1      16.749  49.485  33.7030  0.00  0.00     0.000 C
ATOM     17   O  A00 X   1      17.510  49.506  34.6480  0.00  0.00     0.000 OA
ATOM     18   O  A00 X   1      16.137  50.495  33.4170  0.00  0.00     0.000 OA
ENDBRANCH 5 16
BRANCH 1 19
ATOM     19  O4  A00 X   2      17.070  50.525  30.6220  0.00  0.00     0.000 O
BRANCH 19 23
ATOM     20  C1  A00 X   2      14.391  52.370  27.8320  0.00  0.00     0.000 C
ATOM     21  C2  A00 X   2      13.777  51.430  28.8970  0.00  0.00     0.000 C
ATOM     22  C3  A00 X   2      14.764  51.199  30.0610  0.00  0.00     0.000 C
ATOM     23  C4  A00 X   2      16.124  50.694  29.5280  0.00  0.00     0.000 C
ATOM     24  C5  A00 X   2      16.621  51.707  28.4600  0.00  0.00     0.000 C
ATOM     25  O5  A00 X   2      15.642  51.778  27.3910  0.00  0.00     0.000 O
ATOM     26   O  A00 X   2      14.123  50.379  31.0530  0.00  0.00     0.000 O
ATOM     28  HD  A00 X   2      13.873  49.786  30.4740  0.00  0.00     0.000 HD
BRANCH 21 30
ATOM     28   N  A00 X   2      13.014  50.531  29.7680  0.00  0.00     0.000 N
ATOM     30  HD  A00 X   2      12.437  51.010  29.3360  0.00  0.00     0.000 HD
ATOM     30   O  A00 X   2      10.799  50.504  29.0260  0.00  0.00     0.000 OA
ATOM     31   S  A00 X   2      11.536  50.929  30.1630  0.00  0.00     0.000 S
ATOM     32   O  A00 X   2      11.291  50.180  31.3560  0.00  0.00     0.000 OA
ATOM     33   O  A00 X   2      11.538  52.333  30.4480  0.00  0.00     0.000 OA
ENDBRANCH 21 30
BRANCH 24 34
ATOM     34   C  A00 X   2      18.068  51.556  27.9360  0.00  0.00     0.000 C
ATOM     35   O  A00 X   2      19.303  48.622  26.1690  0.00  0.00     0.000 OA
ATOM     36   O  A00 X   2      18.365  50.185  27.6060  0.00  0.00     0.000 O
ATOM     37   O  A00 X   2      17.419  49.878  25.4890  0.00  0.00     0.000 OA
ATOM     38   S  A00 X   2      18.714  49.918  26.0960  0.00  0.00     0.000 S
ATOM     39   O  A00 X   2      19.602  50.967  25.6950  0.00  0.00     0.000 OA
ENDBRANCH 24 34
BRANCH 20 40
ATOM     40  O4  A00 X   3      14.658  53.605  28.5110  0.00  0.00     0.000 O
BRANCH 40 44
ATOM     41  C1  A00 X   3      17.421  55.825  27.7600  0.00  0.00     0.000 C
ATOM     42  C2  A00 X   3      16.595  55.858  29.0640  0.00  0.00     0.000 C
ATOM     43  C3  A00 X   3      15.076  55.904  28.7580  0.00  0.00     0.000 C
ATOM     44  C4  A00 X   3      14.596  54.845  27.7740  0.00  0.00     0.000 C
ATOM     45  C5  A00 X   3      15.471  54.877  26.4890  0.00  0.00     0.000 C
ATOM     46  O5  A00 X   3      16.895  54.843  26.8250  0.00  0.00     0.000 O
ATOM     47   O  A00 X   3      14.216  56.024  29.8900  0.00  0.00     0.000 O
ATOM     49  HD  A00 X   3      13.727  55.472  29.4360  0.00  0.00     0.000 HD
BRANCH 42 49
ATOM     49   O  A00 X   3      16.946  54.677  29.8180  0.00  0.00     0.000 O
ATOM     50   O  A00 X   3      16.772  53.958  32.0950  0.00  0.00     0.000 OA
ATOM     51   O  A00 X   3      17.428  56.185  31.6480  0.00  0.00     0.000 OA
ATOM     52   O  A00 X   3      18.913  54.438  31.0780  0.00  0.00     0.000 OA
ATOM     53   S  A00 X   3      17.550  54.806  31.2470  0.00  0.00     0.000 S
ENDBRANCH 42 49
BRANCH 45 54
ATOM     54   C  A00 X   3      15.095  56.050  25.5760  0.00  0.00     0.000 C
ATOM     55   O  A00 X   3      15.541  56.126  24.4500  0.00  0.00     0.000 OA
ATOM     56   O  A00 X   3      14.341  56.929  25.9650  0.00  0.00     0.000 OA
ENDBRANCH 45 54
BRANCH 41 57
ATOM     57  O4  A00 X   4      17.581  57.146  27.1960  0.00  0.00     0.000 O
BRANCH 57 61
ATOM     58  C1  A00 X   4      20.660  58.839  24.6880  0.00  0.00     0.000 C
ATOM     59  C2  A00 X   4      19.323  58.410  24.0330  0.00  0.00     0.000 C
ATOM     60  C3  A00 X   4      18.191  58.165  25.0510  0.00  0.00     0.000 C
ATOM     61  C4  A00 X   4      18.657  57.277  26.2250  0.00  0.00     0.000 C
ATOM     62  C5  A00 X   4      19.870  58.000  26.8630  0.00  0.00     0.000 C
ATOM     63  O5  A00 X   4      20.941  58.085  25.8890  0.00  0.00     0.000 O
BRANCH 59 66
ATOM     64   N  A00 X   4      19.139  57.230  23.1700  0.00  0.00     0.000 N
ATOM     66  HD  A00 X   4      19.567  56.508  23.3840  0.00  0.00     0.000 HD
ATOM     66   O  A00 X   4      20.396  58.395  21.4790  0.00  0.00     0.000 OA
ATOM     67   S  A00 X   4      19.381  57.396  21.5980  0.00  0.00     0.000 S
ATOM     68   O  A00 X   4      19.784  56.063  21.2560  0.00  0.00     0.000 OA
ATOM     69   O  A00 X   4      18.053  57.737  21.1720  0.00  0.00     0.000 OA
ENDBRANCH 59 66
BRANCH 62 70
ATOM     70   C  A00 X   4      20.416  57.313  28.1370  0.00  0.00     0.000 C
ATOM     71   O  A00 X   4      23.722  55.965  28.7380  0.00  0.00     0.000 OA
ATOM     72   O  A00 X   4      21.594  55.022  29.0900  0.00  0.00     0.000 OA
ATOM     73   O  A00 X   4      21.841  57.162  28.0220  0.00  0.00     0.000 O
ATOM     74   O  A00 X   4      22.484  55.171  26.8270  0.00  0.00     0.000 OA
ATOM     75   S  A00 X   4      22.438  55.718  28.1450  0.00  0.00     0.000 S
ENDBRANCH 62 70
ENDBRANCH 57 61
ENDBRANCH 41 57
ENDBRANCH 40 44
ENDBRANCH 20 40
ENDBRANCH 19 23
ENDBRANCH 1 19
TORSDOF 14
ENDMDL
MODEL 63
REMARK VINA RESULT:      -2.4     13.998     17.427
ROOT
ATOM      1  C1  A00 X   1      45.342  44.474  40.4910  0.00  0.00     0.000 C
ATOM      2  C2  A00 X   1      45.196  45.103  39.0790  0.00  0.00     0.000 C
ATOM      3  C3  A00 X   1      46.379  46.009  38.6050  0.00  0.00     0.000 C
ATOM      4  C4  A00 X   1      47.361  46.463  39.7160  0.00  0.00     0.000 C
ATOM      5  C5  A00 X   1      46.723  46.414  41.1040  0.00  0.00     0.000 C
ATOM      6  O5  A00 X   1      46.404  45.020  41.3120  0.00  0.00     0.000 O
ATOM      7   O  A00 X   1      45.843  47.197  38.0280  0.00  0.00     0.000 O
ATOM      9  HD  A00 X   1      46.525  47.432  38.5070  0.00  0.00     0.000 HD
ATOM      9   O  A00 X   1      48.557  45.684  39.7060  0.00  0.00     0.000 O
ATOM     11  HD  A00 X   1      49.239  45.918  40.1860  0.00  0.00     0.000 HD
ENDROOT
BRANCH 2 11
ATOM     11   O  A00 X   1      45.021  44.027  38.1360  0.00  0.00     0.000 O
ATOM     12   O  A00 X   1      45.151  44.384  35.7650  0.00  0.00     0.000 OA
ATOM     13   O  A00 X   1      43.374  45.455  37.0340  0.00  0.00     0.000 OA
ATOM     14   O  A00 X   1      43.394  43.094  36.7460  0.00  0.00     0.000 OA
ATOM     15   S  A00 X   1      44.189  44.289  36.8340  0.00  0.00     0.000 S
ENDBRANCH 2 11
BRANCH 5 16
ATOM     16   C  A00 X   1      45.529  47.353  41.3020  0.00  0.00     0.000 C
ATOM     17   O  A00 X   1      44.837  47.213  42.2900  0.00  0.00     0.000 OA
ATOM     18   O  A00 X   1      45.255  48.234  40.5130  0.00  0.00     0.000 OA
ENDBRANCH 5 16
BRANCH 1 19
ATOM     19  O4  A00 X   2      44.088  44.422  41.2140  0.00  0.00     0.000 O
BRANCH 19 23
ATOM     20  C1  A00 X   2      42.355  41.370  43.6740  0.00  0.00     0.000 C
ATOM     21  C2  A00 X   2      43.509  42.206  44.2790  0.00  0.00     0.000 C
ATOM     22  C3  A00 X   2      43.725  43.506  43.4760  0.00  0.00     0.000 C
ATOM     23  C4  A00 X   2      43.934  43.191  41.9780  0.00  0.00     0.000 C
ATOM     24  C5  A00 X   2      42.727  42.339  41.4990  0.00  0.00     0.000 C
ATOM     25  O5  A00 X   2      42.678  41.117  42.2810  0.00  0.00     0.000 O
ATOM     26   O  A00 X   2      44.757  44.277  44.1160  0.00  0.00     0.000 O
ATOM     28  HD  A00 X   2      45.304  43.606  44.1530  0.00  0.00     0.000 HD
BRANCH 21 30
ATOM     28   N  A00 X   2      43.829  43.033  45.4470  0.00  0.00     0.000 N
ATOM     30  HD  A00 X   2      43.903  42.207  45.6960  0.00  0.00     0.000 HD
ATOM     30   O  A00 X   2      44.909  41.684  47.0190  0.00  0.00     0.000 OA
ATOM     31   S  A00 X   2      43.689  42.397  46.8870  0.00  0.00     0.000 S
ATOM     32   O  A00 X   2      43.557  43.533  47.7470  0.00  0.00     0.000 OA
ATOM     33   O  A00 X   2      42.481  41.626  46.8940  0.00  0.00     0.000 OA
ENDBRANCH 21 30
BRANCH 24 34
ATOM     34   C  A00 X   2      42.576  42.083  39.9810  0.00  0.00     0.000 C
ATOM     35   O  A00 X   2      42.178  38.782  38.4970  0.00  0.00     0.000 OA
ATOM     36   O  A00 X   2      42.792  40.694  39.6610  0.00  0.00     0.000 O
ATOM     37   O  A00 X   2      40.761  39.655  40.1780  0.00  0.00     0.000 OA
ATOM     38   S  A00 X   2      41.559  39.952  39.0280  0.00  0.00     0.000 S
ATOM     39   O  A00 X   2      41.008  40.843  38.0510  0.00  0.00     0.000 OA
ENDBRANCH 24 34
BRANCH 20 40
ATOM     40  O4  A00 X   3      41.190  42.204  43.7520  0.00  0.00     0.000 O
BRANCH 40 44
ATOM     41  C1  A00 X   3      38.014  43.819  43.0980  0.00  0.00     0.000 C
ATOM     42  C2  A00 X   3      38.727  43.802  44.4670  0.00  0.00     0.000 C
ATOM     43  C3  A00 X   3      39.127  42.358  44.8660  0.00  0.00     0.000 C
ATOM     44  C4  A00 X   3      39.884  41.590  43.7890  0.00  0.00     0.000 C
ATOM     45  C5  A00 X   3      39.103  41.649  42.4460  0.00  0.00     0.000 C
ATOM     46  O5  A00 X   3      38.737  43.028  42.1150  0.00  0.00     0.000 O
ATOM     47   O  A00 X   3      39.717  42.209  46.1560  0.00  0.00     0.000 O
ATOM     49  HD  A00 X   3      40.218  41.640  45.7370  0.00  0.00     0.000 HD
BRANCH 42 49
ATOM     49   O  A00 X   3      39.884  44.658  44.3530  0.00  0.00     0.000 O
ATOM     50   O  A00 X   3      41.682  45.340  45.7790  0.00  0.00     0.000 OA
ATOM     51   O  A00 X   3      39.499  45.215  46.6770  0.00  0.00     0.000 OA
ATOM     52   O  A00 X   3      39.965  46.891  45.0760  0.00  0.00     0.000 OA
ATOM     53   S  A00 X   3      40.296  45.585  45.5340  0.00  0.00     0.000 S
ENDBRANCH 42 49
BRANCH 45 54
ATOM     54   C  A00 X   3      37.907  40.690  42.4420  0.00  0.00     0.000 C
ATOM     55   O  A00 X   3      37.496  40.208  43.4780  0.00  0.00     0.000 OA
ATOM     56   O  A00 X   3      37.348  40.392  41.3980  0.00  0.00     0.000 OA
ENDBRANCH 45 54
BRANCH 41 57
ATOM     57  O4  A00 X   4      36.616  43.471  43.2190  0.00  0.00     0.000 O
BRANCH 57 61
ATOM     58  C1  A00 X   4      33.272  44.334  40.6290  0.00  0.00     0.000 C
ATOM     59  C2  A00 X   4      33.789  42.876  40.7110  0.00  0.00     0.000 C
ATOM     60  C3  A00 X   4      34.725  42.623  41.9100  0.00  0.00     0.000 C
ATOM     61  C4  A00 X   4      35.815  43.710  42.0270  0.00  0.00     0.000 C
ATOM     62  C5  A00 X   4      35.070  45.063  42.1440  0.00  0.00     0.000 C
ATOM     63  O5  A00 X   4      34.309  45.295  40.9310  0.00  0.00     0.000 O
BRANCH 59 66
ATOM     64   N  A00 X   4      33.098  41.576  40.6400  0.00  0.00     0.000 N
ATOM     66  HD  A00 X   4      33.588  40.862  40.6350  0.00  0.00     0.000 HD
ATOM     66   O  A00 X   4      32.512  42.124  38.3700  0.00  0.00     0.000 OA
ATOM     67   S  A00 X   4      32.032  41.348  39.4700  0.00  0.00     0.000 S
ATOM     68   O  A00 X   4      32.124  39.926  39.3090  0.00  0.00     0.000 OA
ATOM     69   O  A00 X   4      30.835  41.789  40.1280  0.00  0.00     0.000 OA
ENDBRANCH 59 66
BRANCH 62 70
ATOM     70   C  A00 X   4      35.998  46.277  42.3820  0.00  0.00     0.000 C
ATOM     71   O  A00 X   4      37.974  48.120  39.9720  0.00  0.00     0.000 OA
ATOM     72   O  A00 X   4      38.563  47.205  42.0600  0.00  0.00     0.000 OA
ATOM     73   O  A00 X   4      36.382  46.837  41.1160  0.00  0.00     0.000 O
ATOM     74   O  A00 X   4      38.288  45.735  40.1370  0.00  0.00     0.000 OA
ATOM     75   S  A00 X   4      37.913  46.945  40.7950  0.00  0.00     0.000 S
ENDBRANCH 62 70
ENDBRANCH 57 61
ENDBRANCH 41 57
ENDBRANCH 40 44
ENDBRANCH 20 40
ENDBRANCH 19 23
ENDBRANCH 1 19
TORSDOF 14
ENDMDL
MODEL 64
REMARK VINA RESULT:      -2.1     31.319     34.906
ROOT
ATOM      1  C1  A00 X   1      41.264  53.701  75.7620  0.00  0.00     0.000 C
ATOM      2  C2  A00 X   1      42.448  54.073  74.8300  0.00  0.00     0.000 C
ATOM      3  C3  A00 X   1      43.479  55.099  75.4060  0.00  0.00     0.000 C
ATOM      4  C4  A00 X   1      43.012  55.887  76.6570  0.00  0.00     0.000 C
ATOM      5  C5  A00 X   1      41.489  55.930  76.7760  0.00  0.00     0.000 C
ATOM      6  O5  A00 X   1      41.092  54.549  76.9250  0.00  0.00     0.000 O
ATOM      7   O  A00 X   1      43.769  56.069  74.4020  0.00  0.00     0.000 O
ATOM      9  HD  A00 X   1      43.695  56.494  75.1530  0.00  0.00     0.000 HD
ATOM      9   O  A00 X   1      43.574  55.347  77.8530  0.00  0.00     0.000 O
ATOM     11  HD  A00 X   1      43.500  55.771  78.6040  0.00  0.00     0.000 HD
ENDROOT
BRANCH 2 11
ATOM     11   O  A00 X   1      43.138  52.855  74.4900  0.00  0.00     0.000 O
ATOM     12   O  A00 X   1      45.302  52.870  73.4480  0.00  0.00     0.000 OA
ATOM     13   O  A00 X   1      43.398  53.799  72.2520  0.00  0.00     0.000 OA
ATOM     14   O  A00 X   1      43.539  51.460  72.6610  0.00  0.00     0.000 OA
ATOM     15   S  A00 X   1      43.901  52.773  73.1230  0.00  0.00     0.000 S
ENDBRANCH 2 11
BRANCH 5 16
ATOM     16   C  A00 X   1      40.770  56.654  75.6320  0.00  0.00     0.000 C
ATOM     17   O  A00 X   1      41.415  57.389  74.9140  0.00  0.00     0.000 OA
ATOM     18   O  A00 X   1      39.583  56.513  75.4160  0.00  0.00     0.000 OA
ENDBRANCH 5 16
BRANCH 1 19
ATOM     19  O4  A00 X   2      40.018  53.529  75.0450  0.00  0.00     0.000 O
BRANCH 19 23
ATOM     20  C1  A00 X   2      37.841  49.995  73.9790  0.00  0.00     0.000 C
ATOM     21  C2  A00 X   2      38.201  50.189  75.4720  0.00  0.00     0.000 C
ATOM     22  C3  A00 X   2      38.577  51.658  75.7590  0.00  0.00     0.000 C
ATOM     23  C4  A00 X   2      39.699  52.128  74.8060  0.00  0.00     0.000 C
ATOM     24  C5  A00 X   2      39.226  51.864  73.3500  0.00  0.00     0.000 C
ATOM     25  O5  A00 X   2      38.976  50.443  73.1910  0.00  0.00     0.000 O
ATOM     26   O  A00 X   2      38.835  51.801  77.1670  0.00  0.00     0.000 O
ATOM     28  HD  A00 X   2      39.376  51.125  77.1880  0.00  0.00     0.000 HD
BRANCH 21 30
ATOM     28   N  A00 X   2      38.357  48.736  75.5820  0.00  0.00     0.000 N
ATOM     30  HD  A00 X   2      38.304  49.044  76.3900  0.00  0.00     0.000 HD
ATOM     30   O  A00 X   2      37.760  48.103  77.7510  0.00  0.00     0.000 OA
ATOM     31   S  A00 X   2      38.919  48.133  76.9310  0.00  0.00     0.000 S
ATOM     32   O  A00 X   2      39.420  46.850  76.5460  0.00  0.00     0.000 OA
ATOM     33   O  A00 X   2      39.994  48.980  77.3570  0.00  0.00     0.000 OA
ENDBRANCH 21 30
BRANCH 24 34
ATOM     34   C  A00 X   2      40.068  52.455  72.1950  0.00  0.00     0.000 C
ATOM     35   O  A00 X   2      40.852  50.670  69.1200  0.00  0.00     0.000 OA
ATOM     36   O  A00 X   2      40.507  51.425  71.2880  0.00  0.00     0.000 O
ATOM     37   O  A00 X   2      38.654  51.026  69.9170  0.00  0.00     0.000 OA
ATOM     38   S  A00 X   2      39.979  51.559  69.8130  0.00  0.00     0.000 S
ATOM     39   O  A00 X   2      40.112  52.940  69.4590  0.00  0.00     0.000 OA
ENDBRANCH 24 34
BRANCH 20 40
ATOM     40  O4  A00 X   3      36.718  50.854  73.7350  0.00  0.00     0.000 O
BRANCH 40 44
ATOM     41  C1  A00 X   3      33.781  52.733  72.7530  0.00  0.00     0.000 C
ATOM     42  C2  A00 X   3      33.837  51.742  73.9360  0.00  0.00     0.000 C
ATOM     43  C3  A00 X   3      34.430  50.380  73.4920  0.00  0.00     0.000 C
ATOM     44  C4  A00 X   3      35.748  50.481  72.7340  0.00  0.00     0.000 C
ATOM     45  C5  A00 X   3      35.611  51.490  71.5590  0.00  0.00     0.000 C
ATOM     46  O5  A00 X   3      35.038  52.756  72.0220  0.00  0.00     0.000 O
ATOM     47   O  A00 X   3      34.450  49.356  74.4840  0.00  0.00     0.000 O
ATOM     49  HD  A00 X   3      35.218  49.180  74.1250  0.00  0.00     0.000 HD
BRANCH 42 49
ATOM     49   O  A00 X   3      34.641  52.358  74.9660  0.00  0.00     0.000 O
ATOM     50   O  A00 X   3      35.388  51.771  77.1630  0.00  0.00     0.000 OA
ATOM     51   O  A00 X   3      33.162  51.271  76.5430  0.00  0.00     0.000 OA
ATOM     52   O  A00 X   3      33.777  53.538  76.8030  0.00  0.00     0.000 OA
ATOM     53   S  A00 X   3      34.232  52.234  76.4620  0.00  0.00     0.000 S
ENDBRANCH 42 49
BRANCH 45 54
ATOM     54   C  A00 X   3      34.851  50.881  70.3740  0.00  0.00     0.000 C
ATOM     55   O  A00 X   3      34.759  51.483  69.3230  0.00  0.00     0.000 OA
ATOM     56   O  A00 X   3      34.325  49.783  70.4660  0.00  0.00     0.000 OA
ENDBRANCH 45 54
BRANCH 41 57
ATOM     57  O4  A00 X   4      32.621  52.506  71.9210  0.00  0.00     0.000 O
BRANCH 57 61
ATOM     58  C1  A00 X   4      29.962  55.142  69.7720  0.00  0.00     0.000 C
ATOM     59  C2  A00 X   4      31.362  54.853  69.1740  0.00  0.00     0.000 C
ATOM     60  C3  A00 X   4      32.068  53.644  69.8210  0.00  0.00     0.000 C
ATOM     61  C4  A00 X   4      32.017  53.707  71.3630  0.00  0.00     0.000 C
ATOM     62  C5  A00 X   4      30.518  53.781  71.7460  0.00  0.00     0.000 C
ATOM     63  O5  A00 X   4      29.948  55.003  71.2110  0.00  0.00     0.000 O
BRANCH 59 66
ATOM     64   N  A00 X   4      31.691  54.682  67.7470  0.00  0.00     0.000 N
ATOM     66  HD  A00 X   4      32.518  54.527  67.5440  0.00  0.00     0.000 HD
ATOM     66   O  A00 X   4      31.260  57.035  67.4700  0.00  0.00     0.000 OA
ATOM     67   S  A00 X   4      31.225  55.818  66.7220  0.00  0.00     0.000 S
ATOM     68   O  A00 X   4      32.234  55.684  65.7120  0.00  0.00     0.000 OA
ATOM     69   O  A00 X   4      29.940  55.303  66.3410  0.00  0.00     0.000 OA
ENDBRANCH 59 66
BRANCH 62 70
ATOM     70   C  A00 X   4      30.253  53.741  73.2700  0.00  0.00     0.000 C
ATOM     71   O  A00 X   4      27.140  53.110  75.0080  0.00  0.00     0.000 OA
ATOM     72   O  A00 X   4      28.733  54.822  75.2860  0.00  0.00     0.000 OA
ATOM     73   O  A00 X   4      28.938  53.213  73.5100  0.00  0.00     0.000 O
ATOM     74   O  A00 X   4      27.212  54.890  73.3840  0.00  0.00     0.000 OA
ATOM     75   S  A00 X   4      27.931  54.095  74.3270  0.00  0.00     0.000 S
ENDBRANCH 62 70
ENDBRANCH 57 61
ENDBRANCH 41 57
ENDBRANCH 40 44
ENDBRANCH 20 40
ENDBRANCH 19 23
ENDBRANCH 1 19
TORSDOF 14
ENDMDL
MODEL 65
REMARK VINA RESULT:      -2.0     46.142     51.879
ROOT
ATOM      1  C1  A00 X   1      11.227  47.115  95.6670  0.00  0.00     0.000 C
ATOM      2  C2  A00 X   1      11.998  46.354  96.7780  0.00  0.00     0.000 C
ATOM      3  C3  A00 X   1      12.362  47.183  98.0530  0.00  0.00     0.000 C
ATOM      4  C4  A00 X   1      12.243  48.722  97.9070  0.00  0.00     0.000 C
ATOM      5  C5  A00 X   1      12.328  49.171  96.4480  0.00  0.00     0.000 C
ATOM      6  O5  A00 X   1      11.186  48.557  95.8090  0.00  0.00     0.000 O
ATOM      7   O  A00 X   1      13.718  46.913  98.4030  0.00  0.00     0.000 O
ATOM      9  HD  A00 X   1      13.591  47.763  98.5080  0.00  0.00     0.000 HD
ATOM      9   O  A00 X   1      11.037  49.210  98.4930  0.00  0.00     0.000 O
ATOM     11  HD  A00 X   1      10.911  50.061  98.5970  0.00  0.00     0.000 HD
ENDROOT
BRANCH 2 11
ATOM     11   O  A00 X   1      11.200  45.219  97.1670  0.00  0.00     0.000 O
ATOM     12   O  A00 X   1       8.928  44.954  96.4350  0.00  0.00     0.000 OA
ATOM     13   O  A00 X   1       9.506  46.835  97.8650  0.00  0.00     0.000 OA
ATOM     14   O  A00 X   1       9.560  44.614  98.7150  0.00  0.00     0.000 OA
ATOM     15   S  A00 X   1       9.697  45.446  97.5500  0.00  0.00     0.000 S
ENDBRANCH 2 11
BRANCH 5 16
ATOM     16   C  A00 X   1      13.658  48.866  95.7520  0.00  0.00     0.000 C
ATOM     17   O  A00 X   1      13.728  49.000  94.5480  0.00  0.00     0.000 OA
ATOM     18   O  A00 X   1      14.644  48.502  96.3620  0.00  0.00     0.000 OA
ENDBRANCH 5 16
BRANCH 1 19
ATOM     19  O4  A00 X   2      11.637  46.727  94.3320  0.00  0.00     0.000 O
BRANCH 19 23
ATOM     20  C1  A00 X   2       9.452  45.004  91.0730  0.00  0.00     0.000 C
ATOM     21  C2  A00 X   2       9.101  46.456  91.4810  0.00  0.00     0.000 C
ATOM     22  C3  A00 X   2      10.225  47.073  92.3390  0.00  0.00     0.000 C
ATOM     23  C4  A00 X   2      10.542  46.168  93.5520  0.00  0.00     0.000 C
ATOM     24  C5  A00 X   2      10.858  44.746  93.0130  0.00  0.00     0.000 C
ATOM     25  O5  A00 X   2       9.700  44.252  92.2910  0.00  0.00     0.000 O
ATOM     26   O  A00 X   2       9.884  48.438  92.6340  0.00  0.00     0.000 O
ATOM     28  HD  A00 X   2       9.089  48.233  92.9100  0.00  0.00     0.000 HD
BRANCH 21 30
ATOM     28   N  A00 X   2       8.971  47.815  90.9480  0.00  0.00     0.000 N
ATOM     30  HD  A00 X   2       8.258  47.384  90.7120  0.00  0.00     0.000 HD
ATOM     30   O  A00 X   2       6.736  48.154  90.3570  0.00  0.00     0.000 OA
ATOM     31   S  A00 X   2       8.003  48.060  89.7220  0.00  0.00     0.000 S
ATOM     32   O  A00 X   2       8.484  49.279  89.1500  0.00  0.00     0.000 OA
ATOM     33   O  A00 X   2       8.193  46.973  88.8090  0.00  0.00     0.000 OA
ENDBRANCH 21 30
BRANCH 24 34
ATOM     34   C  A00 X   2      11.431  43.706  94.0040  0.00  0.00     0.000 C
ATOM     35   O  A00 X   2      14.872  42.516  93.9500  0.00  0.00     0.000 OA
ATOM     36   O  A00 X   2      12.684  43.171  93.5330  0.00  0.00     0.000 O
ATOM     37   O  A00 X   2      14.264  44.796  94.1100  0.00  0.00     0.000 OA
ATOM     38   S  A00 X   2      13.924  43.451  94.4600  0.00  0.00     0.000 S
ATOM     39   O  A00 X   2      13.490  43.204  95.8020  0.00  0.00     0.000 OA
ENDBRANCH 24 34
BRANCH 20 40
ATOM     40  O4  A00 X   3      10.665  45.099  90.3120  0.00  0.00     0.000 O
BRANCH 40 44
ATOM     41  C1  A00 X   3      13.940  44.328  88.9690  0.00  0.00     0.000 C
ATOM     42  C2  A00 X   3      12.978  45.388  88.3900  0.00  0.00     0.000 C
ATOM     43  C3  A00 X   3      11.565  44.791  88.1640  0.00  0.00     0.000 C
ATOM     44  C4  A00 X   3      10.989  44.056  89.3680  0.00  0.00     0.000 C
ATOM     45  C5  A00 X   3      12.010  43.006  89.8890  0.00  0.00     0.000 C
ATOM     46  O5  A00 X   3      13.331  43.610  90.0770  0.00  0.00     0.000 O
ATOM     47   O  A00 X   3      10.614  45.658  87.5500  0.00  0.00     0.000 O
ATOM     49  HD  A00 X   3      10.075  45.284  88.1160  0.00  0.00     0.000 HD
BRANCH 42 49
ATOM     49   O  A00 X   3      12.944  46.486  89.3270  0.00  0.00     0.000 O
ATOM     50   O  A00 X   3      11.760  48.557  89.5270  0.00  0.00     0.000 OA
ATOM     51   O  A00 X   3      12.566  47.904  87.4030  0.00  0.00     0.000 OA
ATOM     52   O  A00 X   3      14.134  48.494  89.0700  0.00  0.00     0.000 OA
ATOM     53   S  A00 X   3      12.843  47.953  88.8170  0.00  0.00     0.000 S
ENDBRANCH 42 49
BRANCH 45 54
ATOM     54   C  A00 X   3      12.040  41.755  89.0030  0.00  0.00     0.000 C
ATOM     55   O  A00 X   3      11.403  41.712  87.9710  0.00  0.00     0.000 OA
ATOM     56   O  A00 X   3      12.703  40.779  89.3210  0.00  0.00     0.000 OA
ENDBRANCH 45 54
BRANCH 41 57
ATOM     57  O4  A00 X   4      14.474  43.470  87.9360  0.00  0.00     0.000 O
BRANCH 57 61
ATOM     58  C1  A00 X   4      18.305  41.565  87.3640  0.00  0.00     0.000 C
ATOM     59  C2  A00 X   4      17.389  41.059  88.5060  0.00  0.00     0.000 C
ATOM     60  C3  A00 X   4      15.933  41.553  88.3900  0.00  0.00     0.000 C
ATOM     61  C4  A00 X   4      15.862  43.071  88.1200  0.00  0.00     0.000 C
ATOM     62  C5  A00 X   4      16.668  43.321  86.8210  0.00  0.00     0.000 C
ATOM     63  O5  A00 X   4      18.053  42.951  87.0410  0.00  0.00     0.000 O
BRANCH 59 66
ATOM     64   N  A00 X   4      17.858  41.549  89.8140  0.00  0.00     0.000 N
ATOM     66  HD  A00 X   4      18.288  42.301  89.8290  0.00  0.00     0.000 HD
ATOM     66   O  A00 X   4      19.460  39.750  89.8010  0.00  0.00     0.000 OA
ATOM     67   S  A00 X   4      18.731  40.563  90.7240  0.00  0.00     0.000 S
ATOM     68   O  A00 X   4      19.512  41.514  91.4590  0.00  0.00     0.000 OA
ATOM     69   O  A00 X   4      17.690  39.939  91.4900  0.00  0.00     0.000 OA
ENDBRANCH 59 66
BRANCH 62 70
ATOM     70   C  A00 X   4      16.623  44.784  86.3200  0.00  0.00     0.000 C
ATOM     71   O  A00 X   4      18.208  46.226  83.4020  0.00  0.00     0.000 OA
ATOM     72   O  A00 X   4      18.175  46.946  85.6440  0.00  0.00     0.000 OA
ATOM     73   O  A00 X   4      17.184  44.852  84.9990  0.00  0.00     0.000 O
ATOM     74   O  A00 X   4      19.584  45.063  85.0050  0.00  0.00     0.000 OA
ATOM     75   S  A00 X   4      18.396  45.819  84.7660  0.00  0.00     0.000 S
ENDBRANCH 62 70
ENDBRANCH 57 61
ENDBRANCH 41 57
ENDBRANCH 40 44
ENDBRANCH 20 40
ENDBRANCH 19 23
ENDBRANCH 1 19
TORSDOF 14
ENDMDL
MODEL 66
REMARK VINA RESULT:      -2.0     14.565     18.519
ROOT
ATOM      1  C1  A00 X   1      45.502  44.383  40.2500  0.00  0.00     0.000 C
ATOM      2  C2  A00 X   1      45.412  44.426  38.7020  0.00  0.00     0.000 C
ATOM      3  C3  A00 X   1      46.589  45.144  37.9640  0.00  0.00     0.000 C
ATOM      4  C4  A00 X   1      47.495  46.031  38.8570  0.00  0.00     0.000 C
ATOM      5  C5  A00 X   1      46.787  46.477  40.1350  0.00  0.00     0.000 C
ATOM      6  O5  A00 X   1      46.501  45.250  40.8430  0.00  0.00     0.000 O
ATOM      7   O  A00 X   1      46.047  46.000  36.9610  0.00  0.00     0.000 O
ATOM      9  HD  A00 X   1      46.695  46.431  37.3410  0.00  0.00     0.000 HD
ATOM      9   O  A00 X   1      48.714  45.366  39.1870  0.00  0.00     0.000 O
ATOM     11  HD  A00 X   1      49.362  45.797  39.5670  0.00  0.00     0.000 HD
ENDROOT
BRANCH 2 11
ATOM     11   O  A00 X   1      45.321  43.068  38.2300  0.00  0.00     0.000 O
ATOM     12   O  A00 X   1      45.609  42.506  35.9130  0.00  0.00     0.000 OA
ATOM     13   O  A00 X   1      43.730  43.901  36.5750  0.00  0.00     0.000 OA
ATOM     14   O  A00 X   1      43.811  41.610  37.2080  0.00  0.00     0.000 OA
ATOM     15   S  A00 X   1      44.577  42.782  36.8800  0.00  0.00     0.000 S
ENDBRANCH 2 11
BRANCH 5 16
ATOM     16   C  A00 X   1      45.554  47.361  39.9190  0.00  0.00     0.000 C
ATOM     17   O  A00 X   1      44.817  47.571  40.8600  0.00  0.00     0.000 OA
ATOM     18   O  A00 X   1      45.294  47.864  38.8440  0.00  0.00     0.000 OA
ENDBRANCH 5 16
BRANCH 1 19
ATOM     19  O4  A00 X   2      44.213  44.546  40.8920  0.00  0.00     0.000 O
BRANCH 19 23
ATOM     20  C1  A00 X   2      42.339  42.398  44.0920  0.00  0.00     0.000 C
ATOM     21  C2  A00 X   2      43.592  43.240  44.4350  0.00  0.00     0.000 C
ATOM     22  C3  A00 X   2      43.883  44.268  43.3220  0.00  0.00     0.000 C
ATOM     23  C4  A00 X   2      43.988  43.568  41.9480  0.00  0.00     0.000 C
ATOM     24  C5  A00 X   2      42.687  42.747  41.7340  0.00  0.00     0.000 C
ATOM     25  O5  A00 X   2      42.569  41.772  42.8020  0.00  0.00     0.000 O
ATOM     26   O  A00 X   2      45.010  45.069  43.7170  0.00  0.00     0.000 O
ATOM     28  HD  A00 X   2      45.496  44.379  43.9110  0.00  0.00     0.000 HD
BRANCH 21 30
ATOM     28   N  A00 X   2      44.171  44.293  45.2750  0.00  0.00     0.000 N
ATOM     30  HD  A00 X   2      44.093  43.589  45.7730  0.00  0.00     0.000 HD
ATOM     30   O  A00 X   2      45.074  43.288  47.1810  0.00  0.00     0.000 OA
ATOM     31   S  A00 X   2      44.021  44.179  46.8440  0.00  0.00     0.000 S
ATOM     32   O  A00 X   2      44.200  45.524  47.2990  0.00  0.00     0.000 OA
ATOM     33   O  A00 X   2      42.685  43.737  47.1110  0.00  0.00     0.000 OA
ENDBRANCH 21 30
BRANCH 24 34
ATOM     34   C  A00 X   2      42.439  42.134  40.3350  0.00  0.00     0.000 C
ATOM     35   O  A00 X   2      41.318  38.715  39.7760  0.00  0.00     0.000 OA
ATOM     36   O  A00 X   2      42.352  40.696  40.4030  0.00  0.00     0.000 O
ATOM     37   O  A00 X   2      40.167  40.278  41.1270  0.00  0.00     0.000 OA
ATOM     38   S  A00 X   2      40.972  40.086  39.9590  0.00  0.00     0.000 S
ATOM     39   O  A00 X   2      40.588  40.779  38.7660  0.00  0.00     0.000 OA
ENDBRANCH 24 34
BRANCH 20 40
ATOM     40  O4  A00 X   3      41.258  43.336  43.9850  0.00  0.00     0.000 O
BRANCH 40 44
ATOM     41  C1  A00 X   3      38.240  45.319  43.7040  0.00  0.00     0.000 C
ATOM     42  C2  A00 X   3      39.062  45.146  45.0000  0.00  0.00     0.000 C
ATOM     43  C3  A00 X   3      39.331  43.648  45.2910  0.00  0.00     0.000 C
ATOM     44  C4  A00 X   3      39.899  42.865  44.1140  0.00  0.00     0.000 C
ATOM     45  C5  A00 X   3      39.017  43.085  42.8530  0.00  0.00     0.000 C
ATOM     46  O5  A00 X   3      38.781  44.512  42.6220  0.00  0.00     0.000 O
ATOM     47   O  A00 X   3      40.010  43.362  46.5120  0.00  0.00     0.000 O
ATOM     49  HD  A00 X   3      40.405  42.767  46.0230  0.00  0.00     0.000 HD
BRANCH 42 49
ATOM     49   O  A00 X   3      40.294  45.878  44.8190  0.00  0.00     0.000 O
ATOM     50   O  A00 X   3      41.689  47.281  46.1670  0.00  0.00     0.000 OA
ATOM     51   O  A00 X   3      39.342  47.528  46.3120  0.00  0.00     0.000 OA
ATOM     52   O  A00 X   3      40.421  48.167  44.3080  0.00  0.00     0.000 OA
ATOM     53   S  A00 X   3      40.463  47.298  45.4340  0.00  0.00     0.000 S
ENDBRANCH 42 49
BRANCH 45 54
ATOM     54   C  A00 X   3      37.725  42.262  42.9140  0.00  0.00     0.000 C
ATOM     55   O  A00 X   3      36.968  42.227  41.9650  0.00  0.00     0.000 OA
ATOM     56   O  A00 X   3      37.433  41.630  43.9170  0.00  0.00     0.000 OA
ENDBRANCH 45 54
BRANCH 41 57
ATOM     57  O4  A00 X   4      36.828  45.118  43.9380  0.00  0.00     0.000 O
BRANCH 57 61
ATOM     58  C1  A00 X   4      33.357  47.023  42.2160  0.00  0.00     0.000 C
ATOM     59  C2  A00 X   4      33.723  45.591  41.7530  0.00  0.00     0.000 C
ATOM     60  C3  A00 X   4      34.739  44.887  42.6750  0.00  0.00     0.000 C
ATOM     61  C4  A00 X   4      35.944  45.796  43.0000  0.00  0.00     0.000 C
ATOM     62  C5  A00 X   4      35.361  47.078  43.6450  0.00  0.00     0.000 C
ATOM     63  O5  A00 X   4      34.515  47.754  42.6800  0.00  0.00     0.000 O
BRANCH 59 66
ATOM     64   N  A00 X   4      32.831  44.472  41.3970  0.00  0.00     0.000 N
ATOM     66  HD  A00 X   4      33.201  43.738  41.1230  0.00  0.00     0.000 HD
ATOM     66   O  A00 X   4      32.151  45.755  39.4770  0.00  0.00     0.000 OA
ATOM     67   S  A00 X   4      31.648  44.747  40.3570  0.00  0.00     0.000 S
ATOM     68   O  A00 X   4      31.502  43.442  39.7800  0.00  0.00     0.000 OA
ATOM     69   O  A00 X   4      30.595  45.112  41.2610  0.00  0.00     0.000 OA
ENDBRANCH 59 66
BRANCH 62 70
ATOM     70   C  A00 X   4      36.432  48.077  44.1450  0.00  0.00     0.000 C
ATOM     71   O  A00 X   4      36.563  49.865  47.2900  0.00  0.00     0.000 OA
ATOM     72   O  A00 X   4      36.820  50.630  45.0780  0.00  0.00     0.000 OA
ATOM     73   O  A00 X   4      36.213  48.349  45.5380  0.00  0.00     0.000 O
ATOM     74   O  A00 X   4      34.595  50.094  45.9150  0.00  0.00     0.000 OA
ATOM     75   S  A00 X   4      35.999  49.841  45.9690  0.00  0.00     0.000 S
ENDBRANCH 62 70
ENDBRANCH 57 61
ENDBRANCH 41 57
ENDBRANCH 40 44
ENDBRANCH 20 40
ENDBRANCH 19 23
ENDBRANCH 1 19
TORSDOF 14
ENDMDL
MODEL 67
REMARK VINA RESULT:      -1.9     29.558     35.160
ROOT
ATOM      1  C1  A00 X   1      16.961  48.885  30.1170  0.00  0.00     0.000 C
ATOM      2  C2  A00 X   1      16.784  48.454  31.5970  0.00  0.00     0.000 C
ATOM      3  C3  A00 X   1      18.097  48.328  32.4380  0.00  0.00     0.000 C
ATOM      4  C4  A00 X   1      19.413  48.285  31.6200  0.00  0.00     0.000 C
ATOM      5  C5  A00 X   1      19.182  47.831  30.1790  0.00  0.00     0.000 C
ATOM      6  O5  A00 X   1      18.318  48.841  29.6100  0.00  0.00     0.000 O
ATOM      7   O  A00 X   1      18.046  47.115  33.1870  0.00  0.00     0.000 O
ATOM      9  HD  A00 X   1      18.852  47.193  32.8810  0.00  0.00     0.000 HD
ATOM      9   O  A00 X   1      20.074  49.550  31.6280  0.00  0.00     0.000 O
ATOM     11  HD  A00 X   1      20.880  49.628  31.3220  0.00  0.00     0.000 HD
ENDROOT
BRANCH 2 11
ATOM     11   O  A00 X   1      15.911  49.409  32.2310  0.00  0.00     0.000 O
ATOM     12   O  A00 X   1      15.502  51.578  31.2850  0.00  0.00     0.000 OA
ATOM     13   O  A00 X   1      17.748  51.006  32.0240  0.00  0.00     0.000 OA
ATOM     14   O  A00 X   1      15.995  51.294  33.6060  0.00  0.00     0.000 OA
ATOM     15   S  A00 X   1      16.333  50.919  32.2600  0.00  0.00     0.000 S
ENDBRANCH 2 11
BRANCH 5 16
ATOM     16   C  A00 X   1      18.642  46.406  30.0260  0.00  0.00     0.000 C
ATOM     17   O  A00 X   1      18.775  45.632  30.9530  0.00  0.00     0.000 OA
ATOM     18   O  A00 X   1      18.082  46.025  29.0180  0.00  0.00     0.000 OA
ENDBRANCH 5 16
BRANCH 1 19
ATOM     19  O4  A00 X   2      16.041  48.212  29.2230  0.00  0.00     0.000 O
BRANCH 19 23
ATOM     20  C1  A00 X   2      14.544  49.280  25.3520  0.00  0.00     0.000 C
ATOM     21  C2  A00 X   2      16.026  48.843  25.4490  0.00  0.00     0.000 C
ATOM     22  C3  A00 X   2      16.292  48.093  26.7710  0.00  0.00     0.000 C
ATOM     23  C4  A00 X   2      15.836  48.942  27.9790  0.00  0.00     0.000 C
ATOM     24  C5  A00 X   2      14.349  49.329  27.7530  0.00  0.00     0.000 C
ATOM     25  O5  A00 X   2      14.246  50.089  26.5210  0.00  0.00     0.000 O
ATOM     26   O  A00 X   2      17.660  47.650  26.7830  0.00  0.00     0.000 O
ATOM     28  HD  A00 X   2      17.968  48.432  26.5730  0.00  0.00     0.000 HD
BRANCH 21 30
ATOM     28   N  A00 X   2      16.347  49.809  24.3940  0.00  0.00     0.000 N
ATOM     30  HD  A00 X   2      17.021  49.269  24.4530  0.00  0.00     0.000 HD
ATOM     30   O  A00 X   2      18.126  48.955  23.1430  0.00  0.00     0.000 OA
ATOM     31   S  A00 X   2      17.864  50.044  24.0160  0.00  0.00     0.000 S
ATOM     32   O  A00 X   2      17.862  51.331  23.3920  0.00  0.00     0.000 OA
ATOM     33   O  A00 X   2      18.604  50.086  25.2420  0.00  0.00     0.000 OA
ENDBRANCH 21 30
BRANCH 24 34
ATOM     34   C  A00 X   2      13.583  49.986  28.9260  0.00  0.00     0.000 C
ATOM     35   O  A00 X   2      10.953  48.336  30.8270  0.00  0.00     0.000 OA
ATOM     36   O  A00 X   2      12.386  49.250  29.2460  0.00  0.00     0.000 O
ATOM     37   O  A00 X   2      13.135  47.463  30.5560  0.00  0.00     0.000 OA
ATOM     38   S  A00 X   2      12.339  48.645  30.6970  0.00  0.00     0.000 S
ATOM     39   O  A00 X   2      12.819  49.666  31.5780  0.00  0.00     0.000 OA
ENDBRANCH 24 34
BRANCH 20 40
ATOM     40  O4  A00 X   3      13.779  48.067  25.3990  0.00  0.00     0.000 O
BRANCH 40 44
ATOM     41  C1  A00 X   3      10.552  47.252  26.8310  0.00  0.00     0.000 C
ATOM     42  C2  A00 X   3      11.576  46.215  26.3200  0.00  0.00     0.000 C
ATOM     43  C3  A00 X   3      12.049  46.563  24.8850  0.00  0.00     0.000 C
ATOM     44  C4  A00 X   3      12.515  48.002  24.7030  0.00  0.00     0.000 C
ATOM     45  C5  A00 X   3      11.433  48.984  25.2350  0.00  0.00     0.000 C
ATOM     46  O5  A00 X   3      11.009  48.611  26.5870  0.00  0.00     0.000 O
ATOM     47   O  A00 X   3      12.932  45.624  24.2760  0.00  0.00     0.000 O
ATOM     49  HD  A00 X   3      13.312  46.344  23.9790  0.00  0.00     0.000 HD
BRANCH 42 49
ATOM     49   O  A00 X   3      12.678  46.213  27.2530  0.00  0.00     0.000 O
ATOM     50   O  A00 X   3      14.806  45.129  27.4170  0.00  0.00     0.000 OA
ATOM     51   O  A00 X   3      12.941  43.875  26.6840  0.00  0.00     0.000 OA
ATOM     52   O  A00 X   3      12.997  44.602  28.9320  0.00  0.00     0.000 OA
ATOM     53   S  A00 X   3      13.410  44.884  27.6010  0.00  0.00     0.000 S
ENDBRANCH 42 49
BRANCH 45 54
ATOM     54   C  A00 X   3      10.264  49.125  24.2540  0.00  0.00     0.000 C
ATOM     55   O  A00 X   3       9.351  49.891  24.4860  0.00  0.00     0.000 OA
ATOM     56   O  A00 X   3      10.230  48.471  23.2230  0.00  0.00     0.000 OA
ENDBRANCH 45 54
BRANCH 41 57
ATOM     57  O4  A00 X   4       9.223  46.981  26.3330  0.00  0.00     0.000 O
BRANCH 57 61
ATOM     58  C1  A00 X   4       5.286  47.446  28.0440  0.00  0.00     0.000 C
ATOM     59  C2  A00 X   4       6.144  48.713  27.8020  0.00  0.00     0.000 C
ATOM     60  C3  A00 X   4       7.352  48.470  26.8740  0.00  0.00     0.000 C
ATOM     61  C4  A00 X   4       8.147  47.213  27.2860  0.00  0.00     0.000 C
ATOM     62  C5  A00 X   4       7.143  46.034  27.2580  0.00  0.00     0.000 C
ATOM     63  O5  A00 X   4       6.103  46.269  28.2410  0.00  0.00     0.000 O
BRANCH 59 66
ATOM     64   N  A00 X   4       6.668  49.087  29.1280  0.00  0.00     0.000 N
ATOM     66  HD  A00 X   4       6.737  48.460  29.7210  0.00  0.00     0.000 HD
ATOM     66   O  A00 X   4       4.605  50.272  29.4990  0.00  0.00     0.000 OA
ATOM     67   S  A00 X   4       5.976  50.305  29.9000  0.00  0.00     0.000 S
ATOM     68   O  A00 X   4       6.231  49.927  31.2590  0.00  0.00     0.000 OA
ATOM     69   O  A00 X   4       6.785  51.394  29.4310  0.00  0.00     0.000 OA
ENDBRANCH 59 66
BRANCH 62 70
ATOM     70   C  A00 X   4       7.782  44.653  27.5400  0.00  0.00     0.000 C
ATOM     71   O  A00 X   4       9.091  43.360  30.6580  0.00  0.00     0.000 OA
ATOM     72   O  A00 X   4      10.032  43.404  28.5000  0.00  0.00     0.000 OA
ATOM     73   O  A00 X   4       7.929  44.478  28.9580  0.00  0.00     0.000 O
ATOM     74   O  A00 X   4       9.958  45.449  29.8220  0.00  0.00     0.000 OA
ATOM     75   S  A00 X   4       9.366  44.187  29.5160  0.00  0.00     0.000 S
ENDBRANCH 62 70
ENDBRANCH 57 61
ENDBRANCH 41 57
ENDBRANCH 40 44
ENDBRANCH 20 40
ENDBRANCH 19 23
ENDBRANCH 1 19
TORSDOF 14
ENDMDL
MODEL 68
REMARK VINA RESULT:      -1.8     30.778     36.384
ROOT
ATOM      1  C1  A00 X   1      17.710  49.753  30.6890  0.00  0.00     0.000 C
ATOM      2  C2  A00 X   1      17.865  48.837  31.9320  0.00  0.00     0.000 C
ATOM      3  C3  A00 X   1      18.422  47.400  31.6610  0.00  0.00     0.000 C
ATOM      4  C4  A00 X   1      18.401  46.943  30.1790  0.00  0.00     0.000 C
ATOM      5  C5  A00 X   1      17.375  47.717  29.3510  0.00  0.00     0.000 C
ATOM      6  O5  A00 X   1      17.821  49.091  29.4050  0.00  0.00     0.000 O
ATOM      7   O  A00 X   1      17.632  46.459  32.3850  0.00  0.00     0.000 O
ATOM      9  HD  A00 X   1      17.788  46.115  31.6060  0.00  0.00     0.000 HD
ATOM      9   O  A00 X   1      19.691  47.059  29.5790  0.00  0.00     0.000 O
ATOM     11  HD  A00 X   1      19.847  46.715  28.8000  0.00  0.00     0.000 HD
ENDROOT
BRANCH 2 11
ATOM     11   O  A00 X   1      18.733  49.508  32.8660  0.00  0.00     0.000 O
ATOM     12   O  A00 X   1      19.261  48.566  35.0110  0.00  0.00     0.000 OA
ATOM     13   O  A00 X   1      16.962  49.190  34.5180  0.00  0.00     0.000 OA
ATOM     14   O  A00 X   1      18.637  50.861  34.7660  0.00  0.00     0.000 OA
ATOM     15   S  A00 X   1      18.359  49.502  34.3880  0.00  0.00     0.000 S
ENDBRANCH 2 11
BRANCH 5 16
ATOM     16   C  A00 X   1      15.918  47.528  29.7840  0.00  0.00     0.000 C
ATOM     17   O  A00 X   1      15.652  46.629  30.5550  0.00  0.00     0.000 OA
ATOM     18   O  A00 X   1      15.022  48.249  29.3910  0.00  0.00     0.000 OA
ENDBRANCH 5 16
BRANCH 1 19
ATOM     19  O4  A00 X   2      16.528  50.589  30.7520  0.00  0.00     0.000 O
BRANCH 19 23
ATOM     20  C1  A00 X   2      15.625  54.380  28.9690  0.00  0.00     0.000 C
ATOM     21  C2  A00 X   2      15.749  53.158  28.0270  0.00  0.00     0.000 C
ATOM     22  C3  A00 X   2      15.640  51.839  28.8190  0.00  0.00     0.000 C
ATOM     23  C4  A00 X   2      16.666  51.812  29.9740  0.00  0.00     0.000 C
ATOM     24  C5  A00 X   2      16.451  53.091  30.8300  0.00  0.00     0.000 C
ATOM     25  O5  A00 X   2      16.653  54.256  29.9880  0.00  0.00     0.000 O
ATOM     26   O  A00 X   2      15.692  50.739  27.8940  0.00  0.00     0.000 O
ATOM     28  HD  A00 X   2      16.404  51.038  27.5020  0.00  0.00     0.000 HD
BRANCH 21 30
ATOM     28   N  A00 X   2      16.318  54.050  27.0110  0.00  0.00     0.000 N
ATOM     30  HD  A00 X   2      16.089  53.320  26.6040  0.00  0.00     0.000 HD
ATOM     30   O  A00 X   2      15.707  53.239  24.9070  0.00  0.00     0.000 OA
ATOM     31   S  A00 X   2      16.885  53.417  25.6780  0.00  0.00     0.000 S
ATOM     32   O  A00 X   2      17.784  54.415  25.1860  0.00  0.00     0.000 OA
ATOM     33   O  A00 X   2      17.607  52.235  26.0450  0.00  0.00     0.000 OA
ENDBRANCH 21 30
BRANCH 24 34
ATOM     34   C  A00 X   2      17.198  53.194  32.1810  0.00  0.00     0.000 C
ATOM     35   O  A00 X   2      20.823  53.134  32.5190  0.00  0.00     0.000 OA
ATOM     36   O  A00 X   2      18.576  52.791  32.0490  0.00  0.00     0.000 O
ATOM     37   O  A00 X   2      19.648  54.669  31.1550  0.00  0.00     0.000 OA
ATOM     38   S  A00 X   2      19.635  53.909  32.3680  0.00  0.00     0.000 S
ATOM     39   O  A00 X   2      19.184  54.566  33.5580  0.00  0.00     0.000 OA
ENDBRANCH 24 34
BRANCH 20 40
ATOM     40  O4  A00 X   3      14.330  54.270  29.5780  0.00  0.00     0.000 O
BRANCH 40 44
ATOM     41  C1  A00 X   3      11.240  54.534  31.4500  0.00  0.00     0.000 C
ATOM     42  C2  A00 X   3      11.337  54.125  29.9640  0.00  0.00     0.000 C
ATOM     43  C3  A00 X   3      12.189  55.142  29.1630  0.00  0.00     0.000 C
ATOM     44  C4  A00 X   3      13.543  55.462  29.7840  0.00  0.00     0.000 C
ATOM     45  C5  A00 X   3      13.363  55.869  31.2730  0.00  0.00     0.000 C
ATOM     46  O5  A00 X   3      12.544  54.887  31.9880  0.00  0.00     0.000 O
ATOM     47   O  A00 X   3      12.275  54.912  27.7580  0.00  0.00     0.000 O
ATOM     49  HD  A00 X   3      13.095  55.164  27.8810  0.00  0.00     0.000 HD
BRANCH 42 49
ATOM     49   O  A00 X   3      11.918  52.803  29.9260  0.00  0.00     0.000 O
ATOM     50   O  A00 X   3      12.487  51.209  28.2340  0.00  0.00     0.000 OA
ATOM     51   O  A00 X   3      10.445  52.386  28.0520  0.00  0.00     0.000 OA
ATOM     52   O  A00 X   3      10.685  50.809  29.7960  0.00  0.00     0.000 OA
ATOM     53   S  A00 X   3      11.363  51.728  28.9480  0.00  0.00     0.000 S
ENDBRANCH 42 49
BRANCH 45 54
ATOM     54   C  A00 X   3      12.840  57.304  31.4110  0.00  0.00     0.000 C
ATOM     55   O  A00 X   3      12.710  57.813  32.5050  0.00  0.00     0.000 OA
ATOM     56   O  A00 X   3      12.544  57.959  30.4230  0.00  0.00     0.000 OA
ENDBRANCH 45 54
BRANCH 41 57
ATOM     57  O4  A00 X   4      10.225  55.541  31.6610  0.00  0.00     0.000 O
BRANCH 57 61
ATOM     58  C1  A00 X   4       7.461  56.318  34.8850  0.00  0.00     0.000 C
ATOM     59  C2  A00 X   4       8.973  56.539  35.1360  0.00  0.00     0.000 C
ATOM     60  C3  A00 X   4       9.811  56.582  33.8420  0.00  0.00     0.000 C
ATOM     61  C4  A00 X   4       9.471  55.408  32.8990  0.00  0.00     0.000 C
ATOM     62  C5  A00 X   4       7.951  55.505  32.6140  0.00  0.00     0.000 C
ATOM     63  O5  A00 X   4       7.221  55.332  33.8550  0.00  0.00     0.000 O
BRANCH 59 66
ATOM     64   N  A00 X   4       9.952  55.821  35.9730  0.00  0.00     0.000 N
ATOM     66  HD  A00 X   4       9.947  54.955  35.9410  0.00  0.00     0.000 HD
ATOM     66   O  A00 X   4       8.679  56.526  37.8920  0.00  0.00     0.000 OA
ATOM     67   S  A00 X   4      10.016  56.171  37.5320  0.00  0.00     0.000 S
ATOM     68   O  A00 X   4      10.485  54.922  38.0580  0.00  0.00     0.000 OA
ATOM     69   O  A00 X   4      11.005  57.211  37.5180  0.00  0.00     0.000 OA
ENDBRANCH 59 66
BRANCH 62 70
ATOM     70   C  A00 X   4       7.433  54.468  31.5890  0.00  0.00     0.000 C
ATOM     71   O  A00 X   4       4.913  51.908  32.0410  0.00  0.00     0.000 OA
ATOM     72   O  A00 X   4       7.083  51.782  31.1350  0.00  0.00     0.000 OA
ATOM     73   O  A00 X   4       6.266  53.819  32.1200  0.00  0.00     0.000 O
ATOM     74   O  A00 X   4       6.794  51.952  33.5490  0.00  0.00     0.000 OA
ATOM     75   S  A00 X   4       6.291  52.256  32.2480  0.00  0.00     0.000 S
ENDBRANCH 62 70
ENDBRANCH 57 61
ENDBRANCH 41 57
ENDBRANCH 40 44
ENDBRANCH 20 40
ENDBRANCH 19 23
ENDBRANCH 1 19
TORSDOF 14
ENDMDL
MODEL 69
REMARK VINA RESULT:      -1.5     27.789     34.544
ROOT
ATOM      1  C1  A00 X   1      42.313  54.266  76.1980  0.00  0.00     0.000 C
ATOM      2  C2  A00 X   1      43.725  54.481  75.5900  0.00  0.00     0.000 C
ATOM      3  C3  A00 X   1      44.346  55.904  75.7790  0.00  0.00     0.000 C
ATOM      4  C4  A00 X   1      43.353  57.014  76.2120  0.00  0.00     0.000 C
ATOM      5  C5  A00 X   1      41.908  56.668  75.8550  0.00  0.00     0.000 C
ATOM      6  O5  A00 X   1      41.620  55.470  76.6110  0.00  0.00     0.000 O
ATOM      7   O  A00 X   1      44.909  56.326  74.5390  0.00  0.00     0.000 O
ATOM      9  HD  A00 X   1      44.508  57.011  74.8840  0.00  0.00     0.000 HD
ATOM      9   O  A00 X   1      43.453  57.287  77.6100  0.00  0.00     0.000 O
ATOM     11  HD  A00 X   1      43.051  57.972  77.9540  0.00  0.00     0.000 HD
ENDROOT
BRANCH 2 11
ATOM     11   O  A00 X   1      44.606  53.503  76.1750  0.00  0.00     0.000 O
ATOM     12   O  A00 X   1      46.993  53.652  75.9540  0.00  0.00     0.000 OA
ATOM     13   O  A00 X   1      45.633  53.320  73.9650  0.00  0.00     0.000 OA
ATOM     14   O  A00 X   1      45.825  51.598  75.5940  0.00  0.00     0.000 OA
ATOM     15   S  A00 X   1      45.849  53.015  75.3530  0.00  0.00     0.000 S
ENDBRANCH 2 11
BRANCH 5 16
ATOM     16   C  A00 X   1      41.627  56.528  74.3550  0.00  0.00     0.000 C
ATOM     17   O  A00 X   1      42.425  56.995  73.5680  0.00  0.00     0.000 OA
ATOM     18   O  A00 X   1      40.641  55.963  73.9270  0.00  0.00     0.000 OA
ENDBRANCH 5 16
BRANCH 1 19
ATOM     19  O4  A00 X   2      41.468  53.428  75.3730  0.00  0.00     0.000 O
BRANCH 19 23
ATOM     20  C1  A00 X   2      39.703  49.644  76.3400  0.00  0.00     0.000 C
ATOM     21  C2  A00 X   2      39.894  50.659  77.4930  0.00  0.00     0.000 C
ATOM     22  C3  A00 X   2      40.120  52.082  76.9410  0.00  0.00     0.000 C
ATOM     23  C4  A00 X   2      41.289  52.094  75.9300  0.00  0.00     0.000 C
ATOM     24  C5  A00 X   2      40.987  51.028  74.8420  0.00  0.00     0.000 C
ATOM     25  O5  A00 X   2      40.871  49.729  75.4800  0.00  0.00     0.000 O
ATOM     26   O  A00 X   2      40.223  52.995  78.0470  0.00  0.00     0.000 O
ATOM     28  HD  A00 X   2      40.812  52.511  78.4570  0.00  0.00     0.000 HD
BRANCH 21 30
ATOM     28   N  A00 X   2      40.155  49.529  78.3900  0.00  0.00     0.000 N
ATOM     30  HD  A00 X   2      39.998  50.217  78.8920  0.00  0.00     0.000 HD
ATOM     30   O  A00 X   2      39.398  50.104  80.5240  0.00  0.00     0.000 OA
ATOM     31   S  A00 X   2      40.627  49.828  79.8690  0.00  0.00     0.000 S
ATOM     32   O  A00 X   2      41.267  48.614  80.2720  0.00  0.00     0.000 OA
ATOM     33   O  A00 X   2      41.582  50.894  79.8020  0.00  0.00     0.000 OA
ENDBRANCH 21 30
BRANCH 24 34
ATOM     34   C  A00 X   2      41.890  50.997  73.5860  0.00  0.00     0.000 C
ATOM     35   O  A00 X   2      43.251  47.952  72.1260  0.00  0.00     0.000 OA
ATOM     36   O  A00 X   2      42.556  49.725  73.4520  0.00  0.00     0.000 O
ATOM     37   O  A00 X   2      40.945  48.322  72.4990  0.00  0.00     0.000 OA
ATOM     38   S  A00 X   2      42.200  48.916  72.1520  0.00  0.00     0.000 S
ATOM     39   O  A00 X   2      42.213  49.857  71.0730  0.00  0.00     0.000 OA
ENDBRANCH 24 34
BRANCH 20 40
ATOM     40  O4  A00 X   3      38.544  50.089  75.6210  0.00  0.00     0.000 O
BRANCH 40 44
ATOM     41  C1  A00 X   3      36.087  50.720  73.0340  0.00  0.00     0.000 C
ATOM     42  C2  A00 X   3      35.821  50.845  74.5500  0.00  0.00     0.000 C
ATOM     43  C3  A00 X   3      36.276  49.567  75.3010  0.00  0.00     0.000 C
ATOM     44  C4  A00 X   3      37.694  49.114  74.9790  0.00  0.00     0.000 C
ATOM     45  C5  A00 X   3      37.882  49.007  73.4390  0.00  0.00     0.000 C
ATOM     46  O5  A00 X   3      37.431  50.230  72.7710  0.00  0.00     0.000 O
ATOM     47   O  A00 X   3      35.999  49.535  76.6990  0.00  0.00     0.000 O
ATOM     49  HD  A00 X   3      36.780  49.162  76.7310  0.00  0.00     0.000 HD
BRANCH 42 49
ATOM     49   O  A00 X   3      36.539  52.011  75.0100  0.00  0.00     0.000 O
ATOM     50   O  A00 X   3      36.694  53.257  77.0490  0.00  0.00     0.000 OA
ATOM     51   O  A00 X   3      34.572  52.497  76.3350  0.00  0.00     0.000 OA
ATOM     52   O  A00 X   3      35.647  54.183  75.0760  0.00  0.00     0.000 OA
ATOM     53   S  A00 X   3      35.835  53.057  75.9240  0.00  0.00     0.000 S
ENDBRANCH 42 49
BRANCH 45 54
ATOM     54   C  A00 X   3      37.233  47.737  72.8750  0.00  0.00     0.000 C
ATOM     55   O  A00 X   3      37.547  47.315  71.7810  0.00  0.00     0.000 OA
ATOM     56   O  A00 X   3      36.389  47.129  73.5150  0.00  0.00     0.000 OA
ENDBRANCH 45 54
BRANCH 41 57
ATOM     57  O4  A00 X   4      35.047  49.967  72.3700  0.00  0.00     0.000 O
BRANCH 57 61
ATOM     58  C1  A00 X   4      34.216  49.503  68.1590  0.00  0.00     0.000 C
ATOM     59  C2  A00 X   4      34.695  48.267  68.9610  0.00  0.00     0.000 C
ATOM     60  C3  A00 X   4      34.612  48.456  70.4890  0.00  0.00     0.000 C
ATOM     61  C4  A00 X   4      35.225  49.801  70.9350  0.00  0.00     0.000 C
ATOM     62  C5  A00 X   4      34.457  50.905  70.1670  0.00  0.00     0.000 C
ATOM     63  O5  A00 X   4      34.680  50.741  68.7440  0.00  0.00     0.000 O
BRANCH 59 66
ATOM     64   N  A00 X   4      34.925  46.813  69.0410  0.00  0.00     0.000 N
ATOM     66  HD  A00 X   4      35.634  46.542  69.4570  0.00  0.00     0.000 HD
ATOM     66   O  A00 X   4      35.391  46.858  66.6790  0.00  0.00     0.000 OA
ATOM     67   S  A00 X   4      34.902  45.967  67.6830  0.00  0.00     0.000 S
ATOM     68   O  A00 X   4      35.781  44.891  68.0350  0.00  0.00     0.000 OA
ATOM     69   O  A00 X   4      33.514  45.602  67.6360  0.00  0.00     0.000 OA
ENDBRANCH 59 66
BRANCH 62 70
ATOM     70   C  A00 X   4      34.857  52.346  70.5650  0.00  0.00     0.000 C
ATOM     71   O  A00 X   4      34.200  55.442  68.8070  0.00  0.00     0.000 OA
ATOM     72   O  A00 X   4      36.197  54.590  69.7180  0.00  0.00     0.000 OA
ATOM     73   O  A00 X   4      34.179  53.281  69.7100  0.00  0.00     0.000 O
ATOM     74   O  A00 X   4      35.336  53.669  67.6320  0.00  0.00     0.000 OA
ATOM     75   S  A00 X   4      35.052  54.290  68.8860  0.00  0.00     0.000 S
ENDBRANCH 62 70
ENDBRANCH 57 61
ENDBRANCH 41 57
ENDBRANCH 40 44
ENDBRANCH 20 40
ENDBRANCH 19 23
ENDBRANCH 1 19
TORSDOF 14
ENDMDL
MODEL 70
REMARK VINA RESULT:      -1.4     83.691     88.038
ROOT
ATOM      1  C1  A00 X   1      88.699  97.385  34.7410  0.00  0.00     0.000 C
ATOM      2  C2  A00 X   1      89.798  97.099  35.7980  0.00  0.00     0.000 C
ATOM      3  C3  A00 X   1      90.724  95.871  35.5130  0.00  0.00     0.000 C
ATOM      4  C4  A00 X   1      90.213  94.886  34.4300  0.00  0.00     0.000 C
ATOM      5  C5  A00 X   1      88.700  94.979  34.2340  0.00  0.00     0.000 C
ATOM      6  O5  A00 X   1      88.471  96.330  33.7740  0.00  0.00     0.000 O
ATOM      7   O  A00 X   1      90.864  95.115  36.7140  0.00  0.00     0.000 O
ATOM      9  HD  A00 X   1      90.769  94.549  36.0650  0.00  0.00     0.000 HD
ATOM      9   O  A00 X   1      90.875  95.094  33.1820  0.00  0.00     0.000 O
ATOM     11  HD  A00 X   1      90.779  94.528  32.5340  0.00  0.00     0.000 HD
ENDROOT
BRANCH 2 11
ATOM     11   O  A00 X   1      90.611  98.283  35.9160  0.00  0.00     0.000 O
ATOM     12   O  A00 X   1      92.621  98.318  37.2300  0.00  0.00     0.000 OA
ATOM     13   O  A00 X   1      90.483  97.956  38.3330  0.00  0.00     0.000 OA
ATOM     14   O  A00 X   1      91.000 100.068  37.3690  0.00  0.00     0.000 OA
ATOM     15   S  A00 X   1      91.221  98.649  37.3130  0.00  0.00     0.000 S
ENDBRANCH 2 11
BRANCH 5 16
ATOM     16   C  A00 X   1      87.863  94.598  35.4590  0.00  0.00     0.000 C
ATOM     17   O  A00 X   1      86.674  94.841  35.4500  0.00  0.00     0.000 OA
ATOM     18   O  A00 X   1      88.345  94.056  36.4340  0.00  0.00     0.000 OA
ENDBRANCH 5 16
BRANCH 1 19
ATOM     19  O4  A00 X   2      87.456  97.837  35.3320  0.00  0.00     0.000 O
BRANCH 19 23
ATOM     20  C1  A00 X   2      86.693 100.730  32.2640  0.00  0.00     0.000 C
ATOM     21  C2  A00 X   2      87.341 101.234  33.5760  0.00  0.00     0.000 C
ATOM     22  C3  A00 X   2      87.939 100.061  34.3790  0.00  0.00     0.000 C
ATOM     23  C4  A00 X   2      86.875  98.966  34.6170  0.00  0.00     0.000 C
ATOM     24  C5  A00 X   2      86.293  98.562  33.2350  0.00  0.00     0.000 C
ATOM     25  O5  A00 X   2      85.698  99.733  32.6180  0.00  0.00     0.000 O
ATOM     26   O  A00 X   2      88.587 100.586  35.5500  0.00  0.00     0.000 O
ATOM     28  HD  A00 X   2      87.899 101.060  35.7800  0.00  0.00     0.000 HD
BRANCH 21 30
ATOM     28   N  A00 X   2      86.592 102.485  33.4200  0.00  0.00     0.000 N
ATOM     30  HD  A00 X   2      87.214 102.636  34.0040  0.00  0.00     0.000 HD
ATOM     30   O  A00 X   2      87.871 104.216  34.3300  0.00  0.00     0.000 OA
ATOM     31   S  A00 X   2      86.643 103.550  34.5870  0.00  0.00     0.000 S
ATOM     32   O  A00 X   2      85.471 104.341  34.3750  0.00  0.00     0.000 OA
ATOM     33   O  A00 X   2      86.541 102.830  35.8220  0.00  0.00     0.000 OA
ENDBRANCH 21 30
BRANCH 24 34
ATOM     34   C  A00 X   2      85.372  97.320  33.1710  0.00  0.00     0.000 C
ATOM     35   O  A00 X   2      81.850  97.438  32.2540  0.00  0.00     0.000 OA
ATOM     36   O  A00 X   2      83.982  97.702  33.1330  0.00  0.00     0.000 O
ATOM     37   O  A00 X   2      83.598  98.274  30.8980  0.00  0.00     0.000 OA
ATOM     38   S  A00 X   2      83.203  97.269  31.8370  0.00  0.00     0.000 S
ATOM     39   O  A00 X   2      83.591  95.918  31.5640  0.00  0.00     0.000 OA
ENDBRANCH 24 34
BRANCH 20 40
ATOM     40  O4  A00 X   3      87.752 100.108  31.5220  0.00  0.00     0.000 O
BRANCH 40 44
ATOM     41  C1  A00 X   3      88.815  97.272  29.5330  0.00  0.00     0.000 C
ATOM     42  C2  A00 X   3      89.721  98.458  29.9310  0.00  0.00     0.000 C
ATOM     43  C3  A00 X   3      89.049  99.811  29.5850  0.00  0.00     0.000 C
ATOM     44  C4  A00 X   3      87.619  99.956  30.0930  0.00  0.00     0.000 C
ATOM     45  C5  A00 X   3      86.771  98.731  29.6490  0.00  0.00     0.000 C
ATOM     46  O5  A00 X   3      87.448  97.477  29.9850  0.00  0.00     0.000 O
ATOM     47   O  A00 X   3      89.833 100.977  29.8300  0.00  0.00     0.000 O
ATOM     49  HD  A00 X   3      89.072 101.297  30.0900  0.00  0.00     0.000 HD
BRANCH 42 49
ATOM     49   O  A00 X   3      89.974  98.341  31.3480  0.00  0.00     0.000 O
ATOM     50   O  A00 X   3      91.139  99.609  33.0110  0.00  0.00     0.000 OA
ATOM     51   O  A00 X   3      92.129  99.338  30.8810  0.00  0.00     0.000 OA
ATOM     52   O  A00 X   3      91.934  97.445  32.2820  0.00  0.00     0.000 OA
ATOM     53   S  A00 X   3      91.372  98.703  31.9300  0.00  0.00     0.000 S
ENDBRANCH 42 49
BRANCH 45 54
ATOM     54   C  A00 X   3      86.370  98.823  28.1720  0.00  0.00     0.000 C
ATOM     55   O  A00 X   3      86.836  99.686  27.4570  0.00  0.00     0.000 OA
ATOM     56   O  A00 X   3      85.576  98.031  27.6890  0.00  0.00     0.000 OA
ENDBRANCH 45 54
BRANCH 41 57
ATOM     57  O4  A00 X   4      88.928  96.963  28.1260  0.00  0.00     0.000 O
BRANCH 57 61
ATOM     58  C1  A00 X   4      88.718  93.266  25.9050  0.00  0.00     0.000 C
ATOM     59  C2  A00 X   4      87.474  93.720  26.7100  0.00  0.00     0.000 C
ATOM     60  C3  A00 X   4      87.534  95.195  27.1560  0.00  0.00     0.000 C
ATOM     61  C4  A00 X   4      88.892  95.544  27.8010  0.00  0.00     0.000 C
ATOM     62  C5  A00 X   4      89.975  95.208  26.7460  0.00  0.00     0.000 C
ATOM     63  O5  A00 X   4      89.945  93.785  26.4670  0.00  0.00     0.000 O
BRANCH 59 66
ATOM     64   N  A00 X   4      87.342  92.946  27.9580  0.00  0.00     0.000 N
ATOM     66  HD  A00 X   4      88.068  92.636  28.3150  0.00  0.00     0.000 HD
ATOM     66   O  A00 X   4      86.321  91.201  26.6510  0.00  0.00     0.000 OA
ATOM     67   S  A00 X   4      86.318  91.718  27.9830  0.00  0.00     0.000 S
ATOM     68   O  A00 X   4      86.939  90.883  28.9700  0.00  0.00     0.000 OA
ATOM     69   O  A00 X   4      85.132  92.386  28.4390  0.00  0.00     0.000 OA
ENDBRANCH 59 66
BRANCH 62 70
ATOM     70   C  A00 X   4      91.412  95.596  27.1690  0.00  0.00     0.000 C
ATOM     71   O  A00 X   4      93.485  94.122  29.7460  0.00  0.00     0.000 OA
ATOM     72   O  A00 X   4      92.964  96.374  29.2980  0.00  0.00     0.000 OA
ATOM     73   O  A00 X   4      91.933  94.591  28.0550  0.00  0.00     0.000 O
ATOM     74   O  A00 X   4      91.299  94.941  30.3530  0.00  0.00     0.000 OA
ATOM     75   S  A00 X   4      92.420  95.046  29.4750  0.00  0.00     0.000 S
ENDBRANCH 62 70
ENDBRANCH 57 61
ENDBRANCH 41 57
ENDBRANCH 40 44
ENDBRANCH 20 40
ENDBRANCH 19 23
ENDBRANCH 1 19
TORSDOF 14
ENDMDL
MODEL 71
REMARK VINA RESULT:      -1.4     47.254     51.735
ROOT
ATOM      1  C1  A00 X   1      52.166  61.212  84.5650  0.00  0.00     0.000 C
ATOM      2  C2  A00 X   1      51.485  62.561  84.9180  0.00  0.00     0.000 C
ATOM      3  C3  A00 X   1      50.171  62.468  85.7620  0.00  0.00     0.000 C
ATOM      4  C4  A00 X   1      49.517  61.064  85.8280  0.00  0.00     0.000 C
ATOM      5  C5  A00 X   1      49.938  60.175  84.6570  0.00  0.00     0.000 C
ATOM      6  O5  A00 X   1      51.367  60.026  84.8050  0.00  0.00     0.000 O
ATOM      7   O  A00 X   1      49.199  63.341  85.1920  0.00  0.00     0.000 O
ATOM      9  HD  A00 X   1      48.789  62.611  85.4110  0.00  0.00     0.000 HD
ATOM      9   O  A00 X   1      49.812  60.408  87.0610  0.00  0.00     0.000 O
ATOM     11  HD  A00 X   1      49.402  59.678  87.2800  0.00  0.00     0.000 HD
ENDROOT
BRANCH 2 11
ATOM     11   O  A00 X   1      52.446  63.363  85.6320  0.00  0.00     0.000 O
ATOM     12   O  A00 X   1      51.843  65.447  86.6640  0.00  0.00     0.000 OA
ATOM     13   O  A00 X   1      51.700  65.231  84.2450  0.00  0.00     0.000 OA
ATOM     14   O  A00 X   1      53.816  65.230  85.3310  0.00  0.00     0.000 OA
ATOM     15   S  A00 X   1      52.417  64.920  85.4510  0.00  0.00     0.000 S
ENDBRANCH 2 11
BRANCH 5 16
ATOM     16   C  A00 X   1      49.514  60.682  83.2740  0.00  0.00     0.000 C
ATOM     17   O  A00 X   1      49.979  60.144  82.2910  0.00  0.00     0.000 OA
ATOM     18   O  A00 X   1      48.726  61.595  83.1280  0.00  0.00     0.000 OA
ENDBRANCH 5 16
BRANCH 1 19
ATOM     19  O4  A00 X   2      52.739  61.203  83.2350  0.00  0.00     0.000 O
BRANCH 19 23
ATOM     20  C1  A00 X   2      56.236  59.030  84.4240  0.00  0.00     0.000 C
ATOM     21  C2  A00 X   2      56.356  60.569  84.3090  0.00  0.00     0.000 C
ATOM     22  C3  A00 X   2      54.962  61.230  84.3050  0.00  0.00     0.000 C
ATOM     23  C4  A00 X   2      54.070  60.613  83.2040  0.00  0.00     0.000 C
ATOM     24  C5  A00 X   2      54.047  59.075  83.4180  0.00  0.00     0.000 C
ATOM     25  O5  A00 X   2      55.405  58.570  83.3260  0.00  0.00     0.000 O
ATOM     26   O  A00 X   2      55.128  62.658  84.2660  0.00  0.00     0.000 O
ATOM     28  HD  A00 X   2      55.676  62.626  83.5960  0.00  0.00     0.000 HD
BRANCH 21 30
ATOM     28   N  A00 X   2      57.738  60.386  83.8540  0.00  0.00     0.000 N
ATOM     30  HD  A00 X   2      57.655  61.219  84.0730  0.00  0.00     0.000 HD
ATOM     30   O  A00 X   2      58.988  62.227  84.5630  0.00  0.00     0.000 OA
ATOM     31   S  A00 X   2      58.543  61.647  83.3460  0.00  0.00     0.000 S
ATOM     32   O  A00 X   2      59.576  61.085  82.5320  0.00  0.00     0.000 OA
ATOM     33   O  A00 X   2      57.648  62.427  82.5440  0.00  0.00     0.000 OA
ENDBRANCH 21 30
BRANCH 24 34
ATOM     34   C  A00 X   2      53.042  58.242  82.5890  0.00  0.00     0.000 C
ATOM     35   O  A00 X   2      54.009  55.737  80.1290  0.00  0.00     0.000 OA
ATOM     36   O  A00 X   2      53.690  57.606  81.4690  0.00  0.00     0.000 O
ATOM     37   O  A00 X   2      54.713  55.713  82.3860  0.00  0.00     0.000 OA
ATOM     38   S  A00 X   2      53.655  56.033  81.4780  0.00  0.00     0.000 S
ATOM     39   O  A00 X   2      52.324  55.660  81.8520  0.00  0.00     0.000 OA
ENDBRANCH 24 34
BRANCH 20 40
ATOM     40  O4  A00 X   3      55.566  58.786  85.6690  0.00  0.00     0.000 O
BRANCH 40 44
ATOM     41  C1  A00 X   3      52.976  56.950  87.4140  0.00  0.00     0.000 C
ATOM     42  C2  A00 X   3      53.875  58.028  88.0560  0.00  0.00     0.000 C
ATOM     43  C3  A00 X   3      55.372  57.747  87.7670  0.00  0.00     0.000 C
ATOM     44  C4  A00 X   3      55.697  57.494  86.3010  0.00  0.00     0.000 C
ATOM     45  C5  A00 X   3      54.756  56.397  85.7280  0.00  0.00     0.000 C
ATOM     46  O5  A00 X   3      53.356  56.697  86.0330  0.00  0.00     0.000 O
ATOM     47   O  A00 X   3      56.303  58.632  88.3860  0.00  0.00     0.000 O
ATOM     49  HD  A00 X   3      56.713  58.551  87.6280  0.00  0.00     0.000 HD
BRANCH 42 49
ATOM     49   O  A00 X   3      53.463  59.302  87.5130  0.00  0.00     0.000 O
ATOM     50   O  A00 X   3      54.146  61.585  87.7400  0.00  0.00     0.000 OA
ATOM     51   O  A00 X   3      54.045  60.227  89.6730  0.00  0.00     0.000 OA
ATOM     52   O  A00 X   3      52.023  60.807  88.5960  0.00  0.00     0.000 OA
ATOM     53   S  A00 X   3      53.413  60.565  88.4220  0.00  0.00     0.000 S
ENDBRANCH 42 49
BRANCH 45 54
ATOM     54   C  A00 X   3      55.183  54.994  86.1760  0.00  0.00     0.000 C
ATOM     55   O  A00 X   3      56.124  54.843  86.9280  0.00  0.00     0.000 OA
ATOM     56   O  A00 X   3      54.587  54.003  85.7820  0.00  0.00     0.000 OA
ENDBRANCH 45 54
BRANCH 41 57
ATOM     57  O4  A00 X   4      52.903  55.760  88.2300  0.00  0.00     0.000 O
BRANCH 57 61
ATOM     58  C1  A00 X   4      49.762  52.895  88.9850  0.00  0.00     0.000 C
ATOM     59  C2  A00 X   4      50.309  53.033  87.5420  0.00  0.00     0.000 C
ATOM     60  C3  A00 X   4      51.643  53.802  87.4610  0.00  0.00     0.000 C
ATOM     61  C4  A00 X   4      51.598  55.116  88.2700  0.00  0.00     0.000 C
ATOM     62  C5  A00 X   4      51.240  54.720  89.7240  0.00  0.00     0.000 C
ATOM     63  O5  A00 X   4      49.921  54.116  89.7430  0.00  0.00     0.000 O
BRANCH 59 66
ATOM     64   N  A00 X   4      49.367  53.797  86.7040  0.00  0.00     0.000 N
ATOM     66  HD  A00 X   4      48.861  54.378  87.0990  0.00  0.00     0.000 HD
ATOM     66   O  A00 X   4      48.119  51.757  86.4210  0.00  0.00     0.000 OA
ATOM     67   S  A00 X   4      48.381  52.986  85.7400  0.00  0.00     0.000 S
ATOM     68   O  A00 X   4      47.279  53.900  85.6710  0.00  0.00     0.000 OA
ATOM     69   O  A00 X   4      49.179  52.935  84.5480  0.00  0.00     0.000 OA
ENDBRANCH 59 66
BRANCH 62 70
ATOM     70   C  A00 X   4      51.253  55.902  90.7230  0.00  0.00     0.000 C
ATOM     71   O  A00 X   4      48.926  58.662  90.9920  0.00  0.00     0.000 OA
ATOM     72   O  A00 X   4      51.279  58.642  90.9170  0.00  0.00     0.000 OA
ATOM     73   O  A00 X   4      50.011  56.618  90.6280  0.00  0.00     0.000 O
ATOM     74   O  A00 X   4      50.007  58.269  88.8720  0.00  0.00     0.000 OA
ATOM     75   S  A00 X   4      50.071  58.149  90.2930  0.00  0.00     0.000 S
ENDBRANCH 62 70
ENDBRANCH 57 61
ENDBRANCH 41 57
ENDBRANCH 40 44
ENDBRANCH 20 40
ENDBRANCH 19 23
ENDBRANCH 1 19
TORSDOF 14
ENDMDL
MODEL 72
REMARK VINA RESULT:      -1.3     46.939     52.736
ROOT
ATOM      1  C1  A00 X   1      56.494  75.029  51.1660  0.00  0.00     0.000 C
ATOM      2  C2  A00 X   1      55.313  75.865  50.6060  0.00  0.00     0.000 C
ATOM      3  C3  A00 X   1      55.287  77.376  51.0100  0.00  0.00     0.000 C
ATOM      4  C4  A00 X   1      56.210  77.767  52.1930  0.00  0.00     0.000 C
ATOM      5  C5  A00 X   1      56.548  76.570  53.0820  0.00  0.00     0.000 C
ATOM      6  O5  A00 X   1      57.266  75.662  52.2170  0.00  0.00     0.000 O
ATOM      7   O  A00 X   1      53.961  77.723  51.4000  0.00  0.00     0.000 O
ATOM      9  HD  A00 X   1      54.500  78.107  51.9590  0.00  0.00     0.000 HD
ATOM      9   O  A00 X   1      57.414  78.383  51.7340  0.00  0.00     0.000 O
ATOM     11  HD  A00 X   1      57.953  78.766  52.2930  0.00  0.00     0.000 HD
ENDROOT
BRANCH 2 11
ATOM     11   O  A00 X   1      55.347  75.764  49.1690  0.00  0.00     0.000 O
ATOM     12   O  A00 X   1      53.900  77.073  47.7690  0.00  0.00     0.000 OA
ATOM     13   O  A00 X   1      52.929  75.433  49.2800  0.00  0.00     0.000 OA
ATOM     14   O  A00 X   1      54.216  74.732  47.4060  0.00  0.00     0.000 OA
ATOM     15   S  A00 X   1      53.994  75.770  48.3760  0.00  0.00     0.000 S
ENDBRANCH 2 11
BRANCH 5 16
ATOM     16   C  A00 X   1      55.349  75.927  53.7860  0.00  0.00     0.000 C
ATOM     17   O  A00 X   1      55.504  74.856  54.3350  0.00  0.00     0.000 OA
ATOM     18   O  A00 X   1      54.255  76.453  53.8200  0.00  0.00     0.000 OA
ENDBRANCH 5 16
BRANCH 1 19
ATOM     19  O4  A00 X   2      56.105  73.683  51.5350  0.00  0.00     0.000 O
BRANCH 19 23
ATOM     20  C1  A00 X   2      59.712  71.905  50.0540  0.00  0.00     0.000 C
ATOM     21  C2  A00 X   2      58.467  71.867  49.1350  0.00  0.00     0.000 C
ATOM     22  C3  A00 X   2      57.412  72.893  49.5970  0.00  0.00     0.000 C
ATOM     23  C4  A00 X   2      57.063  72.682  51.0880  0.00  0.00     0.000 C
ATOM     24  C5  A00 X   2      58.389  72.723  51.8950  0.00  0.00     0.000 C
ATOM     25  O5  A00 X   2      59.262  71.667  51.4150  0.00  0.00     0.000 O
ATOM     26   O  A00 X   2      56.309  72.868  48.6740  0.00  0.00     0.000 O
ATOM     28  HD  A00 X   2      56.230  72.007  48.7140  0.00  0.00     0.000 HD
BRANCH 21 30
ATOM     28   N  A00 X   2      58.916  70.560  48.6450  0.00  0.00     0.000 N
ATOM     30  HD  A00 X   2      58.320  70.847  48.0850  0.00  0.00     0.000 HD
ATOM     30   O  A00 X   2      58.240  70.348  46.4180  0.00  0.00     0.000 OA
ATOM     31   S  A00 X   2      57.967  69.747  47.6760  0.00  0.00     0.000 S
ATOM     32   O  A00 X   2      58.421  68.398  47.8120  0.00  0.00     0.000 OA
ATOM     33   O  A00 X   2      56.633  69.877  48.1820  0.00  0.00     0.000 OA
ENDBRANCH 21 30
BRANCH 24 34
ATOM     34   C  A00 X   2      58.298  72.765  53.4390  0.00  0.00     0.000 C
ATOM     35   O  A00 X   2      59.561  70.147  55.6310  0.00  0.00     0.000 OA
ATOM     36   O  A00 X   2      58.547  71.467  54.0130  0.00  0.00     0.000 O
ATOM     37   O  A00 X   2      60.878  71.271  54.0190  0.00  0.00     0.000 OA
ATOM     38   S  A00 X   2      59.802  71.380  54.9570  0.00  0.00     0.000 S
ATOM     39   O  A00 X   2      59.764  72.545  55.7890  0.00  0.00     0.000 OA
ENDBRANCH 24 34
BRANCH 20 40
ATOM     40  O4  A00 X   3      60.233  73.237  49.9470  0.00  0.00     0.000 O
BRANCH 40 44
ATOM     41  C1  A00 X   3      61.585  76.139  51.6440  0.00  0.00     0.000 C
ATOM     42  C2  A00 X   3      61.329  76.048  50.1240  0.00  0.00     0.000 C
ATOM     43  C3  A00 X   3      61.967  74.766  49.5290  0.00  0.00     0.000 C
ATOM     44  C4  A00 X   3      61.618  73.482  50.2720  0.00  0.00     0.000 C
ATOM     45  C5  A00 X   3      61.907  73.650  51.7900  0.00  0.00     0.000 C
ATOM     46  O5  A00 X   3      61.295  74.877  52.3060  0.00  0.00     0.000 O
ATOM     47   O  A00 X   3      61.869  74.620  48.1140  0.00  0.00     0.000 O
ATOM     49  HD  A00 X   3      61.736  73.790  48.3220  0.00  0.00     0.000 HD
BRANCH 42 49
ATOM     49   O  A00 X   3      59.897  76.062  49.9340  0.00  0.00     0.000 O
ATOM     50   O  A00 X   3      58.394  75.901  48.0780  0.00  0.00     0.000 OA
ATOM     51   O  A00 X   3      60.348  77.213  47.8530  0.00  0.00     0.000 OA
ATOM     52   O  A00 X   3      58.653  77.957  49.3230  0.00  0.00     0.000 OA
ATOM     53   S  A00 X   3      59.271  76.822  48.7290  0.00  0.00     0.000 S
ENDBRANCH 42 49
BRANCH 45 54
ATOM     54   C  A00 X   3      63.405  73.548  52.0980  0.00  0.00     0.000 C
ATOM     55   O  A00 X   3      63.799  73.494  53.2450  0.00  0.00     0.000 OA
ATOM     56   O  A00 X   3      64.228  73.520  51.1960  0.00  0.00     0.000 OA
ENDBRANCH 45 54
BRANCH 41 57
ATOM     57  O4  A00 X   4      62.899  76.666  51.9340  0.00  0.00     0.000 O
BRANCH 57 61
ATOM     58  C1  A00 X   4      64.437  79.136  55.1230  0.00  0.00     0.000 C
ATOM     59  C2  A00 X   4      63.843  77.750  55.4790  0.00  0.00     0.000 C
ATOM     60  C3  A00 X   4      63.664  76.826  54.2570  0.00  0.00     0.000 C
ATOM     61  C4  A00 X   4      62.969  77.553  53.0860  0.00  0.00     0.000 C
ATOM     62  C5  A00 X   4      63.843  78.789  52.7590  0.00  0.00     0.000 C
ATOM     63  O5  A00 X   4      63.867  79.674  53.9080  0.00  0.00     0.000 O
BRANCH 59 66
ATOM     64   N  A00 X   4      62.498  77.806  56.0790  0.00  0.00     0.000 N
ATOM     66  HD  A00 X   4      61.981  78.460  55.8410  0.00  0.00     0.000 HD
ATOM     66   O  A00 X   4      63.560  78.385  58.1610  0.00  0.00     0.000 OA
ATOM     67   S  A00 X   4      62.377  77.749  57.6730  0.00  0.00     0.000 S
ATOM     68   O  A00 X   4      61.159  78.481  57.8660  0.00  0.00     0.000 OA
ATOM     69   O  A00 X   4      62.249  76.333  57.8660  0.00  0.00     0.000 OA
ENDBRANCH 59 66
BRANCH 62 70
ATOM     70   C  A00 X   4      63.365  79.594  51.5280  0.00  0.00     0.000 C
ATOM     71   O  A00 X   4      60.392  81.630  51.1720  0.00  0.00     0.000 OA
ATOM     72   O  A00 X   4      61.273  79.945  49.7830  0.00  0.00     0.000 OA
ATOM     73   O  A00 X   4      62.274  80.446  51.9120  0.00  0.00     0.000 O
ATOM     74   O  A00 X   4      60.139  79.330  51.8500  0.00  0.00     0.000 OA
ATOM     75   S  A00 X   4      60.917  80.293  51.1400  0.00  0.00     0.000 S
ENDBRANCH 62 70
ENDBRANCH 57 61
ENDBRANCH 41 57
ENDBRANCH 40 44
ENDBRANCH 20 40
ENDBRANCH 19 23
ENDBRANCH 1 19
TORSDOF 14
ENDMDL
MODEL 73
REMARK VINA RESULT:      -1.3     84.839     88.587
ROOT
ATOM      1  C1  A00 X   1      63.370 106.242   7.3920  0.00  0.00     0.000 C
ATOM      2  C2  A00 X   1      63.452 106.612   5.8870  0.00  0.00     0.000 C
ATOM      3  C3  A00 X   1      63.701 105.425   4.8990  0.00  0.00     0.000 C
ATOM      4  C4  A00 X   1      64.197 104.108   5.5490  0.00  0.00     0.000 C
ATOM      5  C5  A00 X   1      64.861 104.347   6.9050  0.00  0.00     0.000 C
ATOM      6  O5  A00 X   1      63.815 104.905   7.7320  0.00  0.00     0.000 O
ATOM      7   O  A00 X   1      64.700 105.814   3.9600  0.00  0.00     0.000 O
ATOM      9  HD  A00 X   1      64.867 104.994   4.1850  0.00  0.00     0.000 HD
ATOM      9   O  A00 X   1      63.135 103.165   5.6920  0.00  0.00     0.000 O
ATOM     11  HD  A00 X   1      63.301 102.345   5.9170  0.00  0.00     0.000 HD
ENDROOT
BRANCH 2 11
ATOM     11   O  A00 X   1      62.220 107.269   5.5300  0.00  0.00     0.000 O
ATOM     12   O  A00 X   1      61.699 107.842   3.2570  0.00  0.00     0.000 OA
ATOM     13   O  A00 X   1      63.601 108.898   4.3440  0.00  0.00     0.000 OA
ATOM     14   O  A00 X   1      61.383 109.395   5.0460  0.00  0.00     0.000 OA
ATOM     15   S  A00 X   1      62.254 108.413   4.4580  0.00  0.00     0.000 S
ENDBRANCH 2 11
BRANCH 5 16
ATOM     16   C  A00 X   1      66.131 105.203   6.8620  0.00  0.00     0.000 C
ATOM     17   O  A00 X   1      66.593 105.610   7.9080  0.00  0.00     0.000 OA
ATOM     18   O  A00 X   1      66.694 105.481   5.8230  0.00  0.00     0.000 OA
ENDBRANCH 5 16
BRANCH 1 19
ATOM     19  O4  A00 X   2      63.982 107.237   8.2490  0.00  0.00     0.000 O
BRANCH 19 23
ATOM     20  C1  A00 X   2      60.980 106.914  11.2890  0.00  0.00     0.000 C
ATOM     21  C2  A00 X   2      60.840 108.067  10.2660  0.00  0.00     0.000 C
ATOM     22  C3  A00 X   2      61.708 107.803   9.0180  0.00  0.00     0.000 C
ATOM     23  C4  A00 X   2      63.175 107.535   9.4230  0.00  0.00     0.000 C
ATOM     24  C5  A00 X   2      63.178 106.378  10.4590  0.00  0.00     0.000 C
ATOM     25  O5  A00 X   2      62.390 106.780  11.6100  0.00  0.00     0.000 O
ATOM     26   O  A00 X   2      61.491 108.864   8.0720  0.00  0.00     0.000 O
ATOM     28  HD  A00 X   2      61.625 109.485   8.6620  0.00  0.00     0.000 HD
BRANCH 21 30
ATOM     28   N  A00 X   2      60.280 108.899  11.3360  0.00  0.00     0.000 N
ATOM     30  HD  A00 X   2      60.090 109.292  10.5880  0.00  0.00     0.000 HD
ATOM     30   O  A00 X   2      58.742 110.375  10.3820  0.00  0.00     0.000 OA
ATOM     31   S  A00 X   2      59.998 110.426  11.0420  0.00  0.00     0.000 S
ATOM     32   O  A00 X   2      59.973 111.023  12.3410  0.00  0.00     0.000 OA
ATOM     33   O  A00 X   2      61.109 110.924  10.2860  0.00  0.00     0.000 OA
ENDBRANCH 21 30
BRANCH 24 34
ATOM     34   C  A00 X   2      64.540 105.761  10.8540  0.00  0.00     0.000 C
ATOM     35   O  A00 X   2      65.948 105.900  14.2090  0.00  0.00     0.000 OA
ATOM     36   O  A00 X   2      64.995 106.268  12.1250  0.00  0.00     0.000 O
ATOM     37   O  A00 X   2      63.813 105.016  13.7080  0.00  0.00     0.000 OA
ATOM     38   S  A00 X   2      65.160 105.189  13.2570  0.00  0.00     0.000 S
ATOM     39   O  A00 X   2      65.807 104.063  12.6530  0.00  0.00     0.000 OA
ENDBRANCH 24 34
BRANCH 20 40
ATOM     40  O4  A00 X   3      60.528 105.735  10.6090  0.00  0.00     0.000 O
BRANCH 40 44
ATOM     41  C1  A00 X   3      61.087 102.235   9.8590  0.00  0.00     0.000 C
ATOM     42  C2  A00 X   3      59.924 103.081   9.2960  0.00  0.00     0.000 C
ATOM     43  C3  A00 X   3      59.176 103.822  10.4340  0.00  0.00     0.000 C
ATOM     44  C4  A00 X   3      60.077 104.602  11.3820  0.00  0.00     0.000 C
ATOM     45  C5  A00 X   3      61.217 103.685  11.9080  0.00  0.00     0.000 C
ATOM     46  O5  A00 X   3      61.888 102.998  10.8030  0.00  0.00     0.000 O
ATOM     47   O  A00 X   3      58.026 104.567  10.0400  0.00  0.00     0.000 O
ATOM     49  HD  A00 X   3      58.328 105.129  10.6250  0.00  0.00     0.000 HD
BRANCH 42 49
ATOM     49   O  A00 X   3      60.496 104.009   8.3480  0.00  0.00     0.000 O
ATOM     50   O  A00 X   3      59.691 105.791   6.9670  0.00  0.00     0.000 OA
ATOM     51   O  A00 X   3      58.405 103.815   7.1450  0.00  0.00     0.000 OA
ATOM     52   O  A00 X   3      60.481 103.711   6.0190  0.00  0.00     0.000 OA
ATOM     53   S  A00 X   3      59.734 104.364   7.0380  0.00  0.00     0.000 S
ENDBRANCH 42 49
BRANCH 45 54
ATOM     54   C  A00 X   3      60.718 102.728  12.9980  0.00  0.00     0.000 C
ATOM     55   O  A00 X   3      59.531 102.622  13.2320  0.00  0.00     0.000 OA
ATOM     56   O  A00 X   3      61.504 102.058  13.6500  0.00  0.00     0.000 OA
ENDBRANCH 45 54
BRANCH 41 57
ATOM     57  O4  A00 X   4      60.625 100.966  10.3730  0.00  0.00     0.000 O
BRANCH 57 61
ATOM     58  C1  A00 X   4      62.379  97.023  10.4860  0.00  0.00     0.000 C
ATOM     59  C2  A00 X   4      63.089  98.172  11.2450  0.00  0.00     0.000 C
ATOM     60  C3  A00 X   4      62.204  99.421  11.4350  0.00  0.00     0.000 C
ATOM     61  C4  A00 X   4      61.509  99.837  10.1210  0.00  0.00     0.000 C
ATOM     62  C5  A00 X   4      60.691  98.609   9.6520  0.00  0.00     0.000 C
ATOM     63  O5  A00 X   4      61.597  97.511   9.3720  0.00  0.00     0.000 O
BRANCH 59 66
ATOM     64   N  A00 X   4      64.267  98.643  10.4950  0.00  0.00     0.000 N
ATOM     66  HD  A00 X   4      64.254  98.559   9.6330  0.00  0.00     0.000 HD
ATOM     66   O  A00 X   4      65.480  96.785  11.4310  0.00  0.00     0.000 OA
ATOM     67   S  A00 X   4      65.709  98.106  10.9340  0.00  0.00     0.000 S
ATOM     68   O  A00 X   4      66.406  98.184   9.6840  0.00  0.00     0.000 OA
ATOM     69   O  A00 X   4      66.080  99.121  11.8790  0.00  0.00     0.000 OA
ENDBRANCH 59 66
BRANCH 62 70
ATOM     70   C  A00 X   4      59.827  98.867   8.3950  0.00  0.00     0.000 C
ATOM     71   O  A00 X   4      60.909  99.436   4.9870  0.00  0.00     0.000 OA
ATOM     72   O  A00 X   4      59.383 100.624   6.3310  0.00  0.00     0.000 OA
ATOM     73   O  A00 X   4      60.658  98.790   7.2250  0.00  0.00     0.000 O
ATOM     74   O  A00 X   4      61.776 100.865   6.7250  0.00  0.00     0.000 OA
ATOM     75   S  A00 X   4      60.704 100.037   6.2750  0.00  0.00     0.000 S
ENDBRANCH 62 70
ENDBRANCH 57 61
ENDBRANCH 41 57
ENDBRANCH 40 44
ENDBRANCH 20 40
ENDBRANCH 19 23
ENDBRANCH 1 19
TORSDOF 14
ENDMDL
MODEL 74
REMARK VINA RESULT:      -1.3     58.620     63.739
ROOT
ATOM      1  C1  A00 X   1      45.077  74.146  91.9370  0.00  0.00     0.000 C
ATOM      2  C2  A00 X   1      45.581  73.199  93.0580  0.00  0.00     0.000 C
ATOM      3  C3  A00 X   1      44.882  73.348  94.4500  0.00  0.00     0.000 C
ATOM      4  C4  A00 X   1      44.051  74.642  94.6460  0.00  0.00     0.000 C
ATOM      5  C5  A00 X   1      44.490  75.759  93.6990  0.00  0.00     0.000 C
ATOM      6  O5  A00 X   1      44.233  75.240  92.3750  0.00  0.00     0.000 O
ATOM      7   O  A00 X   1      45.882  73.352  95.4660  0.00  0.00     0.000 O
ATOM      9  HD  A00 X   1      45.301  73.957  95.6780  0.00  0.00     0.000 HD
ATOM      9   O  A00 X   1      42.654  74.394  94.4840  0.00  0.00     0.000 O
ATOM     11  HD  A00 X   1      42.073  75.000  94.6960  0.00  0.00     0.000 HD
ENDROOT
BRANCH 2 11
ATOM     11   O  A00 X   1      45.418  71.845  92.5940  0.00  0.00     0.000 O
ATOM     12   O  A00 X   1      45.810  69.956  94.0240  0.00  0.00     0.000 OA
ATOM     13   O  A00 X   1      47.662  71.430  93.4650  0.00  0.00     0.000 OA
ATOM     14   O  A00 X   1      46.677  70.046  91.7990  0.00  0.00     0.000 OA
ATOM     15   S  A00 X   1      46.466  70.763  93.0280  0.00  0.00     0.000 S
ENDBRANCH 2 11
BRANCH 5 16
ATOM     16   C  A00 X   1      45.929  76.247  93.8970  0.00  0.00     0.000 C
ATOM     17   O  A00 X   1      46.417  76.973  93.0560  0.00  0.00     0.000 OA
ATOM     18   O  A00 X   1      46.594  75.940  94.8670  0.00  0.00     0.000 OA
ENDBRANCH 5 16
BRANCH 1 19
ATOM     19  O4  A00 X   2      46.143  74.614  91.0760  0.00  0.00     0.000 O
BRANCH 19 23
ATOM     20  C1  A00 X   2      43.802  74.307  87.4990  0.00  0.00     0.000 C
ATOM     21  C2  A00 X   2      44.767  73.142  87.8230  0.00  0.00     0.000 C
ATOM     22  C3  A00 X   2      45.197  73.180  89.3050  0.00  0.00     0.000 C
ATOM     23  C4  A00 X   2      45.784  74.563  89.6650  0.00  0.00     0.000 C
ATOM     24  C5  A00 X   2      44.735  75.640  89.2770  0.00  0.00     0.000 C
ATOM     25  O5  A00 X   2      44.473  75.546  87.8530  0.00  0.00     0.000 O
ATOM     26   O  A00 X   2      46.035  72.042  89.5720  0.00  0.00     0.000 O
ATOM     28  HD  A00 X   2      46.547  72.196  88.8900  0.00  0.00     0.000 HD
BRANCH 21 30
ATOM     28   N  A00 X   2      44.998  72.979  86.3850  0.00  0.00     0.000 N
ATOM     30  HD  A00 X   2      45.286  72.258  86.7680  0.00  0.00     0.000 HD
ATOM     30   O  A00 X   2      45.403  70.717  85.9630  0.00  0.00     0.000 OA
ATOM     31   S  A00 X   2      46.100  71.953  85.9040  0.00  0.00     0.000 S
ATOM     32   O  A00 X   2      46.426  72.400  84.5850  0.00  0.00     0.000 OA
ATOM     33   O  A00 X   2      47.228  72.105  86.7740  0.00  0.00     0.000 OA
ENDBRANCH 21 30
BRANCH 24 34
ATOM     34   C  A00 X   2      44.980  77.094  89.7440  0.00  0.00     0.000 C
ATOM     35   O  A00 X   2      45.450  79.911  87.4860  0.00  0.00     0.000 OA
ATOM     36   O  A00 X   2      45.476  77.913  88.6660  0.00  0.00     0.000 O
ATOM     37   O  A00 X   2      43.566  78.482  87.4420  0.00  0.00     0.000 OA
ATOM     38   S  A00 X   2      44.552  79.119  88.2600  0.00  0.00     0.000 S
ATOM     39   O  A00 X   2      44.112  79.721  89.4830  0.00  0.00     0.000 OA
ENDBRANCH 24 34
BRANCH 20 40
ATOM     40  O4  A00 X   3      42.664  74.118  88.3530  0.00  0.00     0.000 O
BRANCH 40 44
ATOM     41  C1  A00 X   3      40.247  75.616  90.5970  0.00  0.00     0.000 C
ATOM     42  C2  A00 X   3      40.321  74.111  90.2610  0.00  0.00     0.000 C
ATOM     43  C3  A00 X   3      40.357  73.886  88.7270  0.00  0.00     0.000 C
ATOM     44  C4  A00 X   3      41.401  74.714  87.9900  0.00  0.00     0.000 C
ATOM     45  C5  A00 X   3      41.260  76.214  88.3750  0.00  0.00     0.000 C
ATOM     46  O5  A00 X   3      41.220  76.378  89.8300  0.00  0.00     0.000 O
ATOM     47   O  A00 X   3      40.338  72.526  88.2970  0.00  0.00     0.000 O
ATOM     49  HD  A00 X   3      40.900  72.823  87.7090  0.00  0.00     0.000 HD
BRANCH 42 49
ATOM     49   O  A00 X   3      41.509  73.593  90.8990  0.00  0.00     0.000 O
ATOM     50   O  A00 X   3      42.638  71.485  91.0050  0.00  0.00     0.000 OA
ATOM     51   O  A00 X   3      40.278  71.522  91.1390  0.00  0.00     0.000 OA
ATOM     52   O  A00 X   3      41.524  72.423  92.9350  0.00  0.00     0.000 OA
ATOM     53   S  A00 X   3      41.503  72.172  91.5350  0.00  0.00     0.000 S
ENDBRANCH 42 49
BRANCH 45 54
ATOM     54   C  A00 X   3      40.075  76.875  87.6610  0.00  0.00     0.000 C
ATOM     55   O  A00 X   3      39.840  78.056  87.8140  0.00  0.00     0.000 OA
ATOM     56   O  A00 X   3      39.346  76.225  86.9270  0.00  0.00     0.000 OA
ENDBRANCH 45 54
BRANCH 41 57
ATOM     57  O4  A00 X   4      38.896  76.120  90.4970  0.00  0.00     0.000 O
BRANCH 57 61
ATOM     58  C1  A00 X   4      36.737  79.181  92.6450  0.00  0.00     0.000 C
ATOM     59  C2  A00 X   4      38.003  79.586  91.8490  0.00  0.00     0.000 C
ATOM     60  C3  A00 X   4      38.472  78.509  90.8500  0.00  0.00     0.000 C
ATOM     61  C4  A00 X   4      38.530  77.110  91.5000  0.00  0.00     0.000 C
ATOM     62  C5  A00 X   4      37.108  76.823  92.0430  0.00  0.00     0.000 C
ATOM     63  O5  A00 X   4      36.782  77.798  93.0660  0.00  0.00     0.000 O
BRANCH 59 66
ATOM     64   N  A00 X   4      39.105  79.771  92.8100  0.00  0.00     0.000 N
ATOM     66  HD  A00 X   4      39.065  79.329  93.5540  0.00  0.00     0.000 HD
ATOM     66   O  A00 X   4      38.267  81.996  93.1900  0.00  0.00     0.000 OA
ATOM     67   S  A00 X   4      39.493  81.262  93.2410  0.00  0.00     0.000 S
ATOM     68   O  A00 X   4      40.016  81.024  94.5540  0.00  0.00     0.000 OA
ATOM     69   O  A00 X   4      40.493  81.558  92.2550  0.00  0.00     0.000 OA
ENDBRANCH 59 66
BRANCH 62 70
ATOM     70   C  A00 X   4      36.934  75.406  92.6410  0.00  0.00     0.000 C
ATOM     71   O  A00 X   4      38.401  74.026  95.6500  0.00  0.00     0.000 OA
ATOM     72   O  A00 X   4      38.290  73.163  93.4620  0.00  0.00     0.000 OA
ATOM     73   O  A00 X   4      37.495  75.377  93.9640  0.00  0.00     0.000 O
ATOM     74   O  A00 X   4      39.867  74.949  93.9720  0.00  0.00     0.000 OA
ATOM     75   S  A00 X   4      38.617  74.322  94.2610  0.00  0.00     0.000 S
ENDBRANCH 62 70
ENDBRANCH 57 61
ENDBRANCH 41 57
ENDBRANCH 40 44
ENDBRANCH 20 40
ENDBRANCH 19 23
ENDBRANCH 1 19
TORSDOF 14
ENDMDL
MODEL 75
REMARK VINA RESULT:      -1.3     58.428     62.325
ROOT
ATOM      1  C1  A00 X   1      70.300  78.814  64.0990  0.00  0.00     0.000 C
ATOM      2  C2  A00 X   1      69.668  79.800  63.0810  0.00  0.00     0.000 C
ATOM      3  C3  A00 X   1      70.538  80.145  61.8270  0.00  0.00     0.000 C
ATOM      4  C4  A00 X   1      72.038  79.766  61.9300  0.00  0.00     0.000 C
ATOM      5  C5  A00 X   1      72.503  79.638  63.3800  0.00  0.00     0.000 C
ATOM      6  O5  A00 X   1      71.715  78.555  63.9240  0.00  0.00     0.000 O
ATOM      7   O  A00 X   1      70.490  81.553  61.6110  0.00  0.00     0.000 O
ATOM      9  HD  A00 X   1      71.308  81.302  61.4780  0.00  0.00     0.000 HD
ATOM      9   O  A00 X   1      72.320  78.558  61.2240  0.00  0.00     0.000 O
ATOM     11  HD  A00 X   1      73.139  78.307  61.0910  0.00  0.00     0.000 HD
ENDROOT
BRANCH 2 11
ATOM     11   O  A00 X   1      68.417  79.235  62.6430  0.00  0.00     0.000 O
ATOM     12   O  A00 X   1      67.134  80.215  60.8650  0.00  0.00     0.000 OA
ATOM     13   O  A00 X   1      67.476  81.473  62.9190  0.00  0.00     0.000 OA
ATOM     14   O  A00 X   1      66.115  79.522  62.9130  0.00  0.00     0.000 OA
ATOM     15   S  A00 X   1      67.228  80.199  62.3030  0.00  0.00     0.000 S
ENDBRANCH 2 11
BRANCH 5 16
ATOM     16   C  A00 X   1      72.422  80.928  64.2030  0.00  0.00     0.000 C
ATOM     17   O  A00 X   1      72.552  80.858  65.4080  0.00  0.00     0.000 OA
ATOM     18   O  A00 X   1      72.240  82.015  63.6940  0.00  0.00     0.000 OA
ENDBRANCH 5 16
BRANCH 1 19
ATOM     19  O4  A00 X   2      69.991  79.152  65.4740  0.00  0.00     0.000 O
BRANCH 19 23
ATOM     20  C1  A00 X   2      69.466  75.074  66.6800  0.00  0.00     0.000 C
ATOM     21  C2  A00 X   2      68.194  75.888  66.3420  0.00  0.00     0.000 C
ATOM     22  C3  A00 X   2      68.550  77.151  65.5290  0.00  0.00     0.000 C
ATOM     23  C4  A00 X   2      69.620  77.987  66.2660  0.00  0.00     0.000 C
ATOM     24  C5  A00 X   2      70.828  77.058  66.5620  0.00  0.00     0.000 C
ATOM     25  O5  A00 X   2      70.377  75.954  67.3900  0.00  0.00     0.000 O
ATOM     26   O  A00 X   2      67.333  77.834  65.1820  0.00  0.00     0.000 O
ATOM     28  HD  A00 X   2      67.035  77.821  65.9950  0.00  0.00     0.000 HD
BRANCH 21 30
ATOM     28   N  A00 X   2      67.488  75.133  67.3820  0.00  0.00     0.000 N
ATOM     30  HD  A00 X   2      66.883  75.522  66.9000  0.00  0.00     0.000 HD
ATOM     30   O  A00 X   2      65.248  74.939  66.7460  0.00  0.00     0.000 OA
ATOM     31   S  A00 X   2      66.016  75.563  67.7650  0.00  0.00     0.000 S
ATOM     32   O  A00 X   2      65.835  75.020  69.0760  0.00  0.00     0.000 OA
ATOM     33   O  A00 X   2      65.992  76.995  67.8110  0.00  0.00     0.000 OA
ENDBRANCH 21 30
BRANCH 24 34
ATOM     34   C  A00 X   2      72.131  77.705  67.0890  0.00  0.00     0.000 C
ATOM     35   O  A00 X   2      72.336  79.688  70.1360  0.00  0.00     0.000 OA
ATOM     36   O  A00 X   2      71.850  78.703  68.0910  0.00  0.00     0.000 O
ATOM     37   O  A00 X   2      71.504  77.475  70.0520  0.00  0.00     0.000 OA
ATOM     38   S  A00 X   2      72.447  78.408  69.5160  0.00  0.00     0.000 S
ATOM     39   O  A00 X   2      73.788  77.950  69.3060  0.00  0.00     0.000 OA
ENDBRANCH 24 34
BRANCH 20 40
ATOM     40  O4  A00 X   3      70.039  74.708  65.4170  0.00  0.00     0.000 O
BRANCH 40 44
ATOM     41  C1  A00 X   3      73.031  74.422  63.3940  0.00  0.00     0.000 C
ATOM     42  C2  A00 X   3      71.603  74.094  62.9050  0.00  0.00     0.000 C
ATOM     43  C3  A00 X   3      70.886  73.136  63.8900  0.00  0.00     0.000 C
ATOM     44  C4  A00 X   3      70.932  73.575  65.3480  0.00  0.00     0.000 C
ATOM     45  C5  A00 X   3      72.398  73.881  65.7660  0.00  0.00     0.000 C
ATOM     46  O5  A00 X   3      73.038  74.780  64.8030  0.00  0.00     0.000 O
ATOM     47   O  A00 X   3      69.588  72.694  63.4960  0.00  0.00     0.000 O
ATOM     49  HD  A00 X   3      69.421  72.794  64.3400  0.00  0.00     0.000 HD
BRANCH 42 49
ATOM     49   O  A00 X   3      70.899  75.349  62.7830  0.00  0.00     0.000 O
ATOM     50   O  A00 X   3      68.683  76.043  62.2000  0.00  0.00     0.000 OA
ATOM     51   O  A00 X   3      69.702  74.313  60.9520  0.00  0.00     0.000 OA
ATOM     52   O  A00 X   3      70.573  76.502  60.7630  0.00  0.00     0.000 OA
ATOM     53   S  A00 X   3      69.900  75.579  61.6110  0.00  0.00     0.000 S
ENDBRANCH 42 49
BRANCH 45 54
ATOM     54   C  A00 X   3      73.197  72.597  66.0160  0.00  0.00     0.000 C
ATOM     55   O  A00 X   3      74.308  72.644  66.5020  0.00  0.00     0.000 OA
ATOM     56   O  A00 X   3      72.731  71.505  65.7290  0.00  0.00     0.000 OA
ENDBRANCH 45 54
BRANCH 41 57
ATOM     57  O4  A00 X   4      73.967  73.377  63.0480  0.00  0.00     0.000 O
BRANCH 57 61
ATOM     58  C1  A00 X   4      78.147  73.414  61.9690  0.00  0.00     0.000 C
ATOM     59  C2  A00 X   4      77.738  73.938  63.3680  0.00  0.00     0.000 C
ATOM     60  C3  A00 X   4      76.302  73.548  63.7750  0.00  0.00     0.000 C
ATOM     61  C4  A00 X   4      75.288  73.838  62.6470  0.00  0.00     0.000 C
ATOM     62  C5  A00 X   4      75.778  73.049  61.4080  0.00  0.00     0.000 C
ATOM     63  O5  A00 X   4      77.078  73.551  61.0050  0.00  0.00     0.000 O
BRANCH 59 66
ATOM     64   N  A00 X   4      77.758  75.410  63.4420  0.00  0.00     0.000 N
ATOM     66  HD  A00 X   4      77.600  75.849  62.7120  0.00  0.00     0.000 HD
ATOM     66   O  A00 X   4      80.142  75.262  63.7500  0.00  0.00     0.000 OA
ATOM     67   S  A00 X   4      79.045  76.119  64.0740  0.00  0.00     0.000 S
ATOM     68   O  A00 X   4      79.016  77.373  63.3800  0.00  0.00     0.000 OA
ATOM     69   O  A00 X   4      78.640  76.198  65.4490  0.00  0.00     0.000 OA
ENDBRANCH 59 66
BRANCH 62 70
ATOM     70   C  A00 X   4      74.824  73.125  60.1920  0.00  0.00     0.000 C
ATOM     71   O  A00 X   4      74.093  75.962  58.0650  0.00  0.00     0.000 OA
ATOM     72   O  A00 X   4      72.653  74.451  59.1560  0.00  0.00     0.000 OA
ATOM     73   O  A00 X   4      75.032  74.368  59.5020  0.00  0.00     0.000 O
ATOM     74   O  A00 X   4      73.771  76.192  60.4440  0.00  0.00     0.000 OA
ATOM     75   S  A00 X   4      73.799  75.319  59.3150  0.00  0.00     0.000 S
ENDBRANCH 62 70
ENDBRANCH 57 61
ENDBRANCH 41 57
ENDBRANCH 40 44
ENDBRANCH 20 40
ENDBRANCH 19 23
ENDBRANCH 1 19
TORSDOF 14
ENDMDL
MODEL 76
REMARK VINA RESULT:      -1.3     57.499     61.596
ROOT
ATOM      1  C1  A00 X   1      34.035  76.857  90.1630  0.00  0.00     0.000 C
ATOM      2  C2  A00 X   1      34.156  76.981  91.7050  0.00  0.00     0.000 C
ATOM      3  C3  A00 X   1      32.824  77.242  92.4810  0.00  0.00     0.000 C
ATOM      4  C4  A00 X   1      31.625  77.707  91.6140  0.00  0.00     0.000 C
ATOM      5  C5  A00 X   1      32.077  78.339  90.2970  0.00  0.00     0.000 C
ATOM      6  O5  A00 X   1      32.768  77.279  89.5990  0.00  0.00     0.000 O
ATOM      7   O  A00 X   1      33.049  78.269  93.4440  0.00  0.00     0.000 O
ATOM      9  HD  A00 X   1      32.276  78.421  93.0850  0.00  0.00     0.000 HD
ATOM      9   O  A00 X   1      30.725  76.632  91.3490  0.00  0.00     0.000 O
ATOM     11  HD  A00 X   1      29.951  76.784  90.9910  0.00  0.00     0.000 HD
ENDROOT
BRANCH 2 11
ATOM     11   O  A00 X   1      34.755  75.765  92.1970  0.00  0.00     0.000 O
ATOM     12   O  A00 X   1      34.930  75.295  94.5450  0.00  0.00     0.000 OA
ATOM     13   O  A00 X   1      36.138  77.192  93.6170  0.00  0.00     0.000 OA
ATOM     14   O  A00 X   1      36.773  74.969  93.0580  0.00  0.00     0.000 OA
ATOM     15   S  A00 X   1      35.694  75.836  93.4490  0.00  0.00     0.000 S
ENDBRANCH 2 11
BRANCH 5 16
ATOM     16   C  A00 X   1      32.906  79.619  90.4440  0.00  0.00     0.000 C
ATOM     17   O  A00 X   1      33.491  80.046  89.4700  0.00  0.00     0.000 OA
ATOM     18   O  A00 X   1      32.992  80.223  91.4940  0.00  0.00     0.000 OA
ENDBRANCH 5 16
BRANCH 1 19
ATOM     19  O4  A00 X   2      35.151  77.458  89.4620  0.00  0.00     0.000 O
BRANCH 19 23
ATOM     20  C1  A00 X   2      35.363  74.357  86.5110  0.00  0.00     0.000 C
ATOM     21  C2  A00 X   2      36.339  74.272  87.7090  0.00  0.00     0.000 C
ATOM     22  C3  A00 X   2      35.866  75.172  88.8690  0.00  0.00     0.000 C
ATOM     23  C4  A00 X   2      35.645  76.621  88.3780  0.00  0.00     0.000 C
ATOM     24  C5  A00 X   2      34.669  76.569  87.1710  0.00  0.00     0.000 C
ATOM     25  O5  A00 X   2      35.261  75.754  86.1260  0.00  0.00     0.000 O
ATOM     26   O  A00 X   2      36.765  75.005  89.9790  0.00  0.00     0.000 O
ATOM     28  HD  A00 X   2      37.470  75.133  89.4920  0.00  0.00     0.000 HD
BRANCH 21 30
ATOM     28   N  A00 X   2      37.339  73.695  86.8040  0.00  0.00     0.000 N
ATOM     30  HD  A00 X   2      37.610  73.536  87.6110  0.00  0.00     0.000 HD
ATOM     30   O  A00 X   2      38.666  72.217  88.0340  0.00  0.00     0.000 OA
ATOM     31   S  A00 X   2      38.803  73.452  87.3480  0.00  0.00     0.000 S
ATOM     32   O  A00 X   2      39.600  73.400  86.1620  0.00  0.00     0.000 OA
ATOM     33   O  A00 X   2      39.158  74.596  88.1350  0.00  0.00     0.000 OA
ENDBRANCH 21 30
BRANCH 24 34
ATOM     34   C  A00 X   2      34.103  77.906  86.6370  0.00  0.00     0.000 C
ATOM     35   O  A00 X   2      34.770  79.221  83.3080  0.00  0.00     0.000 OA
ATOM     36   O  A00 X   2      34.805  78.335  85.4530  0.00  0.00     0.000 O
ATOM     37   O  A00 X   2      33.850  77.082  83.7240  0.00  0.00     0.000 OA
ATOM     38   S  A00 X   2      33.925  78.445  84.1550  0.00  0.00     0.000 S
ATOM     39   O  A00 X   2      32.705  79.085  84.5450  0.00  0.00     0.000 OA
ENDBRANCH 24 34
BRANCH 20 40
ATOM     40  O4  A00 X   3      34.096  73.904  87.0100  0.00  0.00     0.000 O
BRANCH 40 44
ATOM     41  C1  A00 X   3      30.513  74.413  87.1780  0.00  0.00     0.000 C
ATOM     42  C2  A00 X   3      31.277  73.284  87.9030  0.00  0.00     0.000 C
ATOM     43  C3  A00 X   3      32.200  72.519  86.9210  0.00  0.00     0.000 C
ATOM     44  C4  A00 X   3      33.108  73.409  86.0810  0.00  0.00     0.000 C
ATOM     45  C5  A00 X   3      32.268  74.515  85.3810  0.00  0.00     0.000 C
ATOM     46  O5  A00 X   3      31.405  75.203  86.3430  0.00  0.00     0.000 O
ATOM     47   O  A00 X   3      32.892  71.395  87.4630  0.00  0.00     0.000 O
ATOM     49  HD  A00 X   3      33.535  71.693  86.9650  0.00  0.00     0.000 HD
BRANCH 42 49
ATOM     49   O  A00 X   3      32.033  73.900  88.9680  0.00  0.00     0.000 O
ATOM     50   O  A00 X   3      33.586  73.170  90.6380  0.00  0.00     0.000 OA
ATOM     51   O  A00 X   3      31.683  71.840  90.1890  0.00  0.00     0.000 OA
ATOM     52   O  A00 X   3      31.370  73.944  91.2200  0.00  0.00     0.000 OA
ATOM     53   S  A00 X   3      32.188  73.182  90.3400  0.00  0.00     0.000 S
ENDBRANCH 42 49
BRANCH 45 54
ATOM     54   C  A00 X   3      31.505  73.966  84.1700  0.00  0.00     0.000 C
ATOM     55   O  A00 X   3      31.467  72.773  83.9500  0.00  0.00     0.000 OA
ATOM     56   O  A00 X   3      30.923  74.719  83.4040  0.00  0.00     0.000 OA
ENDBRANCH 45 54
BRANCH 41 57
ATOM     57  O4  A00 X   4      29.349  73.911  86.4840  0.00  0.00     0.000 O
BRANCH 57 61
ATOM     58  C1  A00 X   4      25.451  75.588  85.6880  0.00  0.00     0.000 C
ATOM     59  C2  A00 X   4      26.698  76.301  85.1080  0.00  0.00     0.000 C
ATOM     60  C3  A00 X   4      27.974  75.437  85.1450  0.00  0.00     0.000 C
ATOM     61  C4  A00 X   4      28.182  74.780  86.5270  0.00  0.00     0.000 C
ATOM     62  C5  A00 X   4      26.906  73.949  86.8100  0.00  0.00     0.000 C
ATOM     63  O5  A00 X   4      25.763  74.840  86.8850  0.00  0.00     0.000 O
BRANCH 59 66
ATOM     64   N  A00 X   4      27.019  77.504  85.8980  0.00  0.00     0.000 N
ATOM     66  HD  A00 X   4      26.793  77.506  86.7330  0.00  0.00     0.000 HD
ATOM     66   O  A00 X   4      25.324  78.661  84.6390  0.00  0.00     0.000 OA
ATOM     67   S  A00 X   4      26.540  78.925  85.3420  0.00  0.00     0.000 S
ATOM     68   O  A00 X   4      26.397  79.649  86.5710  0.00  0.00     0.000 OA
ATOM     69   O  A00 X   4      27.692  79.297  84.5710  0.00  0.00     0.000 OA
ENDBRANCH 59 66
BRANCH 62 70
ATOM     70   C  A00 X   4      26.969  73.119  88.1150  0.00  0.00     0.000 C
ATOM     71   O  A00 X   4      26.932  74.286  91.5420  0.00  0.00     0.000 OA
ATOM     72   O  A00 X   4      28.364  72.765  90.4540  0.00  0.00     0.000 OA
ATOM     73   O  A00 X   4      26.677  73.971  89.2340  0.00  0.00     0.000 O
ATOM     74   O  A00 X   4      28.612  75.155  90.0460  0.00  0.00     0.000 OA
ATOM     75   S  A00 X   4      27.745  74.071  90.3780  0.00  0.00     0.000 S
ENDBRANCH 62 70
ENDBRANCH 57 61
ENDBRANCH 41 57
ENDBRANCH 40 44
ENDBRANCH 20 40
ENDBRANCH 19 23
ENDBRANCH 1 19
TORSDOF 14
ENDMDL
MODEL 77
REMARK VINA RESULT:      -1.3     60.776     64.593
ROOT
ATOM      1  C1  A00 X   1      49.535  80.940  12.9800  0.00  0.00     0.000 C
ATOM      2  C2  A00 X   1      50.425  79.694  13.2330  0.00  0.00     0.000 C
ATOM      3  C3  A00 X   1      49.695  78.432  13.8000  0.00  0.00     0.000 C
ATOM      4  C4  A00 X   1      48.279  78.682  14.3800  0.00  0.00     0.000 C
ATOM      5  C5  A00 X   1      48.073  80.141  14.7890  0.00  0.00     0.000 C
ATOM      6  O5  A00 X   1      48.207  80.889  13.5600  0.00  0.00     0.000 O
ATOM      7   O  A00 X   1      50.477  77.890  14.8620  0.00  0.00     0.000 O
ATOM      9  HD  A00 X   1      49.648  77.854  15.1110  0.00  0.00     0.000 HD
ATOM      9   O  A00 X   1      47.261  78.291  13.4590  0.00  0.00     0.000 O
ATOM     11  HD  A00 X   1      46.433  78.254  13.7080  0.00  0.00     0.000 HD
ENDROOT
BRANCH 2 11
ATOM     11   O  A00 X   1      51.059  79.348  11.9860  0.00  0.00     0.000 O
ATOM     12   O  A00 X   1      52.337  77.331  11.7280  0.00  0.00     0.000 OA
ATOM     13   O  A00 X   1      53.107  79.037  13.2810  0.00  0.00     0.000 OA
ATOM     14   O  A00 X   1      53.143  79.438  10.9370  0.00  0.00     0.000 OA
ATOM     15   S  A00 X   1      52.501  78.734  12.0140  0.00  0.00     0.000 S
ENDBRANCH 2 11
BRANCH 5 16
ATOM     16   C  A00 X   1      48.991  80.635  15.9110  0.00  0.00     0.000 C
ATOM     17   O  A00 X   1      49.034  81.825  16.1450  0.00  0.00     0.000 OA
ATOM     18   O  A00 X   1      49.669  79.880  16.5780  0.00  0.00     0.000 OA
ENDBRANCH 5 16
BRANCH 1 19
ATOM     19  O4  A00 X   2      50.205  82.183  13.3030  0.00  0.00     0.000 O
BRANCH 19 23
ATOM     20  C1  A00 X   2      48.618  84.270   9.9120  0.00  0.00     0.000 C
ATOM     21  C2  A00 X   2      50.055  83.706   9.7960  0.00  0.00     0.000 C
ATOM     22  C3  A00 X   2      50.317  82.640  10.8810  0.00  0.00     0.000 C
ATOM     23  C4  A00 X   2      50.006  83.206  12.2850  0.00  0.00     0.000 C
ATOM     24  C5  A00 X   2      48.552  83.753  12.2650  0.00  0.00     0.000 C
ATOM     25  O5  A00 X   2      48.458  84.793  11.2580  0.00  0.00     0.000 O
ATOM     26   O  A00 X   2      51.635  82.100  10.6880  0.00  0.00     0.000 O
ATOM     28  HD  A00 X   2      52.004  82.882  10.6460  0.00  0.00     0.000 HD
BRANCH 21 30
ATOM     28   N  A00 X   2      50.393  84.863   8.9610  0.00  0.00     0.000 N
ATOM     30  HD  A00 X   2      51.026  84.283   8.8530  0.00  0.00     0.000 HD
ATOM     30   O  A00 X   2      52.034  84.204   7.4340  0.00  0.00     0.000 OA
ATOM     31   S  A00 X   2      51.901  85.082   8.5430  0.00  0.00     0.000 S
ATOM     32   O  A00 X   2      51.965  86.474   8.2210  0.00  0.00     0.000 OA
ATOM     33   O  A00 X   2      52.705  84.800   9.6940  0.00  0.00     0.000 OA
ENDBRANCH 21 30
BRANCH 24 34
ATOM     34   C  A00 X   2      47.914  84.167  13.6120  0.00  0.00     0.000 C
ATOM     35   O  A00 X   2      49.396  86.560  15.9220  0.00  0.00     0.000 OA
ATOM     36   O  A00 X   2      48.869  84.836  14.4590  0.00  0.00     0.000 O
ATOM     37   O  A00 X   2      48.924  87.031  13.6530  0.00  0.00     0.000 OA
ATOM     38   S  A00 X   2      48.514  86.323  14.8270  0.00  0.00     0.000 S
ATOM     39   O  A00 X   2      47.120  86.336  15.1560  0.00  0.00     0.000 OA
ENDBRANCH 24 34
BRANCH 20 40
ATOM     40  O4  A00 X   3      47.745  83.146   9.7280  0.00  0.00     0.000 O
BRANCH 40 44
ATOM     41  C1  A00 X   3      44.813  81.371  10.9010  0.00  0.00     0.000 C
ATOM     42  C2  A00 X   3      45.715  80.908   9.7370  0.00  0.00     0.000 C
ATOM     43  C3  A00 X   3      45.930  82.052   8.7130  0.00  0.00     0.000 C
ATOM     44  C4  A00 X   3      46.377  83.374   9.3250  0.00  0.00     0.000 C
ATOM     45  C5  A00 X   3      45.420  83.774  10.4830  0.00  0.00     0.000 C
ATOM     46  O5  A00 X   3      45.238  82.662  11.4180  0.00  0.00     0.000 O
ATOM     47   O  A00 X   3      46.679  81.712   7.5470  0.00  0.00     0.000 O
ATOM     49  HD  A00 X   3      47.010  82.504   7.6660  0.00  0.00     0.000 HD
BRANCH 42 49
ATOM     49   O  A00 X   3      46.965  80.475  10.3160  0.00  0.00     0.000 O
ATOM     50   O  A00 X   3      49.064  79.664   9.4990  0.00  0.00     0.000 OA
ATOM     51   O  A00 X   3      47.071  78.885   8.4940  0.00  0.00     0.000 OA
ATOM     52   O  A00 X   3      47.541  78.234  10.7170  0.00  0.00     0.000 OA
ATOM     53   S  A00 X   3      47.718  79.244   9.7310  0.00  0.00     0.000 S
ENDBRANCH 42 49
BRANCH 45 54
ATOM     54   C  A00 X   3      44.097  84.342   9.9550  0.00  0.00     0.000 C
ATOM     55   O  A00 X   3      43.275  84.807  10.7180  0.00  0.00     0.000 OA
ATOM     56   O  A00 X   3      43.847  84.336   8.7600  0.00  0.00     0.000 OA
ENDBRANCH 45 54
BRANCH 41 57
ATOM     57  O4  A00 X   4      43.413  81.311  10.5490  0.00  0.00     0.000 O
BRANCH 57 61
ATOM     58  C1  A00 X   4      39.844  80.448  12.8200  0.00  0.00     0.000 C
ATOM     59  C2  A00 X   4      40.700  81.675  13.2220  0.00  0.00     0.000 C
ATOM     60  C3  A00 X   4      41.723  82.090  12.1450  0.00  0.00     0.000 C
ATOM     61  C4  A00 X   4      42.524  80.880  11.6180  0.00  0.00     0.000 C
ATOM     62  C5  A00 X   4      41.481  79.872  11.0740  0.00  0.00     0.000 C
ATOM     63  O5  A00 X   4      40.633  79.429  12.1640  0.00  0.00     0.000 O
BRANCH 59 66
ATOM     64   N  A00 X   4      41.450  81.232  14.4120  0.00  0.00     0.000 N
ATOM     66  HD  A00 X   4      41.583  80.382  14.5070  0.00  0.00     0.000 HD
ATOM     66   O  A00 X   4      39.536  81.864  15.7300  0.00  0.00     0.000 OA
ATOM     67   S  A00 X   4      40.955  81.731  15.8480  0.00  0.00     0.000 S
ATOM     68   O  A00 X   4      41.406  80.646  16.6690  0.00  0.00     0.000 OA
ATOM     69   O  A00 X   4      41.730  82.932  15.9810  0.00  0.00     0.000 OA
ENDBRANCH 59 66
BRANCH 62 70
ATOM     70   C  A00 X   4      42.101  78.626  10.3960  0.00  0.00     0.000 C
ATOM     71   O  A00 X   4      43.885  75.872  11.9240  0.00  0.00     0.000 OA
ATOM     72   O  A00 X   4      44.430  77.209  10.0640  0.00  0.00     0.000 OA
ATOM     73   O  A00 X   4      42.489  77.680  11.4050  0.00  0.00     0.000 O
ATOM     74   O  A00 X   4      44.678  78.116  12.3120  0.00  0.00     0.000 OA
ATOM     75   S  A00 X   4      43.988  77.220  11.4410  0.00  0.00     0.000 S
ENDBRANCH 62 70
ENDBRANCH 57 61
ENDBRANCH 41 57
ENDBRANCH 40 44
ENDBRANCH 20 40
ENDBRANCH 19 23
ENDBRANCH 1 19
TORSDOF 14
ENDMDL
MODEL 78
REMARK VINA RESULT:      -1.3     60.667     65.854
ROOT
ATOM      1  C1  A00 X   1      66.619  70.825  87.4280  0.00  0.00     0.000 C
ATOM      2  C2  A00 X   1      66.137  71.681  88.6290  0.00  0.00     0.000 C
ATOM      3  C3  A00 X   1      66.636  71.229  90.0410  0.00  0.00     0.000 C
ATOM      4  C4  A00 X   1      67.232  69.800  90.1130  0.00  0.00     0.000 C
ATOM      5  C5  A00 X   1      66.742  68.912  88.9690  0.00  0.00     0.000 C
ATOM      6  O5  A00 X   1      67.229  69.555  87.7700  0.00  0.00     0.000 O
ATOM      7   O  A00 X   1      65.535  71.255  90.9450  0.00  0.00     0.000 O
ATOM      9  HD  A00 X   1      65.989  70.537  91.1160  0.00  0.00     0.000 HD
ATOM      9   O  A00 X   1      68.659  69.829  90.1230  0.00  0.00     0.000 O
ATOM     11  HD  A00 X   1      69.113  69.112  90.2930  0.00  0.00     0.000 HD
ENDROOT
BRANCH 2 11
ATOM     11   O  A00 X   1      66.557  73.040  88.3950  0.00  0.00     0.000 O
ATOM     12   O  A00 X   1      66.333  74.745  90.0710  0.00  0.00     0.000 OA
ATOM     13   O  A00 X   1      64.334  73.706  89.1550  0.00  0.00     0.000 OA
ATOM     14   O  A00 X   1      65.683  75.122  87.8020  0.00  0.00     0.000 OA
ATOM     15   S  A00 X   1      65.657  74.212  88.9160  0.00  0.00     0.000 S
ENDBRANCH 2 11
BRANCH 5 16
ATOM     16   C  A00 X   1      65.233  68.649  88.9540  0.00  0.00     0.000 C
ATOM     17   O  A00 X   1      64.742  68.137  87.9680  0.00  0.00     0.000 OA
ATOM     18   O  A00 X   1      64.513  68.928  89.8920  0.00  0.00     0.000 OA
ENDBRANCH 5 16
BRANCH 1 19
ATOM     19  O4  A00 X   2      65.603  70.664  86.4090  0.00  0.00     0.000 O
BRANCH 19 23
ATOM     20  C1  A00 X   2      68.368  71.052  83.1580  0.00  0.00     0.000 C
ATOM     21  C2  A00 X   2      67.562  72.310  83.5640  0.00  0.00     0.000 C
ATOM     22  C3  A00 X   2      66.960  72.144  84.9750  0.00  0.00     0.000 C
ATOM     23  C4  A00 X   2      66.129  70.844  85.0620  0.00  0.00     0.000 C
ATOM     24  C5  A00 X   2      67.038  69.668  84.6150  0.00  0.00     0.000 C
ATOM     25  O5  A00 X   2      67.477  69.909  83.2520  0.00  0.00     0.000 O
ATOM     26   O  A00 X   2      66.282  73.360  85.3330  0.00  0.00     0.000 O
ATOM     28  HD  A00 X   2      65.836  73.389  84.5910  0.00  0.00     0.000 HD
BRANCH 21 30
ATOM     28   N  A00 X   2      67.533  72.702  82.1520  0.00  0.00     0.000 N
ATOM     30  HD  A00 X   2      67.314  73.403  82.6110  0.00  0.00     0.000 HD
ATOM     30   O  A00 X   2      67.530  75.036  82.0450  0.00  0.00     0.000 OA
ATOM     31   S  A00 X   2      66.666  73.954  81.7300  0.00  0.00     0.000 S
ATOM     32   O  A00 X   2      66.435  73.752  80.3330  0.00  0.00     0.000 OA
ATOM     33   O  A00 X   2      65.431  73.878  82.4540  0.00  0.00     0.000 OA
ENDBRANCH 21 30
BRANCH 24 34
ATOM     34   C  A00 X   2      66.519  68.227  84.8290  0.00  0.00     0.000 C
ATOM     35   O  A00 X   2      63.408  66.950  83.4320  0.00  0.00     0.000 OA
ATOM     36   O  A00 X   2      65.127  68.114  84.4700  0.00  0.00     0.000 O
ATOM     37   O  A00 X   2      65.141  67.911  82.1400  0.00  0.00     0.000 OA
ATOM     38   S  A00 X   2      64.817  67.123  83.2900  0.00  0.00     0.000 S
ATOM     39   O  A00 X   2      65.599  65.948  83.5310  0.00  0.00     0.000 OA
ENDBRANCH 24 34
BRANCH 20 40
ATOM     40  O4  A00 X   3      69.412  70.929  84.1340  0.00  0.00     0.000 O
BRANCH 40 44
ATOM     41  C1  A00 X   3      71.280  68.750  86.3450  0.00  0.00     0.000 C
ATOM     42  C2  A00 X   3      71.485  70.276  86.2340  0.00  0.00     0.000 C
ATOM     43  C3  A00 X   3      71.667  70.706  84.7550  0.00  0.00     0.000 C
ATOM     44  C4  A00 X   3      70.600  70.176  83.8060  0.00  0.00     0.000 C
ATOM     45  C5  A00 X   3      70.457  68.637  83.9720  0.00  0.00     0.000 C
ATOM     46  O5  A00 X   3      70.297  68.276  85.3830  0.00  0.00     0.000 O
ATOM     47   O  A00 X   3      71.951  72.087  84.5390  0.00  0.00     0.000 O
ATOM     49  HD  A00 X   3      71.423  71.973  83.8620  0.00  0.00     0.000 HD
BRANCH 42 49
ATOM     49   O  A00 X   3      70.326  70.903  86.8270  0.00  0.00     0.000 O
ATOM     50   O  A00 X   3      69.542  73.141  87.1500  0.00  0.00     0.000 OA
ATOM     51   O  A00 X   3      71.832  72.672  87.5030  0.00  0.00     0.000 OA
ATOM     52   O  A00 X   3      70.251  71.767  89.0090  0.00  0.00     0.000 OA
ATOM     53   S  A00 X   3      70.481  72.200  87.6740  0.00  0.00     0.000 S
ENDBRANCH 42 49
BRANCH 45 54
ATOM     54   C  A00 X   3      71.599  67.882  83.2820  0.00  0.00     0.000 C
ATOM     55   O  A00 X   3      72.559  68.481  82.8410  0.00  0.00     0.000 OA
ATOM     56   O  A00 X   3      71.563  66.668  83.1620  0.00  0.00     0.000 OA
ENDBRANCH 45 54
BRANCH 41 57
ATOM     57  O4  A00 X   4      72.537  68.038  86.2990  0.00  0.00     0.000 O
BRANCH 57 61
ATOM     58  C1  A00 X   4      73.926  64.405  88.1730  0.00  0.00     0.000 C
ATOM     59  C2  A00 X   4      72.719  64.325  87.2060  0.00  0.00     0.000 C
ATOM     60  C3  A00 X   4      72.544  65.586  86.3350  0.00  0.00     0.000 C
ATOM     61  C4  A00 X   4      72.623  66.879  87.1760  0.00  0.00     0.000 C
ATOM     62  C5  A00 X   4      73.996  66.850  87.8920  0.00  0.00     0.000 C
ATOM     63  O5  A00 X   4      74.043  65.709  88.7870  0.00  0.00     0.000 O
BRANCH 59 66
ATOM     64   N  A00 X   4      71.470  64.200  87.9800  0.00  0.00     0.000 N
ATOM     66  HD  A00 X   4      71.459  64.536  88.7780  0.00  0.00     0.000 HD
ATOM     66   O  A00 X   4      71.928  61.841  88.1450  0.00  0.00     0.000 OA
ATOM     67   S  A00 X   4      70.822  62.746  88.1400  0.00  0.00     0.000 S
ATOM     68   O  A00 X   4      70.146  62.902  89.3950  0.00  0.00     0.000 OA
ATOM     69   O  A00 X   4      69.949  62.732  87.0010  0.00  0.00     0.000 OA
ENDBRANCH 59 66
BRANCH 62 70
ATOM     70   C  A00 X   4      74.311  68.127  88.7070  0.00  0.00     0.000 C
ATOM     71   O  A00 X   4      72.758  69.305  91.7570  0.00  0.00     0.000 OA
ATOM     72   O  A00 X   4      73.219  70.426  89.7390  0.00  0.00     0.000 OA
ATOM     73   O  A00 X   4      73.627  68.066  89.9680  0.00  0.00     0.000 O
ATOM     74   O  A00 X   4      71.355  68.860  89.8470  0.00  0.00     0.000 OA
ATOM     75   S  A00 X   4      72.646  69.236  90.3280  0.00  0.00     0.000 S
ENDBRANCH 62 70
ENDBRANCH 57 61
ENDBRANCH 41 57
ENDBRANCH 40 44
ENDBRANCH 20 40
ENDBRANCH 19 23
ENDBRANCH 1 19
TORSDOF 14
ENDMDL
MODEL 79
REMARK VINA RESULT:      -1.3     62.003     66.356
ROOT
ATOM      1  C1  A00 X   1      45.743  93.642  26.3560  0.00  0.00     0.000 C
ATOM      2  C2  A00 X   1      46.884  94.513  25.7650  0.00  0.00     0.000 C
ATOM      3  C3  A00 X   1      48.152  93.742  25.2720  0.00  0.00     0.000 C
ATOM      4  C4  A00 X   1      48.275  92.275  25.7600  0.00  0.00     0.000 C
ATOM      5  C5  A00 X   1      47.464  92.020  27.0300  0.00  0.00     0.000 C
ATOM      6  O5  A00 X   1      46.092  92.266  26.6460  0.00  0.00     0.000 O
ATOM      7   O  A00 X   1      49.313  94.423  25.7430  0.00  0.00     0.000 O
ATOM      9  HD  A00 X   1      49.459  93.574  25.8380  0.00  0.00     0.000 HD
ATOM      9   O  A00 X   1      47.882  91.353  24.7440  0.00  0.00     0.000 O
ATOM     11  HD  A00 X   1      48.028  90.504  24.8390  0.00  0.00     0.000 HD
ENDROOT
BRANCH 2 11
ATOM     11   O  A00 X   1      46.336  95.266  24.6660  0.00  0.00     0.000 O
ATOM     12   O  A00 X   1      47.722  96.585  23.2140  0.00  0.00     0.000 OA
ATOM     13   O  A00 X   1      47.550  97.185  25.5650  0.00  0.00     0.000 OA
ATOM     14   O  A00 X   1      45.680  97.439  24.1170  0.00  0.00     0.000 OA
ATOM     15   S  A00 X   1      46.888  96.706  24.3830  0.00  0.00     0.000 S
ENDBRANCH 2 11
BRANCH 5 16
ATOM     16   C  A00 X   1      47.910  92.822  28.2560  0.00  0.00     0.000 C
ATOM     17   O  A00 X   1      47.193  92.835  29.2360  0.00  0.00     0.000 OA
ATOM     18   O  A00 X   1      48.957  93.439  28.2860  0.00  0.00     0.000 OA
ENDBRANCH 5 16
BRANCH 1 19
ATOM     19  O4  A00 X   2      45.085  94.269  27.4840  0.00  0.00     0.000 O
BRANCH 19 23
ATOM     20  C1  A00 X   2      41.172  92.969  26.3150  0.00  0.00     0.000 C
ATOM     21  C2  A00 X   2      41.590  94.410  25.9330  0.00  0.00     0.000 C
ATOM     22  C3  A00 X   2      43.121  94.580  26.0230  0.00  0.00     0.000 C
ATOM     23  C4  A00 X   2      43.634  94.155  27.4170  0.00  0.00     0.000 C
ATOM     24  C5  A00 X   2      43.136  92.709  27.6870  0.00  0.00     0.000 C
ATOM     25  O5  A00 X   2      41.685  92.700  27.6470  0.00  0.00     0.000 O
ATOM     26   O  A00 X   2      43.463  95.909  25.5950  0.00  0.00     0.000 O
ATOM     28  HD  A00 X   2      42.880  96.281  26.1150  0.00  0.00     0.000 HD
BRANCH 21 30
ATOM     28   N  A00 X   2      40.198  94.825  26.1340  0.00  0.00     0.000 N
ATOM     30  HD  A00 X   2      40.588  95.459  25.6910  0.00  0.00     0.000 HD
ATOM     30   O  A00 X   2      39.742  96.576  24.6560  0.00  0.00     0.000 OA
ATOM     31   S  A00 X   2      39.848  96.365  26.0560  0.00  0.00     0.000 S
ATOM     32   O  A00 X   2      38.617  96.469  26.7770  0.00  0.00     0.000 OA
ATOM     33   O  A00 X   2      40.888  97.071  26.7430  0.00  0.00     0.000 OA
ENDBRANCH 21 30
BRANCH 24 34
ATOM     34   C  A00 X   2      43.704  91.963  28.9170  0.00  0.00     0.000 C
ATOM     35   O  A00 X   2      41.692  90.868  31.7480  0.00  0.00     0.000 OA
ATOM     36   O  A00 X   2      42.767  91.974  30.0130  0.00  0.00     0.000 O
ATOM     37   O  A00 X   2      41.254  90.265  29.5030  0.00  0.00     0.000 OA
ATOM     38   S  A00 X   2      42.261  90.559  30.4770  0.00  0.00     0.000 S
ATOM     39   O  A00 X   2      43.413  89.710  30.5170  0.00  0.00     0.000 OA
ENDBRANCH 24 34
BRANCH 20 40
ATOM     40  O4  A00 X   3      41.825  92.112  25.3670  0.00  0.00     0.000 O
BRANCH 40 44
ATOM     41  C1  A00 X   3      43.721  89.082  24.7750  0.00  0.00     0.000 C
ATOM     42  C2  A00 X   3      43.326  90.101  23.6840  0.00  0.00     0.000 C
ATOM     43  C3  A00 X   3      41.809  90.416  23.7410  0.00  0.00     0.000 C
ATOM     44  C4  A00 X   3      41.293  90.792  25.1240  0.00  0.00     0.000 C
ATOM     45  C5  A00 X   3      41.725  89.720  26.1640  0.00  0.00     0.000 C
ATOM     46  O5  A00 X   3      43.161  89.447  26.0670  0.00  0.00     0.000 O
ATOM     47   O  A00 X   3      41.314  91.281  22.7220  0.00  0.00     0.000 O
ATOM     49  HD  A00 X   3      40.840  91.594  23.3750  0.00  0.00     0.000 HD
BRANCH 42 49
ATOM     49   O  A00 X   3      44.120  91.287  23.9040  0.00  0.00     0.000 O
ATOM     50   O  A00 X   3      44.308  93.456  22.9090  0.00  0.00     0.000 OA
ATOM     51   O  A00 X   3      44.066  91.572  21.5020  0.00  0.00     0.000 OA
ATOM     52   O  A00 X   3      46.077  91.818  22.7190  0.00  0.00     0.000 OA
ATOM     53   S  A00 X   3      44.681  92.093  22.6970  0.00  0.00     0.000 S
ENDBRANCH 42 49
BRANCH 45 54
ATOM     54   C  A00 X   3      40.863  88.455  26.0680  0.00  0.00     0.000 C
ATOM     55   O  A00 X   3      40.940  87.588  26.9130  0.00  0.00     0.000 OA
ATOM     56   O  A00 X   3      40.085  88.298  25.1390  0.00  0.00     0.000 OA
ENDBRANCH 45 54
BRANCH 41 57
ATOM     57  O4  A00 X   4      43.430  87.726  24.3700  0.00  0.00     0.000 O
BRANCH 57 61
ATOM     58  C1  A00 X   4      45.370  83.947  25.1450  0.00  0.00     0.000 C
ATOM     59  C2  A00 X   4      44.804  84.750  26.3430  0.00  0.00     0.000 C
ATOM     60  C3  A00 X   4      43.836  85.876  25.9270  0.00  0.00     0.000 C
ATOM     61  C4  A00 X   4      44.414  86.734  24.7810  0.00  0.00     0.000 C
ATOM     62  C5  A00 X   4      44.712  85.759  23.6150  0.00  0.00     0.000 C
ATOM     63  O5  A00 X   4      45.720  84.806  24.0350  0.00  0.00     0.000 O
BRANCH 59 66
ATOM     64   N  A00 X   4      45.893  85.422  27.0750  0.00  0.00     0.000 N
ATOM     66  HD  A00 X   4      46.603  85.636  26.6270  0.00  0.00     0.000 HD
ATOM     66   O  A00 X   4      46.294  83.331  28.2000  0.00  0.00     0.000 OA
ATOM     67   S  A00 X   4      46.444  84.737  28.4110  0.00  0.00     0.000 S
ATOM     68   O  A00 X   4      47.794  85.220  28.4110  0.00  0.00     0.000 OA
ATOM     69   O  A00 X   4      45.595  85.363  29.3850  0.00  0.00     0.000 OA
ENDBRANCH 59 66
BRANCH 62 70
ATOM     70   C  A00 X   4      45.201  86.453  22.3210  0.00  0.00     0.000 C
ATOM     71   O  A00 X   4      48.358  88.113  21.7000  0.00  0.00     0.000 OA
ATOM     72   O  A00 X   4      46.148  88.818  21.2940  0.00  0.00     0.000 OA
ATOM     73   O  A00 X   4      46.600  86.754  22.4430  0.00  0.00     0.000 O
ATOM     74   O  A00 X   4      47.021  88.842  23.5690  0.00  0.00     0.000 OA
ATOM     75   S  A00 X   4      47.048  88.247  22.2720  0.00  0.00     0.000 S
ENDBRANCH 62 70
ENDBRANCH 57 61
ENDBRANCH 41 57
ENDBRANCH 40 44
ENDBRANCH 20 40
ENDBRANCH 19 23
ENDBRANCH 1 19
TORSDOF 14
ENDMDL
MODEL 80
REMARK VINA RESULT:      -1.3     60.651     64.882
ROOT
ATOM      1  C1  A00 X   1      96.207  53.663  38.7140  0.00  0.00     0.000 C
ATOM      2  C2  A00 X   1      96.632  53.504  37.2300  0.00  0.00     0.000 C
ATOM      3  C3  A00 X   1      96.950  52.047  36.7580  0.00  0.00     0.000 C
ATOM      4  C4  A00 X   1      97.160  51.009  37.8900  0.00  0.00     0.000 C
ATOM      5  C5  A00 X   1      97.555  51.667  39.2110  0.00  0.00     0.000 C
ATOM      6  O5  A00 X   1      96.428  52.504  39.5560  0.00  0.00     0.000 O
ATOM      7   O  A00 X   1      98.156  52.065  35.9970  0.00  0.00     0.000 O
ATOM      9  HD  A00 X   1      98.184  51.364  36.5040  0.00  0.00     0.000 HD
ATOM      9   O  A00 X   1      95.997  50.203  38.0810  0.00  0.00     0.000 O
ATOM     11  HD  A00 X   1      96.025  49.502  38.5880  0.00  0.00     0.000 HD
ENDROOT
BRANCH 2 11
ATOM     11   O  A00 X   1      95.576  54.043  36.4110  0.00  0.00     0.000 O
ATOM     12   O  A00 X   1      95.588  53.826  34.0190  0.00  0.00     0.000 OA
ATOM     13   O  A00 X   1      97.336  55.122  35.1050  0.00  0.00     0.000 OA
ATOM     14   O  A00 X   1      95.090  55.905  35.0880  0.00  0.00     0.000 OA
ATOM     15   S  A00 X   1      95.949  54.752  35.0630  0.00  0.00     0.000 S
ENDBRANCH 2 11
BRANCH 5 16
ATOM     16   C  A00 X   1      98.891  52.417  39.1880  0.00  0.00     0.000 C
ATOM     17   O  A00 X   1      99.161  53.151  40.1150  0.00  0.00     0.000 OA
ATOM     18   O  A00 X   1      99.689  52.297  38.2800  0.00  0.00     0.000 OA
ENDBRANCH 5 16
BRANCH 1 19
ATOM     19  O4  A00 X   2      96.734  54.867  39.3230  0.00  0.00     0.000 O
BRANCH 19 23
ATOM     20  C1  A00 X   2      93.146  55.695  41.5160  0.00  0.00     0.000 C
ATOM     21  C2  A00 X   2      93.355  56.445  40.1780  0.00  0.00     0.000 C
ATOM     22  C3  A00 X   2      94.428  55.746  39.3180  0.00  0.00     0.000 C
ATOM     23  C4  A00 X   2      95.738  55.572  40.1190  0.00  0.00     0.000 C
ATOM     24  C5  A00 X   2      95.393  54.828  41.4380  0.00  0.00     0.000 C
ATOM     25  O5  A00 X   2      94.434  55.621  42.1840  0.00  0.00     0.000 O
ATOM     26   O  A00 X   2      94.536  56.437  38.0620  0.00  0.00     0.000 O
ATOM     28  HD  A00 X   2      94.613  57.213  38.4390  0.00  0.00     0.000 HD
BRANCH 21 30
ATOM     28   N  A00 X   2      92.703  57.621  40.7630  0.00  0.00     0.000 N
ATOM     30  HD  A00 X   2      92.705  57.736  39.9050  0.00  0.00     0.000 HD
ATOM     30   O  A00 X   2      91.556  58.738  39.0620  0.00  0.00     0.000 OA
ATOM     31   S  A00 X   2      92.661  58.960  39.9250  0.00  0.00     0.000 S
ATOM     32   O  A00 X   2      92.461  59.973  40.9150  0.00  0.00     0.000 OA
ATOM     33   O  A00 X   2      93.945  59.115  39.3080  0.00  0.00     0.000 OA
ENDBRANCH 21 30
BRANCH 24 34
ATOM     34   C  A00 X   2      96.564  54.325  42.3160  0.00  0.00     0.000 C
ATOM     35   O  A00 X   2      99.163  56.480  43.6790  0.00  0.00     0.000 OA
ATOM     36   O  A00 X   2      97.608  55.314  42.4090  0.00  0.00     0.000 O
ATOM     37   O  A00 X   2      96.849  56.811  44.0380  0.00  0.00     0.000 OA
ATOM     38   S  A00 X   2      97.895  55.852  43.8590  0.00  0.00     0.000 S
ATOM     39   O  A00 X   2      97.901  54.708  44.7210  0.00  0.00     0.000 OA
ENDBRANCH 24 34
BRANCH 20 40
ATOM     40  O4  A00 X   3      92.715  54.375  41.1570  0.00  0.00     0.000 O
BRANCH 40 44
ATOM     41  C1  A00 X   3      93.048  50.809  41.7060  0.00  0.00     0.000 C
ATOM     42  C2  A00 X   3      92.120  51.455  40.6540  0.00  0.00     0.000 C
ATOM     43  C3  A00 X   3      91.235  52.555  41.2950  0.00  0.00     0.000 C
ATOM     44  C4  A00 X   3      91.999  53.578  42.1260  0.00  0.00     0.000 C
ATOM     45  C5  A00 X   3      92.903  52.854  43.1620  0.00  0.00     0.000 C
ATOM     46  O5  A00 X   3      93.712  51.818  42.5160  0.00  0.00     0.000 O
ATOM     47   O  A00 X   3      90.275  53.162  40.4320  0.00  0.00     0.000 O
ATOM     49  HD  A00 X   3      90.508  53.877  40.8620  0.00  0.00     0.000 HD
BRANCH 42 49
ATOM     49   O  A00 X   3      92.968  51.996  39.6180  0.00  0.00     0.000 O
ATOM     50   O  A00 X   3      92.657  53.253  37.6040  0.00  0.00     0.000 OA
ATOM     51   O  A00 X   3      91.154  51.496  38.0970  0.00  0.00     0.000 OA
ATOM     52   O  A00 X   3      93.389  50.949  37.5590  0.00  0.00     0.000 OA
ATOM     53   S  A00 X   3      92.529  51.929  38.1260  0.00  0.00     0.000 S
ENDBRANCH 42 49
BRANCH 45 54
ATOM     54   C  A00 X   3      92.093  52.330  44.3540  0.00  0.00     0.000 C
ATOM     55   O  A00 X   3      92.653  51.856  45.3220  0.00  0.00     0.000 OA
ATOM     56   O  A00 X   3      90.873  52.380  44.3510  0.00  0.00     0.000 OA
ENDBRANCH 45 54
BRANCH 41 57
ATOM     57  O4  A00 X   4      92.359  49.798  42.4760  0.00  0.00     0.000 O
BRANCH 57 61
ATOM     58  C1  A00 X   4      93.641  46.079  44.2530  0.00  0.00     0.000 C
ATOM     59  C2  A00 X   4      94.306  47.395  44.7280  0.00  0.00     0.000 C
ATOM     60  C3  A00 X   4      93.536  48.661  44.3020  0.00  0.00     0.000 C
ATOM     61  C4  A00 X   4      93.154  48.624  42.8070  0.00  0.00     0.000 C
ATOM     62  C5  A00 X   4      92.319  47.336  42.6020  0.00  0.00     0.000 C
ATOM     63  O5  A00 X   4      93.143  46.180  42.9000  0.00  0.00     0.000 O
BRANCH 59 66
ATOM     64   N  A00 X   4      95.646  47.527  44.1270  0.00  0.00     0.000 N
ATOM     66  HD  A00 X   4      95.782  47.143  43.3630  0.00  0.00     0.000 HD
ATOM     66   O  A00 X   4      96.461  46.080  45.8710  0.00  0.00     0.000 OA
ATOM     67   S  A00 X   4      96.916  47.130  45.0140  0.00  0.00     0.000 S
ATOM     68   O  A00 X   4      97.835  46.733  43.9870  0.00  0.00     0.000 OA
ATOM     69   O  A00 X   4      97.215  48.400  45.6120  0.00  0.00     0.000 OA
ENDBRANCH 59 66
BRANCH 62 70
ATOM     70   C  A00 X   4      91.745  47.175  41.1740  0.00  0.00     0.000 C
ATOM     71   O  A00 X   4      93.515  46.507  38.0870  0.00  0.00     0.000 OA
ATOM     72   O  A00 X   4      91.891  48.132  38.6030  0.00  0.00     0.000 OA
ATOM     73   O  A00 X   4      92.772  46.676  40.3030  0.00  0.00     0.000 O
ATOM     74   O  A00 X   4      94.175  48.416  39.4040  0.00  0.00     0.000 OA
ATOM     75   S  A00 X   4      93.130  47.520  39.0300  0.00  0.00     0.000 S
ENDBRANCH 62 70
ENDBRANCH 57 61
ENDBRANCH 41 57
ENDBRANCH 40 44
ENDBRANCH 20 40
ENDBRANCH 19 23
ENDBRANCH 1 19
TORSDOF 14
ENDMDL
MODEL 81
REMARK VINA RESULT:      -1.3     52.657     58.370
ROOT
ATOM      1  C1  A00 X   1      52.478  86.678  59.2510  0.00  0.00     0.000 C
ATOM      2  C2  A00 X   1      52.077  87.985  58.5160  0.00  0.00     0.000 C
ATOM      3  C3  A00 X   1      51.947  87.886  56.9600  0.00  0.00     0.000 C
ATOM      4  C4  A00 X   1      52.579  86.626  56.3150  0.00  0.00     0.000 C
ATOM      5  C5  A00 X   1      53.658  86.004  57.2010  0.00  0.00     0.000 C
ATOM      6  O5  A00 X   1      52.961  85.606  58.4040  0.00  0.00     0.000 O
ATOM      7   O  A00 X   1      52.598  89.011  56.3740  0.00  0.00     0.000 O
ATOM      9  HD  A00 X   1      52.799  88.320  55.8920  0.00  0.00     0.000 HD
ATOM      9   O  A00 X   1      51.588  85.648  56.0020  0.00  0.00     0.000 O
ATOM     11  HD  A00 X   1      51.789  84.957  55.5200  0.00  0.00     0.000 HD
ENDROOT
BRANCH 2 11
ATOM     11   O  A00 X   1      50.821  88.429  59.0650  0.00  0.00     0.000 O
ATOM     12   O  A00 X   1      49.593  90.258  58.1090  0.00  0.00     0.000 OA
ATOM     13   O  A00 X   1      51.785  90.674  59.0770  0.00  0.00     0.000 OA
ATOM     14   O  A00 X   1      49.948  90.080  60.4660  0.00  0.00     0.000 OA
ATOM     15   S  A00 X   1      50.536  89.968  59.1590  0.00  0.00     0.000 S
ENDBRANCH 2 11
BRANCH 5 16
ATOM     16   C  A00 X   1      54.875  86.896  57.4650  0.00  0.00     0.000 C
ATOM     17   O  A00 X   1      55.667  86.561  58.3220  0.00  0.00     0.000 OA
ATOM     18   O  A00 X   1      55.078  87.921  56.8440  0.00  0.00     0.000 OA
ENDBRANCH 5 16
BRANCH 1 19
ATOM     19  O4  A00 X   2      53.373  86.914  60.3660  0.00  0.00     0.000 O
BRANCH 19 23
ATOM     20  C1  A00 X   2      51.501  83.991  62.8800  0.00  0.00     0.000 C
ATOM     21  C2  A00 X   2      51.092  85.470  63.0770  0.00  0.00     0.000 C
ATOM     22  C3  A00 X   2      51.497  86.320  61.8550  0.00  0.00     0.000 C
ATOM     23  C4  A00 X   2      53.002  86.150  61.5500  0.00  0.00     0.000 C
ATOM     24  C5  A00 X   2      53.286  84.631  61.3930  0.00  0.00     0.000 C
ATOM     25  O5  A00 X   2      52.932  83.959  62.6300  0.00  0.00     0.000 O
ATOM     26   O  A00 X   2      51.036  87.667  62.0570  0.00  0.00     0.000 O
ATOM     28  HD  A00 X   2      51.381  87.721  62.8490  0.00  0.00     0.000 HD
BRANCH 21 30
ATOM     28   N  A00 X   2      50.947  85.200  64.5110  0.00  0.00     0.000 N
ATOM     30  HD  A00 X   2      50.543  85.950  64.3560  0.00  0.00     0.000 HD
ATOM     30   O  A00 X   2      49.252  86.576  65.3430  0.00  0.00     0.000 OA
ATOM     31   S  A00 X   2      50.655  86.410  65.4850  0.00  0.00     0.000 S
ATOM     32   O  A00 X   2      51.080  85.927  66.7630  0.00  0.00     0.000 OA
ATOM     33   O  A00 X   2      51.484  87.501  65.0660  0.00  0.00     0.000 OA
ENDBRANCH 21 30
BRANCH 24 34
ATOM     34   C  A00 X   2      54.673  84.203  60.8580  0.00  0.00     0.000 C
ATOM     35   O  A00 X   2      57.833  85.099  62.4300  0.00  0.00     0.000 OA
ATOM     36   O  A00 X   2      55.728  84.981  61.4580  0.00  0.00     0.000 O
ATOM     37   O  A00 X   2      56.072  83.981  63.5450  0.00  0.00     0.000 OA
ATOM     38   S  A00 X   2      56.767  84.160  62.3060  0.00  0.00     0.000 S
ATOM     39   O  A00 X   2      57.075  82.987  61.5440  0.00  0.00     0.000 OA
ENDBRANCH 24 34
BRANCH 20 40
ATOM     40  O4  A00 X   3      50.800  83.547  61.7090  0.00  0.00     0.000 O
BRANCH 40 44
ATOM     41  C1  A00 X   3      50.933  81.731  58.5770  0.00  0.00     0.000 C
ATOM     42  C2  A00 X   3      49.691  82.479  59.1100  0.00  0.00     0.000 C
ATOM     43  C3  A00 X   3      49.377  82.065  60.5700  0.00  0.00     0.000 C
ATOM     44  C4  A00 X   3      50.568  82.135  61.5180  0.00  0.00     0.000 C
ATOM     45  C5  A00 X   3      51.773  81.358  60.9170  0.00  0.00     0.000 C
ATOM     46  O5  A00 X   3      52.026  81.773  59.5360  0.00  0.00     0.000 O
ATOM     47   O  A00 X   3      48.196  82.628  61.1380  0.00  0.00     0.000 O
ATOM     49  HD  A00 X   3      48.695  82.677  61.8440  0.00  0.00     0.000 HD
BRANCH 42 49
ATOM     49   O  A00 X   3      49.972  83.892  59.0100  0.00  0.00     0.000 O
ATOM     50   O  A00 X   3      48.855  85.927  59.5940  0.00  0.00     0.000 OA
ATOM     51   O  A00 X   3      47.599  84.172  58.6270  0.00  0.00     0.000 OA
ATOM     52   O  A00 X   3      49.197  85.286  57.2880  0.00  0.00     0.000 OA
ATOM     53   S  A00 X   3      48.849  84.891  58.6090  0.00  0.00     0.000 S
ENDBRANCH 42 49
BRANCH 45 54
ATOM     54   C  A00 X   3      51.603  79.841  61.0700  0.00  0.00     0.000 C
ATOM     55   O  A00 X   3      52.520  79.088  60.8160  0.00  0.00     0.000 OA
ATOM     56   O  A00 X   3      50.544  79.366  61.4490  0.00  0.00     0.000 OA
ENDBRANCH 45 54
BRANCH 41 57
ATOM     57  O4  A00 X   4      50.601  80.400  58.1230  0.00  0.00     0.000 O
BRANCH 57 61
ATOM     58  C1  A00 X   4      52.141  77.908  54.9520  0.00  0.00     0.000 C
ATOM     59  C2  A00 X   4      53.099  78.334  56.0920  0.00  0.00     0.000 C
ATOM     60  C3  A00 X   4      52.371  78.903  57.3260  0.00  0.00     0.000 C
ATOM     61  C4  A00 X   4      51.314  79.958  56.9330  0.00  0.00     0.000 C
ATOM     62  C5  A00 X   4      50.341  79.255  55.9550  0.00  0.00     0.000 C
ATOM     63  O5  A00 X   4      51.067  78.857  54.7630  0.00  0.00     0.000 O
BRANCH 59 66
ATOM     64   N  A00 X   4      53.990  79.413  55.6270  0.00  0.00     0.000 N
ATOM     66  HD  A00 X   4      53.695  79.933  55.0000  0.00  0.00     0.000 HD
ATOM     66   O  A00 X   4      55.369  77.710  54.6300  0.00  0.00     0.000 OA
ATOM     67   S  A00 X   4      55.474  79.028  55.1740  0.00  0.00     0.000 S
ATOM     68   O  A00 X   4      55.732  80.069  54.2220  0.00  0.00     0.000 OA
ATOM     69   O  A00 X   4      56.169  79.185  56.4200  0.00  0.00     0.000 OA
ENDBRANCH 59 66
BRANCH 62 70
ATOM     70   C  A00 X   4      49.135  80.126  55.5280  0.00  0.00     0.000 C
ATOM     71   O  A00 X   4      49.105  83.070  53.4210  0.00  0.00     0.000 OA
ATOM     72   O  A00 X   4      48.135  82.683  55.5310  0.00  0.00     0.000 OA
ATOM     73   O  A00 X   4      49.549  81.036  54.4960  0.00  0.00     0.000 O
ATOM     74   O  A00 X   4      50.537  83.056  55.3610  0.00  0.00     0.000 OA
ATOM     75   S  A00 X   4      49.344  82.570  54.7460  0.00  0.00     0.000 S
ENDBRANCH 62 70
ENDBRANCH 57 61
ENDBRANCH 41 57
ENDBRANCH 40 44
ENDBRANCH 20 40
ENDBRANCH 19 23
ENDBRANCH 1 19
TORSDOF 14
ENDMDL
MODEL 82
REMARK VINA RESULT:      -1.3     76.528     80.996
ROOT
ATOM      1  C1  A00 X   1      83.098  45.480 111.5880  0.00  0.00     0.000 C
ATOM      2  C2  A00 X   1      81.968  44.522 112.0490  0.00  0.00     0.000 C
ATOM      3  C3  A00 X   1      80.522  45.119 112.0560  0.00  0.00     0.000 C
ATOM      4  C4  A00 X   1      80.435  46.664 111.9620  0.00  0.00     0.000 C
ATOM      5  C5  A00 X   1      81.726  47.343 112.4210  0.00  0.00     0.000 C
ATOM      6  O5  A00 X   1      82.734  46.880 111.4950  0.00  0.00     0.000 O
ATOM      7   O  A00 X   1      79.881  44.750 113.2750  0.00  0.00     0.000 O
ATOM      9  HD  A00 X   1      79.673  45.576 113.1170  0.00  0.00     0.000 HD
ATOM      9   O  A00 X   1      80.111  47.089 110.6390  0.00  0.00     0.000 O
ATOM     11  HD  A00 X   1      79.903  47.915 110.4810  0.00  0.00     0.000 HD
ENDROOT
BRANCH 2 11
ATOM     11   O  A00 X   1      81.995  43.367 111.1890  0.00  0.00     0.000 O
ATOM     12   O  A00 X   1      80.289  41.678 111.2760  0.00  0.00     0.000 OA
ATOM     13   O  A00 X   1      81.714  42.032 113.2150  0.00  0.00     0.000 OA
ATOM     14   O  A00 X   1      82.611  41.115 111.2120  0.00  0.00     0.000 OA
ATOM     15   S  A00 X   1      81.606  41.970 111.7840  0.00  0.00     0.000 S
ENDBRANCH 2 11
BRANCH 5 16
ATOM     16   C  A00 X   1      82.092  47.112 113.8910  0.00  0.00     0.000 C
ATOM     17   O  A00 X   1      83.197  47.438 114.2730  0.00  0.00     0.000 OA
ATOM     18   O  A00 X   1      81.315  46.622 114.6870  0.00  0.00     0.000 OA
ENDBRANCH 5 16
BRANCH 1 19
ATOM     19  O4  A00 X   2      84.325  45.303 112.3370  0.00  0.00     0.000 O
BRANCH 19 23
ATOM     20  C1  A00 X   2      86.852  45.803 108.9120  0.00  0.00     0.000 C
ATOM     21  C2  A00 X   2      86.530  44.356 109.3580  0.00  0.00     0.000 C
ATOM     22  C3  A00 X   2      85.303  44.328 110.2930  0.00  0.00     0.000 C
ATOM     23  C4  A00 X   2      85.505  45.292 111.4840  0.00  0.00     0.000 C
ATOM     24  C5  A00 X   2      85.837  46.696 110.9070  0.00  0.00     0.000 C
ATOM     25  O5  A00 X   2      87.047  46.599 110.1110  0.00  0.00     0.000 O
ATOM     26   O  A00 X   2      85.004  42.961 110.6220  0.00  0.00     0.000 O
ATOM     28  HD  A00 X   2      85.820  42.785 110.8510  0.00  0.00     0.000 HD
BRANCH 21 30
ATOM     28   N  A00 X   2      87.878  43.965 108.9320  0.00  0.00     0.000 N
ATOM     30  HD  A00 X   2      87.423  43.234 109.0240  0.00  0.00     0.000 HD
ATOM     30   O  A00 X   2      87.793  41.753 108.1850  0.00  0.00     0.000 OA
ATOM     31   S  A00 X   2      88.377  42.498 109.2440  0.00  0.00     0.000 S
ATOM     32   O  A00 X   2      89.802  42.607 109.1910  0.00  0.00     0.000 OA
ATOM     33   O  A00 X   2      87.951  42.180 110.5740  0.00  0.00     0.000 OA
ENDBRANCH 21 30
BRANCH 24 34
ATOM     34   C  A00 X   2      85.860  47.895 111.8850  0.00  0.00     0.000 C
ATOM     35   O  A00 X   2      88.824  49.882 112.6090  0.00  0.00     0.000 OA
ATOM     36   O  A00 X   2      87.210  48.255 112.2390  0.00  0.00     0.000 O
ATOM     37   O  A00 X   2      87.964  49.536 110.4330  0.00  0.00     0.000 OA
ATOM     38   S  A00 X   2      87.650  49.705 111.8190  0.00  0.00     0.000 S
ATOM     39   O  A00 X   2      86.559  50.571 112.1510  0.00  0.00     0.000 OA
ENDBRANCH 24 34
BRANCH 20 40
ATOM     40  O4  A00 X   3      85.685  46.262 108.2160  0.00  0.00     0.000 O
BRANCH 40 44
ATOM     41  C1  A00 X   3      83.305  48.935 107.6520  0.00  0.00     0.000 C
ATOM     42  C2  A00 X   3      83.247  47.548 106.9760  0.00  0.00     0.000 C
ATOM     43  C3  A00 X   3      84.612  47.183 106.3390  0.00  0.00     0.000 C
ATOM     44  C4  A00 X   3      85.809  47.345 107.2680  0.00  0.00     0.000 C
ATOM     45  C5  A00 X   3      85.800  48.764 107.9040  0.00  0.00     0.000 C
ATOM     46  O5  A00 X   3      84.490  49.069 108.4830  0.00  0.00     0.000 O
ATOM     47   O  A00 X   3      84.652  45.958 105.6100  0.00  0.00     0.000 O
ATOM     49  HD  A00 X   3      85.434  45.895 105.9780  0.00  0.00     0.000 HD
BRANCH 42 49
ATOM     49   O  A00 X   3      82.869  46.596 107.9950  0.00  0.00     0.000 O
ATOM     50   O  A00 X   3      82.550  44.227 108.1210  0.00  0.00     0.000 OA
ATOM     51   O  A00 X   3      81.751  45.387 106.2220  0.00  0.00     0.000 OA
ATOM     52   O  A00 X   3      80.694  45.766 108.3010  0.00  0.00     0.000 OA
ATOM     53   S  A00 X   3      81.911  45.418 107.6540  0.00  0.00     0.000 S
ENDBRANCH 42 49
BRANCH 45 54
ATOM     54   C  A00 X   3      86.287  49.831 106.9160  0.00  0.00     0.000 C
ATOM     55   O  A00 X   3      86.489  50.970 107.2850  0.00  0.00     0.000 OA
ATOM     56   O  A00 X   3      86.478  49.555 105.7420  0.00  0.00     0.000 OA
ENDBRANCH 45 54
BRANCH 41 57
ATOM     57  O4  A00 X   4      83.136  50.003 106.6930  0.00  0.00     0.000 O
BRANCH 57 61
ATOM     58  C1  A00 X   4      81.291  53.899 106.9280  0.00  0.00     0.000 C
ATOM     59  C2  A00 X   4      82.502  53.596 107.8440  0.00  0.00     0.000 C
ATOM     60  C3  A00 X   4      83.289  52.337 107.4260  0.00  0.00     0.000 C
ATOM     61  C4  A00 X   4      82.354  51.138 107.1630  0.00  0.00     0.000 C
ATOM     62  C5  A00 X   4      81.359  51.593 106.0670  0.00  0.00     0.000 C
ATOM     63  O5  A00 X   4      80.566  52.699 106.5730  0.00  0.00     0.000 O
BRANCH 59 66
ATOM     64   N  A00 X   4      82.055  53.336 109.2240  0.00  0.00     0.000 N
ATOM     66  HD  A00 X   4      81.260  53.010 109.3320  0.00  0.00     0.000 HD
ATOM     66   O  A00 X   4      81.955  55.721 109.5360  0.00  0.00     0.000 OA
ATOM     67   S  A00 X   4      82.156  54.524 110.2900  0.00  0.00     0.000 S
ATOM     68   O  A00 X   4      81.087  54.167 111.1770  0.00  0.00     0.000 OA
ATOM     69   O  A00 X   4      83.467  54.278 110.8200  0.00  0.00     0.000 OA
ENDBRANCH 59 66
BRANCH 62 70
ATOM     70   C  A00 X   4      80.398  50.481 105.5840  0.00  0.00     0.000 C
ATOM     71   O  A00 X   4      77.671  48.911 107.3750  0.00  0.00     0.000 OA
ATOM     72   O  A00 X   4      79.449  47.967 106.1530  0.00  0.00     0.000 OA
ATOM     73   O  A00 X   4      79.322  50.340 106.5250  0.00  0.00     0.000 O
ATOM     74   O  A00 X   4      79.868  48.889 108.3700  0.00  0.00     0.000 OA
ATOM     75   S  A00 X   4      79.093  48.930 107.1720  0.00  0.00     0.000 S
ENDBRANCH 62 70
ENDBRANCH 57 61
ENDBRANCH 41 57
ENDBRANCH 40 44
ENDBRANCH 20 40
ENDBRANCH 19 23
ENDBRANCH 1 19
TORSDOF 14
ENDMDL
MODEL 83
REMARK VINA RESULT:      -1.3     39.401     43.658
ROOT
ATOM      1  C1  A00 X   1      36.558  65.473  27.2350  0.00  0.00     0.000 C
ATOM      2  C2  A00 X   1      35.129  64.902  27.0360  0.00  0.00     0.000 C
ATOM      3  C3  A00 X   1      34.217  64.874  28.3060  0.00  0.00     0.000 C
ATOM      4  C4  A00 X   1      34.949  65.067  29.6590  0.00  0.00     0.000 C
ATOM      5  C5  A00 X   1      36.433  64.709  29.5690  0.00  0.00     0.000 C
ATOM      6  O5  A00 X   1      36.978  65.644  28.6110  0.00  0.00     0.000 O
ATOM      7   O  A00 X   1      33.567  63.607  28.3750  0.00  0.00     0.000 O
ATOM      9  HD  A00 X   1      33.813  63.812  29.1800  0.00  0.00     0.000 HD
ATOM      9   O  A00 X   1      34.804  66.401  30.1460  0.00  0.00     0.000 O
ATOM     11  HD  A00 X   1      35.050  66.605  30.9510  0.00  0.00     0.000 HD
ENDROOT
BRANCH 2 11
ATOM     11   O  A00 X   1      34.483  65.683  26.0120  0.00  0.00     0.000 O
ATOM     12   O  A00 X   1      32.160  65.400  25.4740  0.00  0.00     0.000 OA
ATOM     13   O  A00 X   1      33.704  63.561  25.0870  0.00  0.00     0.000 OA
ATOM     14   O  A00 X   1      33.834  65.540  23.7740  0.00  0.00     0.000 OA
ATOM     15   S  A00 X   1      33.470  64.978  25.0460  0.00  0.00     0.000 S
ENDBRANCH 2 11
BRANCH 5 16
ATOM     16   C  A00 X   1      36.726  63.244  29.2310  0.00  0.00     0.000 C
ATOM     17   O  A00 X   1      37.860  62.933  28.9280  0.00  0.00     0.000 OA
ATOM     18   O  A00 X   1      35.869  62.384  29.2610  0.00  0.00     0.000 OA
ENDBRANCH 5 16
BRANCH 1 19
ATOM     19  O4  A00 X   2      37.558  64.766  26.4620  0.00  0.00     0.000 O
BRANCH 19 23
ATOM     20  C1  A00 X   2      39.737  68.316  25.4550  0.00  0.00     0.000 C
ATOM     21  C2  A00 X   2      38.736  67.771  24.4080  0.00  0.00     0.000 C
ATOM     22  C3  A00 X   2      37.742  66.787  25.0590  0.00  0.00     0.000 C
ATOM     23  C4  A00 X   2      38.498  65.665  25.8060  0.00  0.00     0.000 C
ATOM     24  C5  A00 X   2      39.477  66.338  26.8070  0.00  0.00     0.000 C
ATOM     25  O5  A00 X   2      40.400  67.176  26.0650  0.00  0.00     0.000 O
ATOM     26   O  A00 X   2      36.794  66.364  24.0640  0.00  0.00     0.000 O
ATOM     28  HD  A00 X   2      37.410  66.158  23.4920  0.00  0.00     0.000 HD
BRANCH 21 30
ATOM     28   N  A00 X   2      39.649  68.206  23.3460  0.00  0.00     0.000 N
ATOM     30  HD  A00 X   2      38.879  68.067  22.9740  0.00  0.00     0.000 HD
ATOM     30   O  A00 X   2      38.366  68.837  21.4980  0.00  0.00     0.000 OA
ATOM     31   S  A00 X   2      39.304  67.831  21.8500  0.00  0.00     0.000 S
ATOM     32   O  A00 X   2      40.565  67.919  21.1800  0.00  0.00     0.000 OA
ATOM     33   O  A00 X   2      38.835  66.477  21.8500  0.00  0.00     0.000 OA
ENDBRANCH 21 30
BRANCH 24 34
ATOM     34   C  A00 X   2      40.189  65.436  27.8420  0.00  0.00     0.000 C
ATOM     35   O  A00 X   2      43.799  64.993  28.0220  0.00  0.00     0.000 OA
ATOM     36   O  A00 X   2      41.554  65.177  27.4590  0.00  0.00     0.000 O
ATOM     37   O  A00 X   2      42.719  67.094  28.1220  0.00  0.00     0.000 OA
ATOM     38   S  A00 X   2      42.645  65.706  28.4610  0.00  0.00     0.000 S
ATOM     39   O  A00 X   2      42.185  65.368  29.7740  0.00  0.00     0.000 OA
ENDBRANCH 24 34
BRANCH 20 40
ATOM     40  O4  A00 X   3      38.941  68.990  26.4400  0.00  0.00     0.000 O
BRANCH 40 44
ATOM     41  C1  A00 X   3      38.287  69.628  29.9460  0.00  0.00     0.000 C
ATOM     42  C2  A00 X   3      37.461  70.208  28.7770  0.00  0.00     0.000 C
ATOM     43  C3  A00 X   3      38.382  70.877  27.7240  0.00  0.00     0.000 C
ATOM     44  C4  A00 X   3      39.547  70.011  27.2610  0.00  0.00     0.000 C
ATOM     45  C5  A00 X   3      40.331  69.471  28.4900  0.00  0.00     0.000 C
ATOM     46  O5  A00 X   3      39.422  68.858  29.4610  0.00  0.00     0.000 O
ATOM     47   O  A00 X   3      37.720  71.524  26.6390  0.00  0.00     0.000 O
ATOM     49  HD  A00 X   3      38.376  71.186  26.1850  0.00  0.00     0.000 HD
BRANCH 42 49
ATOM     49   O  A00 X   3      36.713  69.113  28.2040  0.00  0.00     0.000 O
ATOM     50   O  A00 X   3      35.205  68.818  26.3680  0.00  0.00     0.000 OA
ATOM     51   O  A00 X   3      35.003  70.753  27.7110  0.00  0.00     0.000 OA
ATOM     52   O  A00 X   3      34.455  68.660  28.6620  0.00  0.00     0.000 OA
ATOM     53   S  A00 X   3      35.257  69.334  27.7000  0.00  0.00     0.000 S
ENDBRANCH 42 49
BRANCH 45 54
ATOM     54   C  A00 X   3      41.234  70.547  29.1050  0.00  0.00     0.000 C
ATOM     55   O  A00 X   3      42.017  70.267  29.9900  0.00  0.00     0.000 OA
ATOM     56   O  A00 X   3      41.182  71.704  28.7170  0.00  0.00     0.000 OA
ENDBRANCH 45 54
BRANCH 41 57
ATOM     57  O4  A00 X   4      38.637  70.648  30.9090  0.00  0.00     0.000 O
BRANCH 57 61
ATOM     58  C1  A00 X   4      39.123  70.597  35.1980  0.00  0.00     0.000 C
ATOM     59  C2  A00 X   4      40.059  69.714  34.3360  0.00  0.00     0.000 C
ATOM     60  C3  A00 X   4      40.040  70.079  32.8370  0.00  0.00     0.000 C
ATOM     61  C4  A00 X   4      38.600  70.222  32.3010  0.00  0.00     0.000 C
ATOM     62  C5  A00 X   4      37.915  71.304  33.1730  0.00  0.00     0.000 C
ATOM     63  O5  A00 X   4      37.856  70.841  34.5470  0.00  0.00     0.000 O
BRANCH 59 66
ATOM     64   N  A00 X   4      39.660  68.296  34.3860  0.00  0.00     0.000 N
ATOM     66  HD  A00 X   4      38.822  68.121  34.5220  0.00  0.00     0.000 HD
ATOM     66   O  A00 X   4      40.825  68.147  36.4890  0.00  0.00     0.000 OA
ATOM     67   S  A00 X   4      40.445  67.323  35.3840  0.00  0.00     0.000 S
ATOM     68   O  A00 X   4      39.424  66.355  35.6580  0.00  0.00     0.000 OA
ATOM     69   O  A00 X   4      41.484  66.852  34.5120  0.00  0.00     0.000 OA
ENDBRANCH 59 66
BRANCH 62 70
ATOM     70   C  A00 X   4      36.483  71.671  32.7160  0.00  0.00     0.000 C
ATOM     71   O  A00 X   4      33.472  69.669  32.8820  0.00  0.00     0.000 OA
ATOM     72   O  A00 X   4      34.402  70.895  31.1000  0.00  0.00     0.000 OA
ATOM     73   O  A00 X   4      35.562  70.679  33.1970  0.00  0.00     0.000 O
ATOM     74   O  A00 X   4      35.395  68.765  31.7430  0.00  0.00     0.000 OA
ATOM     75   S  A00 X   4      34.674  69.931  32.1420  0.00  0.00     0.000 S
ENDBRANCH 62 70
ENDBRANCH 57 61
ENDBRANCH 41 57
ENDBRANCH 40 44
ENDBRANCH 20 40
ENDBRANCH 19 23
ENDBRANCH 1 19
TORSDOF 14
ENDMDL
MODEL 84
REMARK VINA RESULT:      -1.3     84.830     91.301
ROOT
ATOM      1  C1  A00 X   1      69.356 106.048  89.4130  0.00  0.00     0.000 C
ATOM      2  C2  A00 X   1      69.526 106.872  90.7170  0.00  0.00     0.000 C
ATOM      3  C3  A00 X   1      68.905 106.248  92.0100  0.00  0.00     0.000 C
ATOM      4  C4  A00 X   1      67.896 105.093  91.7770  0.00  0.00     0.000 C
ATOM      5  C5  A00 X   1      67.286 105.134  90.3760  0.00  0.00     0.000 C
ATOM      6  O5  A00 X   1      68.407 104.954  89.4820  0.00  0.00     0.000 O
ATOM      7   O  A00 X   1      68.200 107.266  92.7160  0.00  0.00     0.000 O
ATOM      9  HD  A00 X   1      67.715 106.549  92.7500  0.00  0.00     0.000 HD
ATOM      9   O  A00 X   1      68.499 103.820  92.0040  0.00  0.00     0.000 O
ATOM     11  HD  A00 X   1      68.015 103.103  92.0380  0.00  0.00     0.000 HD
ENDROOT
BRANCH 2 11
ATOM     11   O  A00 X   1      70.937 107.076  90.9250  0.00  0.00     0.000 O
ATOM     12   O  A00 X   1      71.793 108.064  92.9400  0.00  0.00     0.000 OA
ATOM     13   O  A00 X   1      70.373 109.389  91.4750  0.00  0.00     0.000 OA
ATOM     14   O  A00 X   1      72.558 108.751  90.7820  0.00  0.00     0.000 OA
ATOM     15   S  A00 X   1      71.419 108.410  91.5920  0.00  0.00     0.000 S
ENDBRANCH 2 11
BRANCH 5 16
ATOM     16   C  A00 X   1      66.451 106.381  90.0690  0.00  0.00     0.000 C
ATOM     17   O  A00 X   1      66.114 106.587  88.9220  0.00  0.00     0.000 OA
ATOM     18   O  A00 X   1      66.109 107.165  90.9320  0.00  0.00     0.000 OA
ENDBRANCH 5 16
BRANCH 1 19
ATOM     19  O4  A00 X   2      69.119 106.880  88.2510  0.00  0.00     0.000 O
BRANCH 19 23
ATOM     20  C1  A00 X   2      71.569 104.497  85.6650  0.00  0.00     0.000 C
ATOM     21  C2  A00 X   2      72.202 105.772  86.2740  0.00  0.00     0.000 C
ATOM     22  C3  A00 X   2      71.382 106.268  87.4840  0.00  0.00     0.000 C
ATOM     23  C4  A00 X   2      69.900 106.461  87.0950  0.00  0.00     0.000 C
ATOM     24  C5  A00 X   2      69.392 105.126  86.4840  0.00  0.00     0.000 C
ATOM     25  O5  A00 X   2      70.195 104.811  85.3160  0.00  0.00     0.000 O
ATOM     26   O  A00 X   2      72.046 107.409  88.0540  0.00  0.00     0.000 O
ATOM     28  HD  A00 X   2      72.118 107.811  87.2910  0.00  0.00     0.000 HD
BRANCH 21 30
ATOM     28   N  A00 X   2      72.962 105.943  85.0320  0.00  0.00     0.000 N
ATOM     30  HD  A00 X   2      73.335 106.450  85.6260  0.00  0.00     0.000 HD
ATOM     30   O  A00 X   2      75.003 106.949  85.5610  0.00  0.00     0.000 OA
ATOM     31   S  A00 X   2      73.818 107.258  84.8420  0.00  0.00     0.000 S
ATOM     32   O  A00 X   2      73.980 107.354  83.4240  0.00  0.00     0.000 OA
ATOM     33   O  A00 X   2      73.030 108.351  85.3270  0.00  0.00     0.000 OA
ENDBRANCH 21 30
BRANCH 24 34
ATOM     34   C  A00 X   2      67.874 104.978  86.2220  0.00  0.00     0.000 C
ATOM     35   O  A00 X   2      66.405 104.555  82.9170  0.00  0.00     0.000 OA
ATOM     36   O  A00 X   2      67.562 105.183  84.8300  0.00  0.00     0.000 O
ATOM     37   O  A00 X   2      68.076 103.140  83.8120  0.00  0.00     0.000 OA
ATOM     38   S  A00 X   2      66.927 103.945  84.0960  0.00  0.00     0.000 S
ATOM     39   O  A00 X   2      65.944 103.407  84.9870  0.00  0.00     0.000 OA
ENDBRANCH 24 34
BRANCH 20 40
ATOM     40  O4  A00 X   3      71.587 103.517  86.7140  0.00  0.00     0.000 O
BRANCH 40 44
ATOM     41  C1  A00 X   3      69.820 100.909  88.5030  0.00  0.00     0.000 C
ATOM     42  C2  A00 X   3      71.247 101.395  88.8380  0.00  0.00     0.000 C
ATOM     43  C3  A00 X   3      72.142 101.402  87.5720  0.00  0.00     0.000 C
ATOM     44  C4  A00 X   3      71.535 102.116  86.3710  0.00  0.00     0.000 C
ATOM     45  C5  A00 X   3      70.106 101.570  86.0950  0.00  0.00     0.000 C
ATOM     46  O5  A00 X   3      69.300 101.572  87.3180  0.00  0.00     0.000 O
ATOM     47   O  A00 X   3      73.510 101.752  87.7780  0.00  0.00     0.000 O
ATOM     49  HD  A00 X   3      73.400 102.168  87.0270  0.00  0.00     0.000 HD
BRANCH 42 49
ATOM     49   O  A00 X   3      71.122 102.719  89.4030  0.00  0.00     0.000 O
ATOM     50   O  A00 X   3      72.616 104.412  90.1980  0.00  0.00     0.000 OA
ATOM     51   O  A00 X   3      73.058 102.153  90.7410  0.00  0.00     0.000 OA
ATOM     52   O  A00 X   3      71.167 103.194  91.7030  0.00  0.00     0.000 OA
ATOM     53   S  A00 X   3      72.040 103.161  90.5800  0.00  0.00     0.000 S
ENDBRANCH 42 49
BRANCH 45 54
ATOM     54   C  A00 X   3      70.144 100.204  85.4000  0.00  0.00     0.000 C
ATOM     55   O  A00 X   3      69.129  99.704  84.9600  0.00  0.00     0.000 OA
ATOM     56   O  A00 X   3      71.195  99.594  85.2770  0.00  0.00     0.000 OA
ENDBRANCH 45 54
BRANCH 41 57
ATOM     57  O4  A00 X   4      69.746  99.467  88.4500  0.00  0.00     0.000 O
BRANCH 57 61
ATOM     58  C1  A00 X   4      66.643  96.644  89.4690  0.00  0.00     0.000 C
ATOM     59  C2  A00 X   4      66.368  97.674  88.3460  0.00  0.00     0.000 C
ATOM     60  C3  A00 X   4      67.641  98.375  87.8290  0.00  0.00     0.000 C
ATOM     61  C4  A00 X   4      68.522  98.891  88.9870  0.00  0.00     0.000 C
ATOM     62  C5  A00 X   4      68.850  97.659  89.8670  0.00  0.00     0.000 C
ATOM     63  O5  A00 X   4      67.619  97.127  90.4200  0.00  0.00     0.000 O
BRANCH 59 66
ATOM     64   N  A00 X   4      65.501  98.758  88.8430  0.00  0.00     0.000 N
ATOM     66  HD  A00 X   4      65.537  98.942  89.6890  0.00  0.00     0.000 HD
ATOM     66   O  A00 X   4      63.625  97.298  88.4550  0.00  0.00     0.000 OA
ATOM     67   S  A00 X   4      63.938  98.692  88.5070  0.00  0.00     0.000 S
ATOM     68   O  A00 X   4      63.402  99.404  89.6300  0.00  0.00     0.000 OA
ATOM     69   O  A00 X   4      63.913  99.430  87.2760  0.00  0.00     0.000 OA
ENDBRANCH 59 66
BRANCH 62 70
ATOM     70   C  A00 X   4      69.824  97.956  91.0320  0.00  0.00     0.000 C
ATOM     71   O  A00 X   4      69.238  99.895  94.0330  0.00  0.00     0.000 OA
ATOM     72   O  A00 X   4      71.005  99.971  92.4780  0.00  0.00     0.000 OA
ATOM     73   O  A00 X   4      69.097  98.550  92.1200  0.00  0.00     0.000 O
ATOM     74   O  A00 X   4      68.845 100.935  91.8930  0.00  0.00     0.000 OA
ATOM     75   S  A00 X   4      69.567  99.954  92.6360  0.00  0.00     0.000 S
ENDBRANCH 62 70
ENDBRANCH 57 61
ENDBRANCH 41 57
ENDBRANCH 40 44
ENDBRANCH 20 40
ENDBRANCH 19 23
ENDBRANCH 1 19
TORSDOF 14
ENDMDL
MODEL 85
REMARK VINA RESULT:      -1.3     79.087     83.311
ROOT
ATOM      1  C1  A00 X   1      69.346  93.070  93.3280  0.00  0.00     0.000 C
ATOM      2  C2  A00 X   1      70.804  93.590  93.4450  0.00  0.00     0.000 C
ATOM      3  C3  A00 X   1      71.732  92.817  94.4390  0.00  0.00     0.000 C
ATOM      4  C4  A00 X   1      71.006  91.884  95.4430  0.00  0.00     0.000 C
ATOM      5  C5  A00 X   1      69.545  92.283  95.6500  0.00  0.00     0.000 C
ATOM      6  O5  A00 X   1      68.934  92.128  94.3490  0.00  0.00     0.000 O
ATOM      7   O  A00 X   1      72.456  93.765  95.2200  0.00  0.00     0.000 O
ATOM      9  HD  A00 X   1      72.208  93.131  95.7540  0.00  0.00     0.000 HD
ATOM      9   O  A00 X   1      71.079  90.519  95.0320  0.00  0.00     0.000 O
ATOM     11  HD  A00 X   1      70.831  89.884  95.5670  0.00  0.00     0.000 HD
ENDROOT
BRANCH 2 11
ATOM     11   O  A00 X   1      71.390  93.550  92.1290  0.00  0.00     0.000 O
ATOM     12   O  A00 X   1      73.718  94.010  91.7610  0.00  0.00     0.000 OA
ATOM     13   O  A00 X   1      72.276  95.773  92.6140  0.00  0.00     0.000 OA
ATOM     14   O  A00 X   1      72.015  94.975  90.3890  0.00  0.00     0.000 OA
ATOM     15   S  A00 X   1      72.429  94.653  91.7280  0.00  0.00     0.000 S
ENDBRANCH 2 11
BRANCH 5 16
ATOM     16   C  A00 X   1      69.334  93.671  96.2640  0.00  0.00     0.000 C
ATOM     17   O  A00 X   1      68.215  94.140  96.2690  0.00  0.00     0.000 OA
ATOM     18   O  A00 X   1      70.243  94.313  96.7510  0.00  0.00     0.000 OA
ENDBRANCH 5 16
BRANCH 1 19
ATOM     19  O4  A00 X   2      68.380  94.138  93.1750  0.00  0.00     0.000 O
BRANCH 19 23
ATOM     20  C1  A00 X   2      66.004  91.992  90.3260  0.00  0.00     0.000 C
ATOM     21  C2  A00 X   2      67.018  93.025  89.7770  0.00  0.00     0.000 C
ATOM     22  C3  A00 X   2      68.071  93.382  90.8470  0.00  0.00     0.000 C
ATOM     23  C4  A00 X   2      67.386  93.849  92.1500  0.00  0.00     0.000 C
ATOM     24  C5  A00 X   2      66.386  92.742  92.5840  0.00  0.00     0.000 C
ATOM     25  O5  A00 X   2      65.410  92.554  91.5270  0.00  0.00     0.000 O
ATOM     26   O  A00 X   2      69.026  94.288  90.2680  0.00  0.00     0.000 O
ATOM     28  HD  A00 X   2      68.414  94.818  89.9620  0.00  0.00     0.000 HD
BRANCH 21 30
ATOM     28   N  A00 X   2      66.069  93.327  88.7010  0.00  0.00     0.000 N
ATOM     30  HD  A00 X   2      66.834  93.654  88.4600  0.00  0.00     0.000 HD
ATOM     30   O  A00 X   2      67.291  93.922  86.8000  0.00  0.00     0.000 OA
ATOM     31   S  A00 X   2      66.391  94.523  87.7200  0.00  0.00     0.000 S
ATOM     32   O  A00 X   2      65.114  94.869  87.1770  0.00  0.00     0.000 OA
ATOM     33   O  A00 X   2      66.901  95.599  88.5170  0.00  0.00     0.000 OA
ENDBRANCH 21 30
BRANCH 24 34
ATOM     34   C  A00 X   2      65.737  92.858  93.9830  0.00  0.00     0.000 C
ATOM     35   O  A00 X   2      62.164  93.283  94.5450  0.00  0.00     0.000 OA
ATOM     36   O  A00 X   2      64.391  93.367  93.8940  0.00  0.00     0.000 O
ATOM     37   O  A00 X   2      63.104  91.506  93.2990  0.00  0.00     0.000 OA
ATOM     38   S  A00 X   2      63.270  92.392  94.4100  0.00  0.00     0.000 S
ATOM     39   O  A00 X   2      63.753  91.834  95.6380  0.00  0.00     0.000 OA
ENDBRANCH 24 34
BRANCH 20 40
ATOM     40  O4  A00 X   3      66.778  90.834  90.6700  0.00  0.00     0.000 O
BRANCH 40 44
ATOM     41  C1  A00 X   3      67.450  88.203  93.0690  0.00  0.00     0.000 C
ATOM     42  C2  A00 X   3      68.223  88.408  91.7480  0.00  0.00     0.000 C
ATOM     43  C3  A00 X   3      67.248  88.535  90.5490  0.00  0.00     0.000 C
ATOM     44  C4  A00 X   3      66.127  89.547  90.7480  0.00  0.00     0.000 C
ATOM     45  C5  A00 X   3      65.396  89.273  92.0930  0.00  0.00     0.000 C
ATOM     46  O5  A00 X   3      66.354  89.151  93.1930  0.00  0.00     0.000 O
ATOM     47   O  A00 X   3      67.854  88.641  89.2620  0.00  0.00     0.000 O
ATOM     49  HD  A00 X   3      67.211  89.207  89.1310  0.00  0.00     0.000 HD
BRANCH 42 49
ATOM     49   O  A00 X   3      69.023  89.600  91.9060  0.00  0.00     0.000 O
ATOM     50   O  A00 X   3      70.526  90.871  90.5440  0.00  0.00     0.000 OA
ATOM     51   O  A00 X   3      70.637  88.511  90.4690  0.00  0.00     0.000 OA
ATOM     52   O  A00 X   3      71.307  89.608  92.4530  0.00  0.00     0.000 OA
ATOM     53   S  A00 X   3      70.460  89.667  91.3110  0.00  0.00     0.000 S
ENDBRANCH 42 49
BRANCH 45 54
ATOM     54   C  A00 X   3      64.442  88.077  91.9870  0.00  0.00     0.000 C
ATOM     55   O  A00 X   3      64.420  87.390  90.9860  0.00  0.00     0.000 OA
ATOM     56   O  A00 X   3      63.688  87.795  92.9050  0.00  0.00     0.000 OA
ENDBRANCH 45 54
BRANCH 41 57
ATOM     57  O4  A00 X   4      67.058  86.824  93.2500  0.00  0.00     0.000 O
BRANCH 57 61
ATOM     58  C1  A00 X   4      66.639  84.322  96.7430  0.00  0.00     0.000 C
ATOM     59  C2  A00 X   4      65.749  85.584  96.6240  0.00  0.00     0.000 C
ATOM     60  C3  A00 X   4      65.723  86.186  95.2050  0.00  0.00     0.000 C
ATOM     61  C4  A00 X   4      67.143  86.331  94.6170  0.00  0.00     0.000 C
ATOM     62  C5  A00 X   4      67.770  84.915  94.6380  0.00  0.00     0.000 C
ATOM     63  O5  A00 X   4      67.879  84.462  96.0120  0.00  0.00     0.000 O
BRANCH 59 66
ATOM     64   N  A00 X   4      66.277  86.647  97.4990  0.00  0.00     0.000 N
ATOM     66  HD  A00 X   4      67.126  86.639  97.6690  0.00  0.00     0.000 HD
ATOM     66   O  A00 X   4      65.116  85.585  99.3220  0.00  0.00     0.000 OA
ATOM     67   S  A00 X   4      65.578  86.876  98.9190  0.00  0.00     0.000 S
ATOM     68   O  A00 X   4      66.682  87.399  99.6690  0.00  0.00     0.000 OA
ATOM     69   O  A00 X   4      64.593  87.857  98.5600  0.00  0.00     0.000 OA
ENDBRANCH 59 66
BRANCH 62 70
ATOM     70   C  A00 X   4      69.169  84.833  93.9810  0.00  0.00     0.000 C
ATOM     71   O  A00 X   4      72.304  86.210  95.1570  0.00  0.00     0.000 OA
ATOM     72   O  A00 X   4      71.271  86.332  93.0450  0.00  0.00     0.000 OA
ATOM     73   O  A00 X   4      70.158  85.301  94.9120  0.00  0.00     0.000 O
ATOM     74   O  A00 X   4      70.425  87.696  94.8790  0.00  0.00     0.000 OA
ATOM     75   S  A00 X   4      71.076  86.493  94.4690  0.00  0.00     0.000 S
ENDBRANCH 62 70
ENDBRANCH 57 61
ENDBRANCH 41 57
ENDBRANCH 40 44
ENDBRANCH 20 40
ENDBRANCH 19 23
ENDBRANCH 1 19
TORSDOF 14
ENDMDL
MODEL 86
REMARK VINA RESULT:      -1.3     89.604     93.547
ROOT
ATOM      1  C1  A00 X   1      89.202  98.577  17.5680  0.00  0.00     0.000 C
ATOM      2  C2  A00 X   1      89.357  97.075  17.9250  0.00  0.00     0.000 C
ATOM      3  C3  A00 X   1      88.347  96.510  18.9770  0.00  0.00     0.000 C
ATOM      4  C4  A00 X   1      87.571  97.573  19.7970  0.00  0.00     0.000 C
ATOM      5  C5  A00 X   1      88.296  98.919  19.8290  0.00  0.00     0.000 C
ATOM      6  O5  A00 X   1      88.343  99.344  18.4490  0.00  0.00     0.000 O
ATOM      7   O  A00 X   1      89.064  95.716  19.9200  0.00  0.00     0.000 O
ATOM      9  HD  A00 X   1      88.485  96.181  20.3650  0.00  0.00     0.000 HD
ATOM      9   O  A00 X   1      86.246  97.752  19.2980  0.00  0.00     0.000 O
ATOM     11  HD  A00 X   1      85.667  98.216  19.7440  0.00  0.00     0.000 HD
ENDROOT
BRANCH 2 11
ATOM     11   O  A00 X   1      89.233  96.320  16.7040  0.00  0.00     0.000 O
ATOM     12   O  A00 X   1      89.125  93.921  16.6990  0.00  0.00     0.000 OA
ATOM     13   O  A00 X   1      91.148  95.019  17.4840  0.00  0.00     0.000 OA
ATOM     14   O  A00 X   1      90.538  95.116  15.1870  0.00  0.00     0.000 OA
ATOM     15   S  A00 X   1      90.065  95.001  16.5400  0.00  0.00     0.000 S
ENDBRANCH 2 11
BRANCH 5 16
ATOM     16   C  A00 X   1      89.668  98.899  20.5110  0.00  0.00     0.000 C
ATOM     17   O  A00 X   1      90.391  99.867  20.3910  0.00  0.00     0.000 OA
ATOM     18   O  A00 X   1      90.054  97.955  21.1720  0.00  0.00     0.000 OA
ENDBRANCH 5 16
BRANCH 1 19
ATOM     19  O4  A00 X   2      90.474  99.240  17.3630  0.00  0.00     0.000 O
BRANCH 19 23
ATOM     20  C1  A00 X   2      89.065 101.601  14.0760  0.00  0.00     0.000 C
ATOM     21  C2  A00 X   2      89.835 100.300  13.7430  0.00  0.00     0.000 C
ATOM     22  C3  A00 X   2      89.891  99.365  14.9700  0.00  0.00     0.000 C
ATOM     23  C4  A00 X   2      90.470 100.108  16.1940  0.00  0.00     0.000 C
ATOM     24  C5  A00 X   2      89.627 101.395  16.4100  0.00  0.00     0.000 C
ATOM     25  O5  A00 X   2      89.717 102.218  15.2180  0.00  0.00     0.000 O
ATOM     26   O  A00 X   2      90.553  98.146  14.5910  0.00  0.00     0.000 O
ATOM     28  HD  A00 X   2      91.226  98.563  14.2390  0.00  0.00     0.000 HD
BRANCH 21 30
ATOM     28   N  A00 X   2      90.367 100.981  12.5590  0.00  0.00     0.000 N
ATOM     30  HD  A00 X   2      90.525 100.136  12.4540  0.00  0.00     0.000 HD
ATOM     30   O  A00 X   2      90.732  99.378  10.9000  0.00  0.00     0.000 OA
ATOM     31   S  A00 X   2      91.491 100.262  11.7110  0.00  0.00     0.000 S
ATOM     32   O  A00 X   2      92.123 101.335  11.0070  0.00  0.00     0.000 OA
ATOM     33   O  A00 X   2      92.407  99.668  12.6390  0.00  0.00     0.000 OA
ENDBRANCH 21 30
BRANCH 24 34
ATOM     34   C  A00 X   2      89.855 102.202  17.7110  0.00  0.00     0.000 C
ATOM     35   O  A00 X   2      93.067 103.591  18.7150  0.00  0.00     0.000 OA
ATOM     36   O  A00 X   2      91.259 102.313  18.0180  0.00  0.00     0.000 O
ATOM     37   O  A00 X   2      92.018 104.049  16.6460  0.00  0.00     0.000 OA
ATOM     38   S  A00 X   2      91.826 103.780  18.0380  0.00  0.00     0.000 S
ATOM     39   O  A00 X   2      90.866 104.576  18.7410  0.00  0.00     0.000 OA
ENDBRANCH 24 34
BRANCH 20 40
ATOM     40  O4  A00 X   3      87.743 101.185  14.4460  0.00  0.00     0.000 O
BRANCH 40 44
ATOM     41  C1  A00 X   3      84.982 101.532  16.7660  0.00  0.00     0.000 C
ATOM     42  C2  A00 X   3      85.016 100.545  15.5790  0.00  0.00     0.000 C
ATOM     43  C3  A00 X   3      85.402 101.270  14.2650  0.00  0.00     0.000 C
ATOM     44  C4  A00 X   3      86.655 102.131  14.3610  0.00  0.00     0.000 C
ATOM     45  C5  A00 X   3      86.545 103.098  15.5730  0.00  0.00     0.000 C
ATOM     46  O5  A00 X   3      86.169 102.373  16.7880  0.00  0.00     0.000 O
ATOM     47   O  A00 X   3      85.380 100.472  13.0830  0.00  0.00     0.000 O
ATOM     49  HD  A00 X   3      86.089 100.932  12.8940  0.00  0.00     0.000 HD
BRANCH 42 49
ATOM     49   O  A00 X   3      85.970  99.513  15.9130  0.00  0.00     0.000 O
ATOM     50   O  A00 X   3      86.896  97.592  14.8250  0.00  0.00     0.000 OA
ATOM     51   O  A00 X   3      84.585  98.032  14.5920  0.00  0.00     0.000 OA
ATOM     52   O  A00 X   3      85.400  97.381  16.7130  0.00  0.00     0.000 OA
ATOM     53   S  A00 X   3      85.712  98.037  15.4910  0.00  0.00     0.000 S
ENDBRANCH 42 49
BRANCH 45 54
ATOM     54   C  A00 X   3      85.623 104.286  15.2690  0.00  0.00     0.000 C
ATOM     55   O  A00 X   3      84.951 104.304  14.2580  0.00  0.00     0.000 OA
ATOM     56   O  A00 X   3      85.550 105.233  16.0370  0.00  0.00     0.000 OA
ENDBRANCH 45 54
BRANCH 41 57
ATOM     57  O4  A00 X   4      83.740 102.268  16.8140  0.00  0.00     0.000 O
BRANCH 57 61
ATOM     58  C1  A00 X   4      81.366 103.815  20.0720  0.00  0.00     0.000 C
ATOM     59  C2  A00 X   4      82.812 104.339  19.8940  0.00  0.00     0.000 C
ATOM     60  C3  A00 X   4      83.425 104.000  18.5200  0.00  0.00     0.000 C
ATOM     61  C4  A00 X   4      83.219 102.515  18.1510  0.00  0.00     0.000 C
ATOM     62  C5  A00 X   4      81.691 102.265  18.1870  0.00  0.00     0.000 C
ATOM     63  O5  A00 X   4      81.203 102.482  19.5360  0.00  0.00     0.000 O
BRANCH 59 66
ATOM     64   N  A00 X   4      83.685 103.699  20.8950  0.00  0.00     0.000 N
ATOM     66  HD  A00 X   4      83.453 102.916  21.1850  0.00  0.00     0.000 HD
ATOM     66   O  A00 X   4      82.928 105.357  22.4690  0.00  0.00     0.000 OA
ATOM     67   S  A00 X   4      84.062 104.526  22.2110  0.00  0.00     0.000 S
ATOM     68   O  A00 X   4      84.266 103.453  23.1410  0.00  0.00     0.000 OA
ATOM     69   O  A00 X   4      85.272 105.161  21.7720  0.00  0.00     0.000 OA
ENDBRANCH 59 66
BRANCH 62 70
ATOM     70   C  A00 X   4      81.272 100.846  17.7340  0.00  0.00     0.000 C
ATOM     71   O  A00 X   4      81.840  97.682  19.4000  0.00  0.00     0.000 OA
ATOM     72   O  A00 X   4      82.216  98.330  17.1670  0.00  0.00     0.000 OA
ATOM     73   O  A00 X   4      81.482  99.922  18.8140  0.00  0.00     0.000 O
ATOM     74   O  A00 X   4      83.740  99.085  18.9120  0.00  0.00     0.000 OA
ATOM     75   S  A00 X   4      82.416  98.689  18.5540  0.00  0.00     0.000 S
ENDBRANCH 62 70
ENDBRANCH 57 61
ENDBRANCH 41 57
ENDBRANCH 40 44
ENDBRANCH 20 40
ENDBRANCH 19 23
ENDBRANCH 1 19
TORSDOF 14
ENDMDL
MODEL 87
REMARK VINA RESULT:      -1.3     59.348     64.704
ROOT
ATOM      1  C1  A00 X   1      72.259  76.691  77.7170  0.00  0.00     0.000 C
ATOM      2  C2  A00 X   1      73.527  76.741  78.6120  0.00  0.00     0.000 C
ATOM      3  C3  A00 X   1      73.653  75.613  79.6880  0.00  0.00     0.000 C
ATOM      4  C4  A00 X   1      72.355  74.817  79.9780  0.00  0.00     0.000 C
ATOM      5  C5  A00 X   1      71.100  75.599  79.5900  0.00  0.00     0.000 C
ATOM      6  O5  A00 X   1      71.214  75.792  78.1630  0.00  0.00     0.000 O
ATOM      7   O  A00 X   1      74.051  76.202  80.9240  0.00  0.00     0.000 O
ATOM      9  HD  A00 X   1      73.449  75.607  81.1070  0.00  0.00     0.000 HD
ATOM      9   O  A00 X   1      72.359  73.553  79.3150  0.00  0.00     0.000 O
ATOM     11  HD  A00 X   1      71.757  72.958  79.4980  0.00  0.00     0.000 HD
ENDROOT
BRANCH 2 11
ATOM     11   O  A00 X   1      74.677  76.695  77.7450  0.00  0.00     0.000 O
ATOM     12   O  A00 X   1      76.910  76.499  78.6080  0.00  0.00     0.000 OA
ATOM     13   O  A00 X   1      75.605  78.487  79.1220  0.00  0.00     0.000 OA
ATOM     14   O  A00 X   1      76.357  78.079  76.9020  0.00  0.00     0.000 OA
ATOM     15   S  A00 X   1      75.966  77.488  78.1530  0.00  0.00     0.000 S
ENDBRANCH 2 11
BRANCH 5 16
ATOM     16   C  A00 X   1      70.881  76.900  80.3700  0.00  0.00     0.000 C
ATOM     17   O  A00 X   1      70.033  77.675  79.9790  0.00  0.00     0.000 OA
ATOM     18   O  A00 X   1      71.519  77.178  81.3650  0.00  0.00     0.000 OA
ENDBRANCH 5 16
BRANCH 1 19
ATOM     19  O4  A00 X   2      71.733  78.007  77.4160  0.00  0.00     0.000 O
BRANCH 19 23
ATOM     20  C1  A00 X   2      70.737  77.018  73.3670  0.00  0.00     0.000 C
ATOM     21  C2  A00 X   2      72.072  77.762  73.6130  0.00  0.00     0.000 C
ATOM     22  C3  A00 X   2      72.492  77.661  75.0940  0.00  0.00     0.000 C
ATOM     23  C4  A00 X   2      71.353  78.150  76.0170  0.00  0.00     0.000 C
ATOM     24  C5  A00 X   2      70.074  77.344  75.6600  0.00  0.00     0.000 C
ATOM     25  O5  A00 X   2      69.746  77.582  74.2670  0.00  0.00     0.000 O
ATOM     26   O  A00 X   2      73.766  78.306  75.2570  0.00  0.00     0.000 O
ATOM     28  HD  A00 X   2      73.510  79.026  74.8500  0.00  0.00     0.000 HD
BRANCH 21 30
ATOM     28   N  A00 X   2      71.874  78.458  72.3380  0.00  0.00     0.000 N
ATOM     30  HD  A00 X   2      72.704  78.570  72.5590  0.00  0.00     0.000 HD
ATOM     30   O  A00 X   2      73.975  78.888  71.4110  0.00  0.00     0.000 OA
ATOM     31   S  A00 X   2      72.877  79.615  71.9430  0.00  0.00     0.000 S
ATOM     32   O  A00 X   2      72.144  80.386  70.9870  0.00  0.00     0.000 OA
ATOM     33   O  A00 X   2      73.120  80.387  73.1240  0.00  0.00     0.000 OA
ENDBRANCH 21 30
BRANCH 24 34
ATOM     34   C  A00 X   2      68.847  77.479  76.5940  0.00  0.00     0.000 C
ATOM     35   O  A00 X   2      65.691  79.003  75.6080  0.00  0.00     0.000 OA
ATOM     36   O  A00 X   2      67.890  78.419  76.0660  0.00  0.00     0.000 O
ATOM     37   O  A00 X   2      66.706  77.204  74.4570  0.00  0.00     0.000 OA
ATOM     38   S  A00 X   2      66.477  77.819  75.7290  0.00  0.00     0.000 S
ATOM     39   O  A00 X   2      66.126  76.967  76.8250  0.00  0.00     0.000 OA
ENDBRANCH 24 34
BRANCH 20 40
ATOM     40  O4  A00 X   3      70.984  75.650  73.7220  0.00  0.00     0.000 O
BRANCH 40 44
ATOM     41  C1  A00 X   3      69.834  72.688  75.4620  0.00  0.00     0.000 C
ATOM     42  C2  A00 X   3      71.175  72.799  74.7060  0.00  0.00     0.000 C
ATOM     43  C3  A00 X   3      70.959  73.344  73.2710  0.00  0.00     0.000 C
ATOM     44  C4  A00 X   3      70.124  74.616  73.1950  0.00  0.00     0.000 C
ATOM     45  C5  A00 X   3      68.792  74.425  73.9740  0.00  0.00     0.000 C
ATOM     46  O5  A00 X   3      69.042  73.900  75.3170  0.00  0.00     0.000 O
ATOM     47   O  A00 X   3      72.122  73.407  72.4470  0.00  0.00     0.000 O
ATOM     49  HD  A00 X   3      71.760  74.150  72.1880  0.00  0.00     0.000 HD
BRANCH 42 49
ATOM     49   O  A00 X   3      72.027  73.671  75.4800  0.00  0.00     0.000 O
ATOM     50   O  A00 X   3      74.233  74.574  75.2670  0.00  0.00     0.000 OA
ATOM     51   O  A00 X   3      73.865  72.312  74.6860  0.00  0.00     0.000 OA
ATOM     52   O  A00 X   3      73.694  72.934  76.9600  0.00  0.00     0.000 OA
ATOM     53   S  A00 X   3      73.548  73.369  75.6140  0.00  0.00     0.000 S
ENDBRANCH 42 49
BRANCH 45 54
ATOM     54   C  A00 X   3      67.784  73.588  73.1770  0.00  0.00     0.000 C
ATOM     55   O  A00 X   3      68.095  73.094  72.1120  0.00  0.00     0.000 OA
ATOM     56   O  A00 X   3      66.652  73.406  73.5970  0.00  0.00     0.000 OA
ENDBRANCH 45 54
BRANCH 41 57
ATOM     57  O4  A00 X   4      69.123  71.478  75.1150  0.00  0.00     0.000 O
BRANCH 57 61
ATOM     58  C1  A00 X   4      66.546  68.837  77.3560  0.00  0.00     0.000 C
ATOM     59  C2  A00 X   4      66.109  70.311  77.1630  0.00  0.00     0.000 C
ATOM     60  C3  A00 X   4      66.905  71.049  76.0670  0.00  0.00     0.000 C
ATOM     61  C4  A00 X   4      68.426  70.833  76.2190  0.00  0.00     0.000 C
ATOM     62  C5  A00 X   4      68.655  69.301  76.1750  0.00  0.00     0.000 C
ATOM     63  O5  A00 X   4      67.983  68.686  77.3040  0.00  0.00     0.000 O
BRANCH 59 66
ATOM     64   N  A00 X   4      66.326  71.103  78.3870  0.00  0.00     0.000 N
ATOM     66  HD  A00 X   4      66.967  70.856  78.9150  0.00  0.00     0.000 HD
ATOM     66   O  A00 X   4      64.255  70.197  79.2190  0.00  0.00     0.000 OA
ATOM     67   S  A00 X   4      65.078  71.359  79.3540  0.00  0.00     0.000 S
ATOM     68   O  A00 X   4      65.750  71.495  80.6130  0.00  0.00     0.000 OA
ATOM     69   O  A00 X   4      64.587  72.594  78.8130  0.00  0.00     0.000 OA
ENDBRANCH 59 66
BRANCH 62 70
ATOM     70   C  A00 X   4      70.145  68.884  76.2030  0.00  0.00     0.000 C
ATOM     71   O  A00 X   4      72.503  69.102  78.9410  0.00  0.00     0.000 OA
ATOM     72   O  A00 X   4      72.692  69.785  76.6960  0.00  0.00     0.000 OA
ATOM     73   O  A00 X   4      70.621  68.916  77.5580  0.00  0.00     0.000 O
ATOM     74   O  A00 X   4      71.355  71.105  78.2470  0.00  0.00     0.000 OA
ATOM     75   S  A00 X   4      71.861  69.823  77.8780  0.00  0.00     0.000 S
ENDBRANCH 62 70
ENDBRANCH 57 61
ENDBRANCH 41 57
ENDBRANCH 40 44
ENDBRANCH 20 40
ENDBRANCH 19 23
ENDBRANCH 1 19
TORSDOF 14
ENDMDL
MODEL 88
REMARK VINA RESULT:      -1.3     94.244     97.690
ROOT
ATOM      1  C1  A00 X   1      75.939 107.067   8.2290  0.00  0.00     0.000 C
ATOM      2  C2  A00 X   1      74.510 107.559   8.5800  0.00  0.00     0.000 C
ATOM      3  C3  A00 X   1      73.986 108.787   7.7650  0.00  0.00     0.000 C
ATOM      4  C4  A00 X   1      75.066 109.581   6.9850  0.00  0.00     0.000 C
ATOM      5  C5  A00 X   1      76.465 109.376   7.5650  0.00  0.00     0.000 C
ATOM      6  O5  A00 X   1      76.725 107.963   7.4040  0.00  0.00     0.000 O
ATOM      7   O  A00 X   1      73.378 109.709   8.6670  0.00  0.00     0.000 O
ATOM      9  HD  A00 X   1      73.839 110.173   8.0990  0.00  0.00     0.000 HD
ATOM      9   O  A00 X   1      75.063 109.242   5.5990  0.00  0.00     0.000 O
ATOM     11  HD  A00 X   1      75.524 109.706   5.0310  0.00  0.00     0.000 HD
ENDROOT
BRANCH 2 11
ATOM     11   O  A00 X   1      73.606 106.452   8.3920  0.00  0.00     0.000 O
ATOM     12   O  A00 X   1      71.270 106.616   8.9220  0.00  0.00     0.000 OA
ATOM     13   O  A00 X   1      72.911 106.816  10.7060  0.00  0.00     0.000 OA
ATOM     14   O  A00 X   1      72.582 104.736   9.5990  0.00  0.00     0.000 OA
ATOM     15   S  A00 X   1      72.519 106.168   9.4850  0.00  0.00     0.000 S
ENDBRANCH 2 11
BRANCH 5 16
ATOM     16   C  A00 X   1      76.650 109.874   9.0020  0.00  0.00     0.000 C
ATOM     17   O  A00 X   1      77.664 109.569   9.5960  0.00  0.00     0.000 OA
ATOM     18   O  A00 X   1      75.824 110.565   9.5640  0.00  0.00     0.000 OA
ENDBRANCH 5 16
BRANCH 1 19
ATOM     19  O4  A00 X   2      76.684 106.630   9.3920  0.00  0.00     0.000 O
BRANCH 19 23
ATOM     20  C1  A00 X   2      78.621 103.417   7.3200  0.00  0.00     0.000 C
ATOM     21  C2  A00 X   2      77.378 103.069   8.1760  0.00  0.00     0.000 C
ATOM     22  C3  A00 X   2      76.556 104.337   8.4910  0.00  0.00     0.000 C
ATOM     23  C4  A00 X   2      77.450 105.417   9.1410  0.00  0.00     0.000 C
ATOM     24  C5  A00 X   2      78.662 105.660   8.2010  0.00  0.00     0.000 C
ATOM     25  O5  A00 X   2      79.390 104.414   8.0450  0.00  0.00     0.000 O
ATOM     26   O  A00 X   2      75.382 103.953   9.2260  0.00  0.00     0.000 O
ATOM     28  HD  A00 X   2      75.831 103.485   9.7990  0.00  0.00     0.000 HD
BRANCH 21 30
ATOM     28   N  A00 X   2      78.009 101.787   8.5020  0.00  0.00     0.000 N
ATOM     30  HD  A00 X   2      77.172 101.715   8.7130  0.00  0.00     0.000 HD
ATOM     30   O  A00 X   2      76.320 100.198   8.7880  0.00  0.00     0.000 OA
ATOM     31   S  A00 X   2      77.312 100.849   9.5670  0.00  0.00     0.000 S
ATOM     32   O  A00 X   2      78.374 100.004  10.0210  0.00  0.00     0.000 OA
ATOM     33   O  A00 X   2      76.854 101.687  10.6350  0.00  0.00     0.000 OA
ENDBRANCH 21 30
BRANCH 24 34
ATOM     34   C  A00 X   2      79.590 106.859   8.5070  0.00  0.00     0.000 C
ATOM     35   O  A00 X   2      81.439 107.264  11.6180  0.00  0.00     0.000 OA
ATOM     36   O  A00 X   2      79.897 106.935   9.9140  0.00  0.00     0.000 O
ATOM     37   O  A00 X   2      81.600 105.361  10.2230  0.00  0.00     0.000 OA
ATOM     38   S  A00 X   2      81.420 106.780  10.2770  0.00  0.00     0.000 S
ATOM     39   O  A00 X   2      82.144 107.577   9.3330  0.00  0.00     0.000 OA
ENDBRANCH 24 34
BRANCH 20 40
ATOM     40  O4  A00 X   3      78.109 103.993   6.1090  0.00  0.00     0.000 O
BRANCH 40 44
ATOM     41  C1  A00 X   3      78.374 106.600   3.6080  0.00  0.00     0.000 C
ATOM     42  C2  A00 X   3      77.290 105.500   3.6220  0.00  0.00     0.000 C
ATOM     43  C3  A00 X   3      77.928 104.094   3.7690  0.00  0.00     0.000 C
ATOM     44  C4  A00 X   3      78.922 103.967   4.9170  0.00  0.00     0.000 C
ATOM     45  C5  A00 X   3      79.980 105.103   4.8320  0.00  0.00     0.000 C
ATOM     46  O5  A00 X   3      79.335 106.409   4.6830  0.00  0.00     0.000 O
ATOM     47   O  A00 X   3      77.026 102.991   3.7070  0.00  0.00     0.000 O
ATOM     49  HD  A00 X   3      77.539 102.681   4.3320  0.00  0.00     0.000 HD
BRANCH 42 49
ATOM     49   O  A00 X   3      76.401 105.794   4.7210  0.00  0.00     0.000 O
ATOM     50   O  A00 X   3      74.466 104.784   5.7040  0.00  0.00     0.000 OA
ATOM     51   O  A00 X   3      74.650 104.844   3.3470  0.00  0.00     0.000 OA
ATOM     52   O  A00 X   3      74.330 106.880   4.5050  0.00  0.00     0.000 OA
ATOM     53   S  A00 X   3      74.869 105.565   4.5770  0.00  0.00     0.000 S
ENDBRANCH 42 49
BRANCH 45 54
ATOM     54   C  A00 X   3      81.029 104.822   3.7500  0.00  0.00     0.000 C
ATOM     55   O  A00 X   3      81.986 105.556   3.6090  0.00  0.00     0.000 OA
ATOM     56   O  A00 X   3      80.921 103.856   3.0100  0.00  0.00     0.000 OA
ENDBRANCH 45 54
BRANCH 41 57
ATOM     57  O4  A00 X   4      78.974 106.741   2.3010  0.00  0.00     0.000 O
BRANCH 57 61
ATOM     58  C1  A00 X   4      80.552 110.133   0.1460  0.00  0.00     0.000 C
ATOM     59  C2  A00 X   4      81.210 109.739   1.4920  0.00  0.00     0.000 C
ATOM     60  C3  A00 X   4      80.813 108.331   1.9810  0.00  0.00     0.000 C
ATOM     61  C4  A00 X   4      79.287 108.108   1.9100  0.00  0.00     0.000 C
ATOM     62  C5  A00 X   4      78.880 108.350   0.4350  0.00  0.00     0.000 C
ATOM     63  O5  A00 X   4      79.166 109.727   0.0810  0.00  0.00     0.000 O
BRANCH 59 66
ATOM     64   N  A00 X   4      80.806 110.645   2.5820  0.00  0.00     0.000 N
ATOM     66  HD  A00 X   4      80.027 111.019   2.5220  0.00  0.00     0.000 HD
ATOM     66   O  A00 X   4      82.467 112.192   1.7770  0.00  0.00     0.000 OA
ATOM     67   S  A00 X   4      81.799 111.831   2.9890  0.00  0.00     0.000 S
ATOM     68   O  A00 X   4      80.861 112.794   3.4870  0.00  0.00     0.000 OA
ATOM     69   O  A00 X   4      82.569 111.177   4.0090  0.00  0.00     0.000 OA
ENDBRANCH 59 66
BRANCH 62 70
ATOM     70   C  A00 X   4      77.388 108.066   0.1370  0.00  0.00     0.000 C
ATOM     71   O  A00 X   4      74.472 109.919   1.2170  0.00  0.00     0.000 OA
ATOM     72   O  A00 X   4      74.941 107.613   1.2980  0.00  0.00     0.000 OA
ATOM     73   O  A00 X   4      76.598 109.190   0.5540  0.00  0.00     0.000 O
ATOM     74   O  A00 X   4      76.012 109.116   2.8900  0.00  0.00     0.000 OA
ATOM     75   S  A00 X   4      75.449 108.935   1.5900  0.00  0.00     0.000 S
ENDBRANCH 62 70
ENDBRANCH 57 61
ENDBRANCH 41 57
ENDBRANCH 40 44
ENDBRANCH 20 40
ENDBRANCH 19 23
ENDBRANCH 1 19
TORSDOF 14
ENDMDL
MODEL 89
REMARK VINA RESULT:      -1.3     50.417     53.897
ROOT
ATOM      1  C1  A00 X   1      85.878  33.248  45.0420  0.00  0.00     0.000 C
ATOM      2  C2  A00 X   1      84.398  32.829  45.2470  0.00  0.00     0.000 C
ATOM      3  C3  A00 X   1      83.612  32.427  43.9560  0.00  0.00     0.000 C
ATOM      4  C4  A00 X   1      84.273  32.840  42.6150  0.00  0.00     0.000 C
ATOM      5  C5  A00 X   1      85.250  34.003  42.7880  0.00  0.00     0.000 C
ATOM      6  O5  A00 X   1      86.275  33.494  43.6710  0.00  0.00     0.000 O
ATOM      7   O  A00 X   1      82.332  33.053  43.9850  0.00  0.00     0.000 O
ATOM      9  HD  A00 X   1      82.627  33.114  43.1730  0.00  0.00     0.000 HD
ATOM      9   O  A00 X   1      84.940  31.737  42.0010  0.00  0.00     0.000 O
ATOM     11  HD  A00 X   1      85.235  31.798  41.1890  0.00  0.00     0.000 HD
ENDROOT
BRANCH 2 11
ATOM     11   O  A00 X   1      84.378  31.724  46.1720  0.00  0.00     0.000 O
ATOM     12   O  A00 X   1      82.364  30.511  46.6590  0.00  0.00     0.000 OA
ATOM     13   O  A00 X   1      82.515  32.862  47.2680  0.00  0.00     0.000 OA
ATOM     14   O  A00 X   1      83.842  31.239  48.3920  0.00  0.00     0.000 OA
ATOM     15   S  A00 X   1      83.175  31.589  47.1670  0.00  0.00     0.000 S
ENDBRANCH 2 11
BRANCH 5 16
ATOM     16   C  A00 X   1      84.619  35.312  43.2720  0.00  0.00     0.000 C
ATOM     17   O  A00 X   1      85.351  36.213  43.6270  0.00  0.00     0.000 OA
ATOM     18   O  A00 X   1      83.417  35.483  43.3050  0.00  0.00     0.000 OA
ENDBRANCH 5 16
BRANCH 1 19
ATOM     19  O4  A00 X   2      86.279  34.336  45.9110  0.00  0.00     0.000 O
BRANCH 19 23
ATOM     20  C1  A00 X   2      90.180  32.720  46.6460  0.00  0.00     0.000 C
ATOM     21  C2  A00 X   2      89.084  32.452  47.7060  0.00  0.00     0.000 C
ATOM     22  C3  A00 X   2      87.679  32.703  47.1200  0.00  0.00     0.000 C
ATOM     23  C4  A00 X   2      87.589  34.119  46.5090  0.00  0.00     0.000 C
ATOM     24  C5  A00 X   2      88.746  34.268  45.4820  0.00  0.00     0.000 C
ATOM     25  O5  A00 X   2      90.009  34.082  46.1720  0.00  0.00     0.000 O
ATOM     26   O  A00 X   2      86.697  32.375  48.1180  0.00  0.00     0.000 O
ATOM     28  HD  A00 X   2      87.085  32.852  48.7280  0.00  0.00     0.000 HD
BRANCH 21 30
ATOM     28   N  A00 X   2      90.119  32.532  48.7410  0.00  0.00     0.000 N
ATOM     30  HD  A00 X   2      89.427  32.162  49.1070  0.00  0.00     0.000 HD
ATOM     30   O  A00 X   2      89.514  31.102  50.4870  0.00  0.00     0.000 OA
ATOM     31   S  A00 X   2      89.679  32.494  50.2590  0.00  0.00     0.000 S
ATOM     32   O  A00 X   2      90.781  33.092  50.9460  0.00  0.00     0.000 OA
ATOM     33   O  A00 X   2      88.511  33.315  50.3820  0.00  0.00     0.000 OA
ENDBRANCH 21 30
BRANCH 24 34
ATOM     34   C  A00 X   2      88.744  35.511  44.5620  0.00  0.00     0.000 C
ATOM     35   O  A00 X   2      91.377  38.027  44.5280  0.00  0.00     0.000 OA
ATOM     36   O  A00 X   2      89.703  36.492  45.0080  0.00  0.00     0.000 O
ATOM     37   O  A00 X   2      91.752  35.716  44.1880  0.00  0.00     0.000 OA
ATOM     38   S  A00 X   2      90.856  36.814  43.9880  0.00  0.00     0.000 S
ATOM     39   O  A00 X   2      90.236  36.939  42.7030  0.00  0.00     0.000 OA
ENDBRANCH 24 34
BRANCH 20 40
ATOM     40  O4  A00 X   3      89.916  31.802  45.5750  0.00  0.00     0.000 O
BRANCH 40 44
ATOM     41  C1  A00 X   3      89.667  31.246  42.0040  0.00  0.00     0.000 C
ATOM     42  C2  A00 X   3      89.389  30.177  43.0830  0.00  0.00     0.000 C
ATOM     43  C3  A00 X   3      90.559  30.093  44.0970  0.00  0.00     0.000 C
ATOM     44  C4  A00 X   3      90.988  31.434  44.6810  0.00  0.00     0.000 C
ATOM     45  C5  A00 X   3      91.253  32.452  43.5370  0.00  0.00     0.000 C
ATOM     46  O5  A00 X   3      90.129  32.490  42.5990  0.00  0.00     0.000 O
ATOM     47   O  A00 X   3      90.451  29.077  45.0910  0.00  0.00     0.000 O
ATOM     49  HD  A00 X   3      90.787  29.694  45.5980  0.00  0.00     0.000 HD
BRANCH 42 49
ATOM     49   O  A00 X   3      88.152  30.543  43.7330  0.00  0.00     0.000 O
ATOM     50   O  A00 X   3      86.822  29.690  45.5310  0.00  0.00     0.000 OA
ATOM     51   O  A00 X   3      87.777  28.167  43.9970  0.00  0.00     0.000 OA
ATOM     52   O  A00 X   3      86.059  29.602  43.2380  0.00  0.00     0.000 OA
ATOM     53   S  A00 X   3      87.133  29.446  44.1580  0.00  0.00     0.000 S
ENDBRANCH 42 49
BRANCH 45 54
ATOM     54   C  A00 X   3      92.601  32.198  42.8520  0.00  0.00     0.000 C
ATOM     55   O  A00 X   3      93.274  31.232  43.1490  0.00  0.00     0.000 OA
ATOM     56   O  A00 X   3      93.023  32.963  41.9980  0.00  0.00     0.000 OA
ENDBRANCH 45 54
BRANCH 41 57
ATOM     57  O4  A00 X   4      90.528  30.739  40.9600  0.00  0.00     0.000 O
BRANCH 57 61
ATOM     58  C1  A00 X   4      90.761  31.497  36.7160  0.00  0.00     0.000 C
ATOM     59  C2  A00 X   4      91.011  32.672  37.6940  0.00  0.00     0.000 C
ATOM     60  C3  A00 X   4      91.257  32.221  39.1480  0.00  0.00     0.000 C
ATOM     61  C4  A00 X   4      90.203  31.195  39.6160  0.00  0.00     0.000 C
ATOM     62  C5  A00 X   4      90.273  30.012  38.6180  0.00  0.00     0.000 C
ATOM     63  O5  A00 X   4      89.909  30.483  37.2950  0.00  0.00     0.000 O
BRANCH 59 66
ATOM     64   N  A00 X   4      89.829  33.551  37.7520  0.00  0.00     0.000 N
ATOM     66  HD  A00 X   4      89.056  33.193  37.5920  0.00  0.00     0.000 HD
ATOM     66   O  A00 X   4      90.627  34.592  35.7330  0.00  0.00     0.000 OA
ATOM     67   S  A00 X   4      89.842  34.897  36.8880  0.00  0.00     0.000 S
ATOM     68   O  A00 X   4      88.438  35.066  36.6520  0.00  0.00     0.000 OA
ATOM     69   O  A00 X   4      90.391  35.810  37.8500  0.00  0.00     0.000 OA
ENDBRANCH 59 66
BRANCH 62 70
ATOM     70   C  A00 X   4      89.357  28.820  38.9850  0.00  0.00     0.000 C
ATOM     71   O  A00 X   4      85.743  28.629  38.8790  0.00  0.00     0.000 OA
ATOM     72   O  A00 X   4      87.262  28.042  40.5810  0.00  0.00     0.000 OA
ATOM     73   O  A00 X   4      88.015  29.104  38.5580  0.00  0.00     0.000 O
ATOM     74   O  A00 X   4      86.767  30.392  40.1670  0.00  0.00     0.000 OA
ATOM     75   S  A00 X   4      86.879  29.071  39.6390  0.00  0.00     0.000 S
ENDBRANCH 62 70
ENDBRANCH 57 61
ENDBRANCH 41 57
ENDBRANCH 40 44
ENDBRANCH 20 40
ENDBRANCH 19 23
ENDBRANCH 1 19
TORSDOF 14
ENDMDL
MODEL 90
REMARK VINA RESULT:      -1.3     63.322     66.972
ROOT
ATOM      1  C1  A00 X   1      76.425  75.268  20.1110  0.00  0.00     0.000 C
ATOM      2  C2  A00 X   1      75.231  75.991  20.7880  0.00  0.00     0.000 C
ATOM      3  C3  A00 X   1      73.946  75.128  21.0180  0.00  0.00     0.000 C
ATOM      4  C4  A00 X   1      73.885  73.796  20.2270  0.00  0.00     0.000 C
ATOM      5  C5  A00 X   1      74.786  73.816  18.9920  0.00  0.00     0.000 C
ATOM      6  O5  A00 X   1      76.123  73.982  19.5160  0.00  0.00     0.000 O
ATOM      7   O  A00 X   1      72.807  75.888  20.6190  0.00  0.00     0.000 O
ATOM      9  HD  A00 X   1      72.685  75.078  20.3380  0.00  0.00     0.000 HD
ATOM      9   O  A00 X   1      74.224  72.683  21.0530  0.00  0.00     0.000 O
ATOM     11  HD  A00 X   1      74.101  71.873  20.7730  0.00  0.00     0.000 HD
ENDROOT
BRANCH 2 11
ATOM     11   O  A00 X   1      75.687  76.499  22.0570  0.00  0.00     0.000 O
ATOM     12   O  A00 X   1      74.184  77.500  23.6400  0.00  0.00     0.000 OA
ATOM     13   O  A00 X   1      74.526  78.569  21.4820  0.00  0.00     0.000 OA
ATOM     14   O  A00 X   1      76.279  78.509  23.0870  0.00  0.00     0.000 OA
ATOM     15   S  A00 X   1      75.102  77.853  22.5860  0.00  0.00     0.000 S
ENDBRANCH 2 11
BRANCH 5 16
ATOM     16   C  A00 X   1      74.409  74.857  17.9320  0.00  0.00     0.000 C
ATOM     17   O  A00 X   1      75.190  75.074  17.0290  0.00  0.00     0.000 OA
ATOM     18   O  A00 X   1      73.358  75.465  17.9610  0.00  0.00     0.000 OA
ENDBRANCH 5 16
BRANCH 1 19
ATOM     19  O4  A00 X   2      77.148  76.120  19.1890  0.00  0.00     0.000 O
BRANCH 19 23
ATOM     20  C1  A00 X   2      80.993  74.595  20.3070  0.00  0.00     0.000 C
ATOM     21  C2  A00 X   2      80.529  75.916  20.9670  0.00  0.00     0.000 C
ATOM     22  C3  A00 X   2      79.005  76.102  20.8120  0.00  0.00     0.000 C
ATOM     23  C4  A00 X   2      78.592  75.995  19.3270  0.00  0.00     0.000 C
ATOM     24  C5  A00 X   2      79.129  74.644  18.7810  0.00  0.00     0.000 C
ATOM     25  O5  A00 X   2      80.574  74.626  18.9170  0.00  0.00     0.000 O
ATOM     26   O  A00 X   2      78.615  77.304  21.4980  0.00  0.00     0.000 O
ATOM     28  HD  A00 X   2      79.226  77.782  21.1130  0.00  0.00     0.000 HD
BRANCH 21 30
ATOM     28   N  A00 X   2      81.926  76.364  20.9600  0.00  0.00     0.000 N
ATOM     30  HD  A00 X   2      81.498  76.886  21.5020  0.00  0.00     0.000 HD
ATOM     30   O  A00 X   2      82.255  77.749  22.8120  0.00  0.00     0.000 OA
ATOM     31   S  A00 X   2      82.249  77.848  21.3960  0.00  0.00     0.000 S
ATOM     32   O  A00 X   2      83.524  78.106  20.8020  0.00  0.00     0.000 OA
ATOM     33   O  A00 X   2      81.248  78.689  20.8080  0.00  0.00     0.000 OA
ENDBRANCH 21 30
BRANCH 24 34
ATOM     34   C  A00 X   2      78.656  74.187  17.3810  0.00  0.00     0.000 C
ATOM     35   O  A00 X   2      80.878  73.666  14.5440  0.00  0.00     0.000 OA
ATOM     36   O  A00 X   2      79.676  74.407  16.3870  0.00  0.00     0.000 O
ATOM     37   O  A00 X   2      81.133  72.594  16.6370  0.00  0.00     0.000 OA
ATOM     38   S  A00 X   2      80.208  73.110  15.6740  0.00  0.00     0.000 S
ATOM     39   O  A00 X   2      79.057  72.315  15.3670  0.00  0.00     0.000 OA
ENDBRANCH 24 34
BRANCH 20 40
ATOM     40  O4  A00 X   3      80.292  73.550  20.9970  0.00  0.00     0.000 O
BRANCH 40 44
ATOM     41  C1  A00 X   3      78.417  70.457  20.7990  0.00  0.00     0.000 C
ATOM     42  C2  A00 X   3      78.723  71.219  22.1070  0.00  0.00     0.000 C
ATOM     43  C3  A00 X   3      80.234  71.545  22.2190  0.00  0.00     0.000 C
ATOM     44  C4  A00 X   3      80.832  72.211  20.9870  0.00  0.00     0.000 C
ATOM     45  C5  A00 X   3      80.487  71.385  19.7150  0.00  0.00     0.000 C
ATOM     46  O5  A00 X   3      79.053  71.092  19.6560  0.00  0.00     0.000 O
ATOM     47   O  A00 X   3      80.647  72.173  23.4310  0.00  0.00     0.000 O
ATOM     49  HD  A00 X   3      81.156  72.622  22.8930  0.00  0.00     0.000 HD
BRANCH 42 49
ATOM     49   O  A00 X   3      77.923  72.421  22.0930  0.00  0.00     0.000 O
ATOM     50   O  A00 X   3      77.632  74.325  23.5140  0.00  0.00     0.000 OA
ATOM     51   O  A00 X   3      77.816  72.184  24.4990  0.00  0.00     0.000 OA
ATOM     52   O  A00 X   3      75.884  72.678  23.2300  0.00  0.00     0.000 OA
ATOM     53   S  A00 X   3      77.270  72.947  23.4040  0.00  0.00     0.000 S
ENDBRANCH 42 49
BRANCH 45 54
ATOM     54   C  A00 X   3      81.364  70.133  19.5960  0.00  0.00     0.000 C
ATOM     55   O  A00 X   3      82.153  69.845  20.4730  0.00  0.00     0.000 OA
ATOM     56   O  A00 X   3      81.286  69.406  18.6190  0.00  0.00     0.000 OA
ENDBRANCH 45 54
BRANCH 41 57
ATOM     57  O4  A00 X   4      78.706  69.046  20.9230  0.00  0.00     0.000 O
BRANCH 57 61
ATOM     58  C1  A00 X   4      76.875  65.511  19.2530  0.00  0.00     0.000 C
ATOM     59  C2  A00 X   4      77.509  66.544  18.2880  0.00  0.00     0.000 C
ATOM     60  C3  A00 X   4      78.431  67.559  18.9940  0.00  0.00     0.000 C
ATOM     61  C4  A00 X   4      77.766  68.161  20.2500  0.00  0.00     0.000 C
ATOM     62  C5  A00 X   4      77.405  66.966  21.1670  0.00  0.00     0.000 C
ATOM     63  O5  A00 X   4      76.440  66.121  20.4900  0.00  0.00     0.000 O
BRANCH 59 66
ATOM     64   N  A00 X   4      76.445  67.344  17.6540  0.00  0.00     0.000 N
ATOM     66  HD  A00 X   4      75.705  67.445  18.0930  0.00  0.00     0.000 HD
ATOM     66   O  A00 X   4      76.166  65.542  16.0820  0.00  0.00     0.000 OA
ATOM     67   S  A00 X   4      75.990  66.957  16.1700  0.00  0.00     0.000 S
ATOM     68   O  A00 X   4      74.629  67.410  16.1920  0.00  0.00     0.000 OA
ATOM     69   O  A00 X   4      76.875  67.791  15.4090  0.00  0.00     0.000 OA
ENDBRANCH 59 66
BRANCH 62 70
ATOM     70   C  A00 X   4      76.821  67.377  22.5400  0.00  0.00     0.000 C
ATOM     71   O  A00 X   4      73.599  68.855  23.2760  0.00  0.00     0.000 OA
ATOM     72   O  A00 X   4      75.764  69.475  23.9630  0.00  0.00     0.000 OA
ATOM     73   O  A00 X   4      75.426  67.688  22.3890  0.00  0.00     0.000 O
ATOM     74   O  A00 X   4      75.038  69.960  21.6880  0.00  0.00     0.000 OA
ATOM     75   S  A00 X   4      74.940  69.112  22.8320  0.00  0.00     0.000 S
ENDBRANCH 62 70
ENDBRANCH 57 61
ENDBRANCH 41 57
ENDBRANCH 40 44
ENDBRANCH 20 40
ENDBRANCH 19 23
ENDBRANCH 1 19
TORSDOF 14
ENDMDL
MODEL 91
REMARK VINA RESULT:      -1.3     60.306     65.147
ROOT
ATOM      1  C1  A00 X   1      35.113  95.593  39.9210  0.00  0.00     0.000 C
ATOM      2  C2  A00 X   1      36.075  95.732  41.1310  0.00  0.00     0.000 C
ATOM      3  C3  A00 X   1      35.533  95.211  42.5030  0.00  0.00     0.000 C
ATOM      4  C4  A00 X   1      34.003  94.968  42.5680  0.00  0.00     0.000 C
ATOM      5  C5  A00 X   1      33.245  95.770  41.5110  0.00  0.00     0.000 C
ATOM      6  O5  A00 X   1      33.738  95.270  40.2480  0.00  0.00     0.000 O
ATOM      7   O  A00 X   1      35.833  96.176  43.5090  0.00  0.00     0.000 O
ATOM      9  HD  A00 X   1      35.029  95.891  43.6600  0.00  0.00     0.000 HD
ATOM      9   O  A00 X   1      33.690  93.581  42.4390  0.00  0.00     0.000 O
ATOM     11  HD  A00 X   1      32.886  93.296  42.5910  0.00  0.00     0.000 HD
ENDROOT
BRANCH 2 11
ATOM     11   O  A00 X   1      37.290  95.027  40.8080  0.00  0.00     0.000 O
ATOM     12   O  A00 X   1      39.048  94.726  42.4160  0.00  0.00     0.000 OA
ATOM     13   O  A00 X   1      38.479  96.974  41.6810  0.00  0.00     0.000 OA
ATOM     14   O  A00 X   1      39.500  95.438  40.1790  0.00  0.00     0.000 OA
ATOM     15   S  A00 X   1      38.655  95.591  41.3320  0.00  0.00     0.000 S
ENDBRANCH 2 11
BRANCH 5 16
ATOM     16   C  A00 X   1      33.352  97.292  41.6520  0.00  0.00     0.000 C
ATOM     17   O  A00 X   1      32.940  97.989  40.7480  0.00  0.00     0.000 OA
ATOM     18   O  A00 X   1      33.827  97.823  42.6360  0.00  0.00     0.000 OA
ENDBRANCH 5 16
BRANCH 1 19
ATOM     19  O4  A00 X   2      35.189  96.718  39.0110  0.00  0.00     0.000 O
BRANCH 19 23
ATOM     20  C1  A00 X   2      34.806  94.296  35.4970  0.00  0.00     0.000 C
ATOM     21  C2  A00 X   2      36.233  94.721  35.9190  0.00  0.00     0.000 C
ATOM     22  C3  A00 X   2      36.253  95.196  37.3880  0.00  0.00     0.000 C
ATOM     23  C4  A00 X   2      35.203  96.307  37.6140  0.00  0.00     0.000 C
ATOM     24  C5  A00 X   2      33.828  95.765  37.1370  0.00  0.00     0.000 C
ATOM     25  O5  A00 X   2      33.923  95.425  35.7290  0.00  0.00     0.000 O
ATOM     26   O  A00 X   2      37.607  95.514  37.7510  0.00  0.00     0.000 O
ATOM     28  HD  A00 X   2      37.730  96.013  37.0550  0.00  0.00     0.000 HD
BRANCH 21 30
ATOM     28   N  A00 X   2      36.590  94.799  34.4990  0.00  0.00     0.000 N
ATOM     30  HD  A00 X   2      37.333  94.791  34.9440  0.00  0.00     0.000 HD
ATOM     30   O  A00 X   2      38.848  94.241  34.2850  0.00  0.00     0.000 OA
ATOM     31   S  A00 X   2      38.009  95.372  34.1040  0.00  0.00     0.000 S
ATOM     32   O  A00 X   2      37.840  95.787  32.7460  0.00  0.00     0.000 OA
ATOM     33   O  A00 X   2      38.257  96.505  34.9440  0.00  0.00     0.000 OA
ENDBRANCH 21 30
BRANCH 24 34
ATOM     34   C  A00 X   2      32.567  96.598  37.4660  0.00  0.00     0.000 C
ATOM     35   O  A00 X   2      32.021 100.013  36.3290  0.00  0.00     0.000 OA
ATOM     36   O  A00 X   2      32.779  97.998  37.1960  0.00  0.00     0.000 O
ATOM     37   O  A00 X   2      32.475  98.196  34.8850  0.00  0.00     0.000 OA
ATOM     38   S  A00 X   2      31.841  98.618  36.0960  0.00  0.00     0.000 S
ATOM     39   O  A00 X   2      30.523  98.124  36.3630  0.00  0.00     0.000 OA
ENDBRANCH 24 34
BRANCH 20 40
ATOM     40  O4  A00 X   3      34.448  93.218  36.3740  0.00  0.00     0.000 O
BRANCH 40 44
ATOM     41  C1  A00 X   3      31.892  91.757  38.4850  0.00  0.00     0.000 C
ATOM     42  C2  A00 X   3      33.316  91.189  38.3060  0.00  0.00     0.000 C
ATOM     43  C3  A00 X   3      33.671  91.043  36.8040  0.00  0.00     0.000 C
ATOM     44  C4  A00 X   3      33.417  92.291  35.9690  0.00  0.00     0.000 C
ATOM     45  C5  A00 X   3      31.965  92.798  36.1980  0.00  0.00     0.000 C
ATOM     46  O5  A00 X   3      31.671  92.911  37.6280  0.00  0.00     0.000 O
ATOM     47   O  A00 X   3      34.934  90.444  36.5180  0.00  0.00     0.000 O
ATOM     49  HD  A00 X   3      34.950  91.045  35.8940  0.00  0.00     0.000 HD
BRANCH 42 49
ATOM     49   O  A00 X   3      34.220  92.094  38.9770  0.00  0.00     0.000 O
ATOM     50   O  A00 X   3      36.590  92.293  39.2450  0.00  0.00     0.000 OA
ATOM     51   O  A00 X   3      35.602  90.151  39.3900  0.00  0.00     0.000 OA
ATOM     52   O  A00 X   3      35.150  91.718  41.1000  0.00  0.00     0.000 OA
ATOM     53   S  A00 X   3      35.470  91.547  39.7250  0.00  0.00     0.000 S
ENDBRANCH 42 49
BRANCH 45 54
ATOM     54   C  A00 X   3      30.941  91.949  35.4370  0.00  0.00     0.000 C
ATOM     55   O  A00 X   3      29.778  92.292  35.3730  0.00  0.00     0.000 OA
ATOM     56   O  A00 X   3      31.275  90.914  34.8820  0.00  0.00     0.000 OA
ENDBRANCH 45 54
BRANCH 41 57
ATOM     57  O4  A00 X   4      30.886  90.727  38.3540  0.00  0.00     0.000 O
BRANCH 57 61
ATOM     58  C1  A00 X   4      27.040  90.120  40.2200  0.00  0.00     0.000 C
ATOM     59  C2  A00 X   4      27.253  91.388  39.3570  0.00  0.00     0.000 C
ATOM     60  C3  A00 X   4      28.510  91.321  38.4650  0.00  0.00     0.000 C
ATOM     61  C4  A00 X   4      29.750  90.854  39.2560  0.00  0.00     0.000 C
ATOM     62  C5  A00 X   4      29.388  89.474  39.8590  0.00  0.00     0.000 C
ATOM     63  O5  A00 X   4      28.280  89.632  40.7810  0.00  0.00     0.000 O
BRANCH 59 66
ATOM     64   N  A00 X   4      27.448  92.566  40.2220  0.00  0.00     0.000 N
ATOM     66  HD  A00 X   4      27.789  92.433  41.0070  0.00  0.00     0.000 HD
ATOM     66   O  A00 X   4      25.052  92.682  40.4330  0.00  0.00     0.000 OA
ATOM     67   S  A00 X   4      26.200  93.533  40.4770  0.00  0.00     0.000 S
ATOM     68   O  A00 X   4      26.535  94.051  41.7710  0.00  0.00     0.000 OA
ATOM     69   O  A00 X   4      26.382  94.469  39.4040  0.00  0.00     0.000 OA
ENDBRANCH 59 66
BRANCH 62 70
ATOM     70   C  A00 X   4      30.555  88.784  40.6050  0.00  0.00     0.000 C
ATOM     71   O  A00 X   4      32.135  89.750  43.7160  0.00  0.00     0.000 OA
ATOM     72   O  A00 X   4      33.071  89.177  41.6330  0.00  0.00     0.000 OA
ATOM     73   O  A00 X   4      30.690  89.363  41.9130  0.00  0.00     0.000 O
ATOM     74   O  A00 X   4      32.033  91.362  41.9260  0.00  0.00     0.000 OA
ATOM     75   S  A00 X   4      32.076  89.986  42.3010  0.00  0.00     0.000 S
ENDBRANCH 62 70
ENDBRANCH 57 61
ENDBRANCH 41 57
ENDBRANCH 40 44
ENDBRANCH 20 40
ENDBRANCH 19 23
ENDBRANCH 1 19
TORSDOF 14
ENDMDL
MODEL 92
REMARK VINA RESULT:      -1.3     57.764     61.303
ROOT
ATOM      1  C1  A00 X   1      95.386  37.286  33.0110  0.00  0.00     0.000 C
ATOM      2  C2  A00 X   1      96.525  37.316  34.0650  0.00  0.00     0.000 C
ATOM      3  C3  A00 X   1      96.241  36.560  35.4050  0.00  0.00     0.000 C
ATOM      4  C4  A00 X   1      94.756  36.198  35.6670  0.00  0.00     0.000 C
ATOM      5  C5  A00 X   1      93.797  37.089  34.8780  0.00  0.00     0.000 C
ATOM      6  O5  A00 X   1      94.101  36.819  33.4910  0.00  0.00     0.000 O
ATOM      7   O  A00 X   1      96.653  37.386  36.4920  0.00  0.00     0.000 O
ATOM      9  HD  A00 X   1      95.900  37.023  36.7190  0.00  0.00     0.000 HD
ATOM      9   O  A00 X   1      94.494  34.827  35.3710  0.00  0.00     0.000 O
ATOM     11  HD  A00 X   1      93.741  34.463  35.5970  0.00  0.00     0.000 HD
ENDROOT
BRANCH 2 11
ATOM     11   O  A00 X   1      97.703  36.758  33.4530  0.00  0.00     0.000 O
ATOM     12   O  A00 X   1      99.708  36.336  34.7060  0.00  0.00     0.000 OA
ATOM     13   O  A00 X   1      98.927  38.625  34.4440  0.00  0.00     0.000 OA
ATOM     14   O  A00 X   1      99.764  37.416  32.5750  0.00  0.00     0.000 OA
ATOM     15   S  A00 X   1      99.108  37.329  33.8510  0.00  0.00     0.000 S
ENDBRANCH 2 11
BRANCH 5 16
ATOM     16   C  A00 X   1      93.851  38.578  35.2380  0.00  0.00     0.000 C
ATOM     17   O  A00 X   1      93.269  39.369  34.5260  0.00  0.00     0.000 OA
ATOM     18   O  A00 X   1      94.448  38.991  36.2120  0.00  0.00     0.000 OA
ENDBRANCH 5 16
BRANCH 1 19
ATOM     19  O4  A00 X   2      95.257  38.536  32.2890  0.00  0.00     0.000 O
BRANCH 19 23
ATOM     20  C1  A00 X   2      94.412  36.639  28.5400  0.00  0.00     0.000 C
ATOM     21  C2  A00 X   2      95.870  37.089  28.8010  0.00  0.00     0.000 C
ATOM     22  C3  A00 X   2      96.107  37.341  30.3050  0.00  0.00     0.000 C
ATOM     23  C4  A00 X   2      95.063  38.337  30.8590  0.00  0.00     0.000 C
ATOM     24  C5  A00 X   2      93.652  37.785  30.5190  0.00  0.00     0.000 C
ATOM     25  O5  A00 X   2      93.533  37.663  29.0780  0.00  0.00     0.000 O
ATOM     26   O  A00 X   2      97.488  37.688  30.5020  0.00  0.00     0.000 O
ATOM     28  HD  A00 X   2      97.477  38.292  29.8820  0.00  0.00     0.000 HD
BRANCH 21 30
ATOM     28   N  A00 X   2      95.990  37.397  27.3730  0.00  0.00     0.000 N
ATOM     30  HD  A00 X   2      96.795  37.372  27.6920  0.00  0.00     0.000 HD
ATOM     30   O  A00 X   2      98.206  37.023  26.7320  0.00  0.00     0.000 OA
ATOM     31   S  A00 X   2      97.303  38.112  26.8590  0.00  0.00     0.000 S
ATOM     32   O  A00 X   2      96.902  38.712  25.6240  0.00  0.00     0.000 OA
ATOM     33   O  A00 X   2      97.637  39.124  27.8170  0.00  0.00     0.000 OA
ENDBRANCH 21 30
BRANCH 24 34
ATOM     34   C  A00 X   2      92.428  38.477  31.1630  0.00  0.00     0.000 C
ATOM     35   O  A00 X   2      91.645  42.012  30.7780  0.00  0.00     0.000 OA
ATOM     36   O  A00 X   2      92.565  39.912  31.1390  0.00  0.00     0.000 O
ATOM     37   O  A00 X   2      91.940  40.519  28.9680  0.00  0.00     0.000 OA
ATOM     38   S  A00 X   2      91.469  40.676  30.3100  0.00  0.00     0.000 S
ATOM     39   O  A00 X   2      90.214  40.075  30.6470  0.00  0.00     0.000 OA
ENDBRANCH 24 34
BRANCH 20 40
ATOM     40  O4  A00 X   3      94.242  35.423  29.2830  0.00  0.00     0.000 O
BRANCH 40 44
ATOM     41  C1  A00 X   3      92.161  33.450  31.4970  0.00  0.00     0.000 C
ATOM     42  C2  A00 X   3      93.558  33.028  30.9940  0.00  0.00     0.000 C
ATOM     43  C3  A00 X   3      93.655  33.154  29.4510  0.00  0.00     0.000 C
ATOM     44  C4  A00 X   3      93.202  34.499  28.8970  0.00  0.00     0.000 C
ATOM     45  C5  A00 X   3      91.790  34.851  29.4430  0.00  0.00     0.000 C
ATOM     46  O5  A00 X   3      91.742  34.708  30.8990  0.00  0.00     0.000 O
ATOM     47   O  A00 X   3      94.876  32.708  28.8650  0.00  0.00     0.000 O
ATOM     49  HD  A00 X   3      94.756  33.401  28.3600  0.00  0.00     0.000 HD
BRANCH 42 49
ATOM     49   O  A00 X   3      94.521  33.878  31.6550  0.00  0.00     0.000 O
ATOM     50   O  A00 X   3      96.896  34.174  31.6030  0.00  0.00     0.000 OA
ATOM     51   O  A00 X   3      96.018  31.979  31.5640  0.00  0.00     0.000 OA
ATOM     52   O  A00 X   3      95.776  33.255  33.5390  0.00  0.00     0.000 OA
ATOM     53   S  A00 X   3      95.889  33.302  32.1220  0.00  0.00     0.000 S
ENDBRANCH 42 49
BRANCH 45 54
ATOM     54   C  A00 X   3      90.690  34.062  28.7220  0.00  0.00     0.000 C
ATOM     55   O  A00 X   3      89.518  34.312  28.9200  0.00  0.00     0.000 OA
ATOM     56   O  A00 X   3      90.972  33.169  27.9390  0.00  0.00     0.000 OA
ENDBRANCH 45 54
BRANCH 41 57
ATOM     57  O4  A00 X   4      91.197  32.383  31.3540  0.00  0.00     0.000 O
BRANCH 57 61
ATOM     58  C1  A00 X   4      87.746  31.212  33.6690  0.00  0.00     0.000 C
ATOM     59  C2  A00 X   4      87.755  32.614  33.0090  0.00  0.00     0.000 C
ATOM     60  C3  A00 X   4      88.848  32.779  31.9330  0.00  0.00     0.000 C
ATOM     61  C4  A00 X   4      90.223  32.283  32.4310  0.00  0.00     0.000 C
ATOM     62  C5  A00 X   4      90.028  30.802  32.8420  0.00  0.00     0.000 C
ATOM     63  O5  A00 X   4      89.082  30.732  33.9400  0.00  0.00     0.000 O
BRANCH 59 66
ATOM     64   N  A00 X   4      88.041  33.639  34.0290  0.00  0.00     0.000 N
ATOM     66  HD  A00 X   4      88.508  33.399  34.7180  0.00  0.00     0.000 HD
ATOM     66   O  A00 X   4      85.707  33.559  34.6180  0.00  0.00     0.000 OA
ATOM     67   S  A00 X   4      86.813  34.464  34.6370  0.00  0.00     0.000 S
ATOM     68   O  A00 X   4      87.331  34.778  35.9370  0.00  0.00     0.000 OA
ATOM     69   O  A00 X   4      86.783  35.578  33.7310  0.00  0.00     0.000 OA
ENDBRANCH 59 66
BRANCH 62 70
ATOM     70   C  A00 X   4      91.332  30.088  33.2710  0.00  0.00     0.000 C
ATOM     71   O  A00 X   4      93.358  30.656  36.2170  0.00  0.00     0.000 OA
ATOM     72   O  A00 X   4      93.963  30.493  33.9470  0.00  0.00     0.000 OA
ATOM     73   O  A00 X   4      91.655  30.458  34.6210  0.00  0.00     0.000 O
ATOM     74   O  A00 X   4      92.889  32.522  34.7640  0.00  0.00     0.000 OA
ATOM     75   S  A00 X   4      93.056  31.110  34.8890  0.00  0.00     0.000 S
ENDBRANCH 62 70
ENDBRANCH 57 61
ENDBRANCH 41 57
ENDBRANCH 40 44
ENDBRANCH 20 40
ENDBRANCH 19 23
ENDBRANCH 1 19
TORSDOF 14
ENDMDL
MODEL 93
REMARK VINA RESULT:      -1.3     61.083     65.723
ROOT
ATOM      1  C1  A00 X   1      40.623  90.347  32.9430  0.00  0.00     0.000 C
ATOM      2  C2  A00 X   1      40.232  88.861  33.1600  0.00  0.00     0.000 C
ATOM      3  C3  A00 X   1      38.700  88.558  33.2470  0.00  0.00     0.000 C
ATOM      4  C4  A00 X   1      37.787  89.790  33.4730  0.00  0.00     0.000 C
ATOM      5  C5  A00 X   1      38.542  90.961  34.1020  0.00  0.00     0.000 C
ATOM      6  O5  A00 X   1      39.555  91.309  33.1310  0.00  0.00     0.000 O
ATOM      7   O  A00 X   1      38.469  87.676  34.3430  0.00  0.00     0.000 O
ATOM      9  HD  A00 X   1      37.836  88.267  34.3530  0.00  0.00     0.000 HD
ATOM      9   O  A00 X   1      37.169  90.212  32.2580  0.00  0.00     0.000 O
ATOM     11  HD  A00 X   1      36.536  90.803  32.2670  0.00  0.00     0.000 HD
ENDROOT
BRANCH 2 11
ATOM     11   O  A00 X   1      40.802  88.096  32.0810  0.00  0.00     0.000 O
ATOM     12   O  A00 X   1      40.591  85.706  31.9680  0.00  0.00     0.000 OA
ATOM     13   O  A00 X   1      41.835  86.706  33.8030  0.00  0.00     0.000 OA
ATOM     14   O  A00 X   1      42.680  86.801  31.5820  0.00  0.00     0.000 OA
ATOM     15   S  A00 X   1      41.503  86.732  32.4060  0.00  0.00     0.000 S
ENDBRANCH 2 11
BRANCH 5 16
ATOM     16   C  A00 X   1      39.103  90.693  35.5020  0.00  0.00     0.000 C
ATOM     17   O  A00 X   1      39.879  91.494  35.9810  0.00  0.00     0.000 OA
ATOM     18   O  A00 X   1      38.794  89.714  36.1520  0.00  0.00     0.000 OA
ENDBRANCH 5 16
BRANCH 1 19
ATOM     19  O4  A00 X   2      41.812  90.729  33.6760  0.00  0.00     0.000 O
BRANCH 19 23
ATOM     20  C1  A00 X   2      43.271  93.300  30.5740  0.00  0.00     0.000 C
ATOM     21  C2  A00 X   2      43.859  91.870  30.6520  0.00  0.00     0.000 C
ATOM     22  C3  A00 X   2      42.957  90.951  31.5020  0.00  0.00     0.000 C
ATOM     23  C4  A00 X   2      42.704  91.573  32.8940  0.00  0.00     0.000 C
ATOM     24  C5  A00 X   2      42.137  93.003  32.6790  0.00  0.00     0.000 C
ATOM     25  O5  A00 X   2      43.107  93.784  31.9340  0.00  0.00     0.000 O
ATOM     26   O  A00 X   2      43.507  89.623  31.4880  0.00  0.00     0.000 O
ATOM     28  HD  A00 X   2      44.300  89.895  31.7030  0.00  0.00     0.000 HD
BRANCH 21 30
ATOM     28   N  A00 X   2      45.144  92.415  30.2030  0.00  0.00     0.000 N
ATOM     30  HD  A00 X   2      45.186  91.556  30.1010  0.00  0.00     0.000 HD
ATOM     30   O  A00 X   2      46.234  90.769  28.9530  0.00  0.00     0.000 OA
ATOM     31   S  A00 X   2      46.405  91.462  30.1800  0.00  0.00     0.000 S
ATOM     32   O  A00 X   2      47.513  92.367  30.2140  0.00  0.00     0.000 OA
ATOM     33   O  A00 X   2      46.366  90.680  31.3800  0.00  0.00     0.000 OA
ENDBRANCH 21 30
BRANCH 24 34
ATOM     34   C  A00 X   2      41.584  93.757  33.9110  0.00  0.00     0.000 C
ATOM     35   O  A00 X   2      42.977  96.867  35.1950  0.00  0.00     0.000 OA
ATOM     36   O  A00 X   2      42.527  94.736  34.3920  0.00  0.00     0.000 O
ATOM     37   O  A00 X   2      42.239  96.569  32.9680  0.00  0.00     0.000 OA
ATOM     38   S  A00 X   2      42.030  96.227  34.3420  0.00  0.00     0.000 S
ATOM     39   O  A00 X   2      40.683  96.221  34.8260  0.00  0.00     0.000 OA
ENDBRANCH 24 34
BRANCH 20 40
ATOM     40  O4  A00 X   3      41.984  93.157  29.9570  0.00  0.00     0.000 O
BRANCH 40 44
ATOM     41  C1  A00 X   3      38.477  94.066  29.8990  0.00  0.00     0.000 C
ATOM     42  C2  A00 X   3      39.143  93.065  28.9300  0.00  0.00     0.000 C
ATOM     43  C3  A00 X   3      40.415  93.677  28.2870  0.00  0.00     0.000 C
ATOM     44  C4  A00 X   3      41.395  94.288  29.2810  0.00  0.00     0.000 C
ATOM     45  C5  A00 X   3      40.653  95.285  30.2160  0.00  0.00     0.000 C
ATOM     46  O5  A00 X   3      39.455  94.669  30.7910  0.00  0.00     0.000 O
ATOM     47   O  A00 X   3      41.066  92.872  27.3060  0.00  0.00     0.000 O
ATOM     49  HD  A00 X   3      41.779  93.186  27.6850  0.00  0.00     0.000 HD
BRANCH 42 49
ATOM     49   O  A00 X   3      39.456  91.880  29.6940  0.00  0.00     0.000 O
ATOM     50   O  A00 X   3      40.528  89.781  29.2740  0.00  0.00     0.000 OA
ATOM     51   O  A00 X   3      39.049  90.652  27.6480  0.00  0.00     0.000 OA
ATOM     52   O  A00 X   3      38.154  89.926  29.7120  0.00  0.00     0.000 OA
ATOM     53   S  A00 X   3      39.294  90.469  29.0570  0.00  0.00     0.000 S
ENDBRANCH 42 49
BRANCH 45 54
ATOM     54   C  A00 X   3      40.368  96.617  29.5120  0.00  0.00     0.000 C
ATOM     55   O  A00 X   3      39.934  97.565  30.1350  0.00  0.00     0.000 OA
ATOM     56   O  A00 X   3      40.571  96.749  28.3150  0.00  0.00     0.000 OA
ENDBRANCH 45 54
BRANCH 41 57
ATOM     57  O4  A00 X   4      37.654  95.023  29.1960  0.00  0.00     0.000 O
BRANCH 57 61
ATOM     58  C1  A00 X   4      33.981  97.050  30.2140  0.00  0.00     0.000 C
ATOM     59  C2  A00 X   4      35.233  97.301  31.0900  0.00  0.00     0.000 C
ATOM     60  C3  A00 X   4      36.546  96.824  30.4360  0.00  0.00     0.000 C
ATOM     61  C4  A00 X   4      36.420  95.392  29.8740  0.00  0.00     0.000 C
ATOM     62  C5  A00 X   4      35.243  95.423  28.8660  0.00  0.00     0.000 C
ATOM     63  O5  A00 X   4      34.020  95.755  29.5710  0.00  0.00     0.000 O
BRANCH 59 66
ATOM     64   N  A00 X   4      35.136  96.555  32.3580  0.00  0.00     0.000 N
ATOM     66  HD  A00 X   4      34.673  95.823  32.3570  0.00  0.00     0.000 HD
ATOM     66   O  A00 X   4      33.752  98.342  33.1880  0.00  0.00     0.000 OA
ATOM     67   S  A00 X   4      34.655  97.341  33.6650  0.00  0.00     0.000 S
ATOM     68   O  A00 X   4      34.054  96.270  34.4040  0.00  0.00     0.000 OA
ATOM     69   O  A00 X   4      35.922  97.774  34.1810  0.00  0.00     0.000 OA
ENDBRANCH 59 66
BRANCH 62 70
ATOM     70   C  A00 X   4      35.027  94.092  28.1070  0.00  0.00     0.000 C
ATOM     71   O  A00 X   4      33.807  90.932  29.3850  0.00  0.00     0.000 OA
ATOM     72   O  A00 X   4      35.694  91.428  28.0650  0.00  0.00     0.000 OA
ATOM     73   O  A00 X   4      34.300  93.180  28.9450  0.00  0.00     0.000 O
ATOM     74   O  A00 X   4      35.721  91.943  30.4470  0.00  0.00     0.000 OA
ATOM     75   S  A00 X   4      34.953  91.788  29.2540  0.00  0.00     0.000 S
ENDBRANCH 62 70
ENDBRANCH 57 61
ENDBRANCH 41 57
ENDBRANCH 40 44
ENDBRANCH 20 40
ENDBRANCH 19 23
ENDBRANCH 1 19
TORSDOF 14
ENDMDL
MODEL 94
REMARK VINA RESULT:      -1.3     71.582     76.666
ROOT
ATOM      1  C1  A00 X   1      73.725  38.784 110.0480  0.00  0.00     0.000 C
ATOM      2  C2  A00 X   1      74.600  37.612 109.5280  0.00  0.00     0.000 C
ATOM      3  C3  A00 X   1      76.145  37.774 109.7110  0.00  0.00     0.000 C
ATOM      4  C4  A00 X   1      76.632  39.209 110.0410  0.00  0.00     0.000 C
ATOM      5  C5  A00 X   1      75.629  40.275 109.6010  0.00  0.00     0.000 C
ATOM      6  O5  A00 X   1      74.440  40.001 110.3750  0.00  0.00     0.000 O
ATOM      7   O  A00 X   1      76.792  37.397 108.4970  0.00  0.00     0.000 O
ATOM      9  HD  A00 X   1      77.195  38.104 108.7920  0.00  0.00     0.000 HD
ATOM      9   O  A00 X   1      76.914  39.357 111.4330  0.00  0.00     0.000 O
ATOM     11  HD  A00 X   1      77.317  40.064 111.7270  0.00  0.00     0.000 HD
ENDROOT
BRANCH 2 11
ATOM     11   O  A00 X   1      74.171  36.412 110.2000  0.00  0.00     0.000 O
ATOM     12   O  A00 X   1      75.354  34.335 109.9680  0.00  0.00     0.000 OA
ATOM     13   O  A00 X   1      74.287  35.321 108.0180  0.00  0.00     0.000 OA
ATOM     14   O  A00 X   1      72.972  34.449 109.7980  0.00  0.00     0.000 OA
ATOM     15   S  A00 X   1      74.225  35.050 109.4270  0.00  0.00     0.000 S
ENDBRANCH 2 11
BRANCH 5 16
ATOM     16   C  A00 X   1      75.376  40.342 108.0920  0.00  0.00     0.000 C
ATOM     17   O  A00 X   1      74.451  41.017 107.6870  0.00  0.00     0.000 OA
ATOM     18   O  A00 X   1      76.069  39.753 107.2870  0.00  0.00     0.000 OA
ENDBRANCH 5 16
BRANCH 1 19
ATOM     19  O4  A00 X   2      72.584  39.053 109.1970  0.00  0.00     0.000 O
BRANCH 19 23
ATOM     20  C1  A00 X   2      69.937  39.838 112.4740  0.00  0.00     0.000 C
ATOM     21  C2  A00 X   2      69.896  38.425 111.8450  0.00  0.00     0.000 C
ATOM     22  C3  A00 X   2      71.162  38.160 111.0040  0.00  0.00     0.000 C
ATOM     23  C4  A00 X   2      71.362  39.278 109.9560  0.00  0.00     0.000 C
ATOM     24  C5  A00 X   2      71.367  40.638 110.7070  0.00  0.00     0.000 C
ATOM     25  O5  A00 X   2      70.098  40.796 111.3940  0.00  0.00     0.000 O
ATOM     26   O  A00 X   2      71.108  36.815 110.5000  0.00  0.00     0.000 O
ATOM     28  HD  A00 X   2      70.305  36.909 110.1910  0.00  0.00     0.000 HD
BRANCH 21 30
ATOM     28   N  A00 X   2      68.455  38.388 112.1130  0.00  0.00     0.000 N
ATOM     30  HD  A00 X   2      68.700  37.574 111.9490  0.00  0.00     0.000 HD
ATOM     30   O  A00 X   2      67.849  36.171 112.5340  0.00  0.00     0.000 OA
ATOM     31   S  A00 X   2      67.610  37.173 111.5570  0.00  0.00     0.000 S
ATOM     32   O  A00 X   2      66.272  37.678 111.5240  0.00  0.00     0.000 OA
ATOM     33   O  A00 X   2      68.075  36.908 110.2280  0.00  0.00     0.000 OA
ENDBRANCH 21 30
BRANCH 24 34
ATOM     34   C  A00 X   2      71.779  41.902 109.9160  0.00  0.00     0.000 C
ATOM     35   O  A00 X   2      70.065  43.093 106.9330  0.00  0.00     0.000 OA
ATOM     36   O  A00 X   2      71.164  41.927 108.6130  0.00  0.00     0.000 O
ATOM     37   O  A00 X   2      68.997  42.714 109.0090  0.00  0.00     0.000 OA
ATOM     38   S  A00 X   2      70.196  43.139 108.3530  0.00  0.00     0.000 S
ATOM     39   O  A00 X   2      70.856  44.302 108.8640  0.00  0.00     0.000 OA
ENDBRANCH 24 34
BRANCH 20 40
ATOM     40  O4  A00 X   3      71.103  39.857 113.3100  0.00  0.00     0.000 O
BRANCH 40 44
ATOM     41  C1  A00 X   3      74.047  41.659 114.4120  0.00  0.00     0.000 C
ATOM     42  C2  A00 X   3      73.656  40.241 114.8810  0.00  0.00     0.000 C
ATOM     43  C3  A00 X   3      72.185  40.202 115.3670  0.00  0.00     0.000 C
ATOM     44  C4  A00 X   3      71.180  40.807 114.3950  0.00  0.00     0.000 C
ATOM     45  C5  A00 X   3      71.639  42.232 113.9740  0.00  0.00     0.000 C
ATOM     46  O5  A00 X   3      73.035  42.223 113.5320  0.00  0.00     0.000 O
ATOM     47   O  A00 X   3      71.739  38.959 115.9060  0.00  0.00     0.000 O
ATOM     49  HD  A00 X   3      71.012  39.165 115.4820  0.00  0.00     0.000 HD
BRANCH 42 49
ATOM     49   O  A00 X   3      73.866  39.352 113.7620  0.00  0.00     0.000 O
ATOM     50   O  A00 X   3      73.544  37.022 113.3150  0.00  0.00     0.000 OA
ATOM     51   O  A00 X   3      74.426  37.671 115.4110  0.00  0.00     0.000 OA
ATOM     52   O  A00 X   3      75.755  37.986 113.4820  0.00  0.00     0.000 OA
ATOM     53   S  A00 X   3      74.429  37.919 113.9900  0.00  0.00     0.000 S
ENDBRANCH 42 49
BRANCH 45 54
ATOM     54   C  A00 X   3      71.360  43.265 115.0720  0.00  0.00     0.000 C
ATOM     55   O  A00 X   3      71.486  44.452 114.8510  0.00  0.00     0.000 OA
ATOM     56   O  A00 X   3      71.008  42.913 116.1870  0.00  0.00     0.000 OA
ENDBRANCH 45 54
BRANCH 41 57
ATOM     57  O4  A00 X   4      74.398  42.511 115.5250  0.00  0.00     0.000 O
BRANCH 57 61
ATOM     58  C1  A00 X   4      77.238  45.733 115.9750  0.00  0.00     0.000 C
ATOM     59  C2  A00 X   4      76.096  45.890 114.9390  0.00  0.00     0.000 C
ATOM     60  C3  A00 X   4      74.959  44.863 115.1170  0.00  0.00     0.000 C
ATOM     61  C4  A00 X   4      75.503  43.427 115.2770  0.00  0.00     0.000 C
ATOM     62  C5  A00 X   4      76.459  43.456 116.4950  0.00  0.00     0.000 C
ATOM     63  O5  A00 X   4      77.569  44.345 116.2090  0.00  0.00     0.000 O
BRANCH 59 66
ATOM     64   N  A00 X   4      76.587  45.680 113.5650  0.00  0.00     0.000 N
ATOM     66  HD  A00 X   4      77.267  45.154 113.4600  0.00  0.00     0.000 HD
ATOM     66   O  A00 X   4      77.375  47.956 113.6080  0.00  0.00     0.000 OA
ATOM     67   S  A00 X   4      76.926  46.967 112.6780  0.00  0.00     0.000 S
ATOM     68   O  A00 X   4      77.935  46.428 111.8140  0.00  0.00     0.000 OA
ATOM     69   O  A00 X   4      75.657  47.176 112.0400  0.00  0.00     0.000 OA
ENDBRANCH 59 66
BRANCH 62 70
ATOM     70   C  A00 X   4      77.026  42.071 116.8860  0.00  0.00     0.000 C
ATOM     71   O  A00 X   4      79.408  40.015 115.0950  0.00  0.00     0.000 OA
ATOM     72   O  A00 X   4      77.320  39.474 116.0400  0.00  0.00     0.000 OA
ATOM     73   O  A00 X   4      78.120  41.742 116.0150  0.00  0.00     0.000 O
ATOM     74   O  A00 X   4      77.408  40.725 113.9500  0.00  0.00     0.000 OA
ATOM     75   S  A00 X   4      78.031  40.408 115.1950  0.00  0.00     0.000 S
ENDBRANCH 62 70
ENDBRANCH 57 61
ENDBRANCH 41 57
ENDBRANCH 40 44
ENDBRANCH 20 40
ENDBRANCH 19 23
ENDBRANCH 1 19
TORSDOF 14
ENDMDL
MODEL 95
REMARK VINA RESULT:      -1.2     28.999     32.603
ROOT
ATOM      1  C1  A00 X   1      18.160  48.188  31.3820  0.00  0.00     0.000 C
ATOM      2  C2  A00 X   1      18.758  49.398  32.1490  0.00  0.00     0.000 C
ATOM      3  C3  A00 X   1      18.296  49.567  33.6330  0.00  0.00     0.000 C
ATOM      4  C4  A00 X   1      17.044  48.749  34.0410  0.00  0.00     0.000 C
ATOM      5  C5  A00 X   1      16.185  48.369  32.8350  0.00  0.00     0.000 C
ATOM      6  O5  A00 X   1      17.040  47.532  32.0240  0.00  0.00     0.000 O
ATOM      7   O  A00 X   1      17.975  50.938  33.8590  0.00  0.00     0.000 O
ATOM      9  HD  A00 X   1      17.369  50.464  34.2580  0.00  0.00     0.000 HD
ATOM      9   O  A00 X   1      17.402  47.573  34.7670  0.00  0.00     0.000 O
ATOM     11  HD  A00 X   1      16.796  47.100  35.1660  0.00  0.00     0.000 HD
ENDROOT
BRANCH 2 11
ATOM     11   O  A00 X   1      20.193  49.272  32.1150  0.00  0.00     0.000 O
ATOM     12   O  A00 X   1      21.623  50.686  33.4290  0.00  0.00     0.000 OA
ATOM     13   O  A00 X   1      20.249  51.676  31.6820  0.00  0.00     0.000 OA
ATOM     14   O  A00 X   1      22.067  50.249  31.1210  0.00  0.00     0.000 OA
ATOM     15   S  A00 X   1      21.068  50.573  32.1030  0.00  0.00     0.000 S
ENDBRANCH 2 11
BRANCH 5 16
ATOM     16   C  A00 X   1      15.582  49.552  32.0700  0.00  0.00     0.000 C
ATOM     17   O  A00 X   1      15.047  49.341  31.0020  0.00  0.00     0.000 OA
ATOM     18   O  A00 X   1      15.615  50.689  32.4980  0.00  0.00     0.000 OA
ENDBRANCH 5 16
BRANCH 1 19
ATOM     19  O4  A00 X   2      17.871  48.490  29.9950  0.00  0.00     0.000 O
BRANCH 19 23
ATOM     20  C1  A00 X   2      18.097  46.084  26.4560  0.00  0.00     0.000 C
ATOM     21  C2  A00 X   2      16.932  45.805  27.4360  0.00  0.00     0.000 C
ATOM     22  C3  A00 X   2      16.730  46.992  28.4010  0.00  0.00     0.000 C
ATOM     23  C4  A00 X   2      18.052  47.338  29.1230  0.00  0.00     0.000 C
ATOM     24  C5  A00 X   2      19.137  47.575  28.0370  0.00  0.00     0.000 C
ATOM     25  O5  A00 X   2      19.281  46.366  27.2480  0.00  0.00     0.000 O
ATOM     26   O  A00 X   2      15.597  46.715  29.2420  0.00  0.00     0.000 O
ATOM     28  HD  A00 X   2      15.887  45.929  29.4590  0.00  0.00     0.000 HD
BRANCH 21 30
ATOM     28   N  A00 X   2      15.471  45.697  27.5080  0.00  0.00     0.000 N
ATOM     30  HD  A00 X   2      15.761  44.959  27.1610  0.00  0.00     0.000 HD
ATOM     30   O  A00 X   2      14.894  43.449  27.2390  0.00  0.00     0.000 OA
ATOM     31   S  A00 X   2      14.738  44.679  26.5470  0.00  0.00     0.000 S
ATOM     32   O  A00 X   2      13.397  45.173  26.4890  0.00  0.00     0.000 OA
ATOM     33   O  A00 X   2      15.363  44.785  25.2620  0.00  0.00     0.000 OA
ENDBRANCH 21 30
BRANCH 24 34
ATOM     34   C  A00 X   2      20.497  48.160  28.4860  0.00  0.00     0.000 C
ATOM     35   O  A00 X   2      23.563  46.217  28.7660  0.00  0.00     0.000 OA
ATOM     36   O  A00 X   2      21.424  47.115  28.8410  0.00  0.00     0.000 O
ATOM     37   O  A00 X   2      22.268  46.365  26.7930  0.00  0.00     0.000 OA
ATOM     38   S  A00 X   2      22.727  47.048  27.9640  0.00  0.00     0.000 S
ATOM     39   O  A00 X   2      23.181  48.397  27.8090  0.00  0.00     0.000 OA
ENDBRANCH 24 34
BRANCH 20 40
ATOM     40  O4  A00 X   3      17.717  47.260  25.7260  0.00  0.00     0.000 O
BRANCH 40 44
ATOM     41  C1  A00 X   3      19.990  48.850  23.3960  0.00  0.00     0.000 C
ATOM     42  C2  A00 X   3      18.757  49.532  24.0280  0.00  0.00     0.000 C
ATOM     43  C3  A00 X   3      17.489  48.658  23.8530  0.00  0.00     0.000 C
ATOM     44  C4  A00 X   3      17.655  47.207  24.2850  0.00  0.00     0.000 C
ATOM     45  C5  A00 X   3      18.910  46.590  23.6060  0.00  0.00     0.000 C
ATOM     46  O5  A00 X   3      20.080  47.452  23.7870  0.00  0.00     0.000 O
ATOM     47   O  A00 X   3      16.269  49.230  24.3220  0.00  0.00     0.000 O
ATOM     49  HD  A00 X   3      16.119  48.417  24.5800  0.00  0.00     0.000 HD
BRANCH 42 49
ATOM     49   O  A00 X   3      19.061  49.748  25.4230  0.00  0.00     0.000 O
ATOM     50   O  A00 X   3      17.947  50.711  27.3100  0.00  0.00     0.000 OA
ATOM     51   O  A00 X   3      17.789  51.796  25.2160  0.00  0.00     0.000 OA
ATOM     52   O  A00 X   3      19.883  51.760  26.3110  0.00  0.00     0.000 OA
ATOM     53   S  A00 X   3      18.650  51.077  26.1210  0.00  0.00     0.000 S
ENDBRANCH 42 49
BRANCH 45 54
ATOM     54   C  A00 X   3      18.644  46.235  22.1380  0.00  0.00     0.000 C
ATOM     55   O  A00 X   3      17.725  46.749  21.5340  0.00  0.00     0.000 OA
ATOM     56   O  A00 X   3      19.350  45.428  21.5520  0.00  0.00     0.000 OA
ENDBRANCH 45 54
BRANCH 41 57
ATOM     57  O4  A00 X   4      20.047  49.065  21.9680  0.00  0.00     0.000 O
BRANCH 57 61
ATOM     58  C1  A00 X   4      23.334  48.767  19.1850  0.00  0.00     0.000 C
ATOM     59  C2  A00 X   4      22.252  47.658  19.1770  0.00  0.00     0.000 C
ATOM     60  C3  A00 X   4      20.968  48.045  19.9380  0.00  0.00     0.000 C
ATOM     61  C4  A00 X   4      21.283  48.640  21.3280  0.00  0.00     0.000 C
ATOM     62  C5  A00 X   4      22.206  49.859  21.0810  0.00  0.00     0.000 C
ATOM     63  O5  A00 X   4      23.445  49.406  20.4780  0.00  0.00     0.000 O
BRANCH 59 66
ATOM     64   N  A00 X   4      22.738  46.436  19.8430  0.00  0.00     0.000 N
ATOM     66  HD  A00 X   4      23.333  46.529  20.4660  0.00  0.00     0.000 HD
ATOM     66   O  A00 X   4      23.860  45.881  17.7860  0.00  0.00     0.000 OA
ATOM     67   S  A00 X   4      23.288  45.243  18.9300  0.00  0.00     0.000 S
ATOM     68   O  A00 X   4      24.224  44.638  19.8310  0.00  0.00     0.000 OA
ATOM     69   O  A00 X   4      22.080  44.490  18.7430  0.00  0.00     0.000 OA
ENDBRANCH 59 66
BRANCH 62 70
ATOM     70   C  A00 X   4      22.547  50.662  22.3590  0.00  0.00     0.000 C
ATOM     71   O  A00 X   4      25.031  49.938  24.8910  0.00  0.00     0.000 OA
ATOM     72   O  A00 X   4      22.753  50.499  25.0930  0.00  0.00     0.000 OA
ATOM     73   O  A00 X   4      23.757  50.146  22.9360  0.00  0.00     0.000 O
ATOM     74   O  A00 X   4      23.381  48.255  24.3800  0.00  0.00     0.000 OA
ATOM     75   S  A00 X   4      23.706  49.644  24.4200  0.00  0.00     0.000 S
ENDBRANCH 62 70
ENDBRANCH 57 61
ENDBRANCH 41 57
ENDBRANCH 40 44
ENDBRANCH 20 40
ENDBRANCH 19 23
ENDBRANCH 1 19
TORSDOF 14
ENDMDL
MODEL 96
REMARK VINA RESULT:      -1.0     28.205     33.401
ROOT
ATOM      1  C1  A00 X   1      18.908  51.141  33.4380  0.00  0.00     0.000 C
ATOM      2  C2  A00 X   1      17.742  50.859  32.4530  0.00  0.00     0.000 C
ATOM      3  C3  A00 X   1      16.350  50.563  33.1030  0.00  0.00     0.000 C
ATOM      4  C4  A00 X   1      16.378  50.225  34.6160  0.00  0.00     0.000 C
ATOM      5  C5  A00 X   1      17.745  49.715  35.0690  0.00  0.00     0.000 C
ATOM      6  O5  A00 X   1      18.647  50.817  34.8260  0.00  0.00     0.000 O
ATOM      7   O  A00 X   1      15.770  49.438  32.4480  0.00  0.00     0.000 O
ATOM      9  HD  A00 X   1      15.616  49.347  33.2950  0.00  0.00     0.000 HD
ATOM      9   O  A00 X   1      15.995  51.349  35.4090  0.00  0.00     0.000 O
ATOM     11  HD  A00 X   1      15.841  51.258  36.2560  0.00  0.00     0.000 HD
ENDROOT
BRANCH 2 11
ATOM     11   O  A00 X   1      17.619  51.999  31.5810  0.00  0.00     0.000 O
ATOM     12   O  A00 X   1      15.761  52.258  30.0820  0.00  0.00     0.000 OA
ATOM     13   O  A00 X   1      17.294  50.396  29.7680  0.00  0.00     0.000 OA
ATOM     14   O  A00 X   1      18.012  52.628  29.3670  0.00  0.00     0.000 OA
ATOM     15   S  A00 X   1      17.120  51.780  30.1120  0.00  0.00     0.000 S
ENDBRANCH 2 11
BRANCH 5 16
ATOM     16   C  A00 X   1      18.194  48.401  34.4210  0.00  0.00     0.000 C
ATOM     17   O  A00 X   1      17.347  47.650  33.9820  0.00  0.00     0.000 OA
ATOM     18   O  A00 X   1      19.364  48.089  34.3240  0.00  0.00     0.000 OA
ENDBRANCH 5 16
BRANCH 1 19
ATOM     19  O4  A00 X   2      20.167  50.579  32.9920  0.00  0.00     0.000 O
BRANCH 19 23
ATOM     20  C1  A00 X   2      22.273  54.288  33.4060  0.00  0.00     0.000 C
ATOM     21  C2  A00 X   2      22.037  53.756  31.9710  0.00  0.00     0.000 C
ATOM     22  C3  A00 X   2      20.926  52.686  31.9580  0.00  0.00     0.000 C
ATOM     23  C4  A00 X   2      21.241  51.562  32.9700  0.00  0.00     0.000 C
ATOM     24  C5  A00 X   2      21.474  52.223  34.3560  0.00  0.00     0.000 C
ATOM     25  O5  A00 X   2      22.586  53.149  34.2510  0.00  0.00     0.000 O
ATOM     26   O  A00 X   2      20.697  52.275  30.5990  0.00  0.00     0.000 O
ATOM     28  HD  A00 X   2      21.538  52.136  30.4470  0.00  0.00     0.000 HD
BRANCH 21 30
ATOM     28   N  A00 X   2      23.334  54.325  31.5910  0.00  0.00     0.000 N
ATOM     30  HD  A00 X   2      22.911  54.152  30.8560  0.00  0.00     0.000 HD
ATOM     30   O  A00 X   2      23.215  54.973  29.3500  0.00  0.00     0.000 OA
ATOM     31   S  A00 X   2      23.901  54.020  30.1480  0.00  0.00     0.000 S
ATOM     32   O  A00 X   2      25.307  54.246  30.2820  0.00  0.00     0.000 OA
ATOM     33   O  A00 X   2      23.644  52.637  29.8740  0.00  0.00     0.000 OA
ENDBRANCH 21 30
BRANCH 24 34
ATOM     34   C  A00 X   2      21.581  51.298  35.5920  0.00  0.00     0.000 C
ATOM     35   O  A00 X   2      23.921  48.522  35.8670  0.00  0.00     0.000 OA
ATOM     36   O  A00 X   2      22.321  50.099  35.2850  0.00  0.00     0.000 O
ATOM     37   O  A00 X   2      24.564  50.751  35.4060  0.00  0.00     0.000 OA
ATOM     38   S  A00 X   2      23.648  49.901  36.1040  0.00  0.00     0.000 S
ATOM     39   O  A00 X   2      23.339  50.234  37.4630  0.00  0.00     0.000 OA
ENDBRANCH 24 34
BRANCH 20 40
ATOM     40  O4  A00 X   3      21.024  54.861  33.8170  0.00  0.00     0.000 O
BRANCH 40 44
ATOM     41  C1  A00 X   3      18.103  56.164  35.5190  0.00  0.00     0.000 C
ATOM     42  C2  A00 X   3      18.692  56.743  34.2140  0.00  0.00     0.000 C
ATOM     43  C3  A00 X   3      20.214  57.000  34.3590  0.00  0.00     0.000 C
ATOM     44  C4  A00 X   3      21.008  55.817  34.9000  0.00  0.00     0.000 C
ATOM     45  C5  A00 X   3      20.357  55.296  36.2120  0.00  0.00     0.000 C
ATOM     46  O5  A00 X   3      18.921  55.077  36.0330  0.00  0.00     0.000 O
ATOM     47   O  A00 X   3      20.851  57.616  33.2410  0.00  0.00     0.000 O
ATOM     49  HD  A00 X   3      21.487  57.064  33.4420  0.00  0.00     0.000 HD
BRANCH 42 49
ATOM     49   O  A00 X   3      18.415  55.789  33.1650  0.00  0.00     0.000 O
ATOM     50   O  A00 X   3      18.853  55.618  30.8180  0.00  0.00     0.000 OA
ATOM     51   O  A00 X   3      18.186  57.705  31.7060  0.00  0.00     0.000 OA
ATOM     52   O  A00 X   3      16.613  55.942  31.6680  0.00  0.00     0.000 OA
ATOM     53   S  A00 X   3      17.992  56.277  31.7490  0.00  0.00     0.000 S
ENDBRANCH 42 49
BRANCH 45 54
ATOM     54   C  A00 X   3      20.686  56.200  37.4060  0.00  0.00     0.000 C
ATOM     55   O  A00 X   3      20.290  55.923  38.5200  0.00  0.00     0.000 OA
ATOM     56   O  A00 X   3      21.348  57.215  37.2580  0.00  0.00     0.000 OA
ENDBRANCH 45 54
BRANCH 41 57
ATOM     57  O4  A00 X   4      17.829  57.202  36.4870  0.00  0.00     0.000 O
BRANCH 57 61
ATOM     58  C1  A00 X   4      14.671  57.731  39.3820  0.00  0.00     0.000 C
ATOM     59  C2  A00 X   4      15.509  56.429  39.4290  0.00  0.00     0.000 C
ATOM     60  C3  A00 X   4      16.811  56.506  38.6050  0.00  0.00     0.000 C
ATOM     61  C4  A00 X   4      16.562  57.072  37.1910  0.00  0.00     0.000 C
ATOM     62  C5  A00 X   4      15.912  58.465  37.3870  0.00  0.00     0.000 C
ATOM     63  O5  A00 X   4      14.635  58.306  38.0560  0.00  0.00     0.000 O
BRANCH 59 66
ATOM     64   N  A00 X   4      15.899  55.207  40.1540  0.00  0.00     0.000 N
ATOM     66  HD  A00 X   4      16.057  54.496  39.6840  0.00  0.00     0.000 HD
ATOM     66   O  A00 X   4      13.640  55.095  40.9800  0.00  0.00     0.000 OA
ATOM     67   S  A00 X   4      14.964  54.704  41.3500  0.00  0.00     0.000 S
ATOM     68   O  A00 X   4      15.226  53.295  41.3090  0.00  0.00     0.000 OA
ATOM     69   O  A00 X   4      15.578  55.385  42.4550  0.00  0.00     0.000 OA
ENDBRANCH 59 66
BRANCH 62 70
ATOM     70   C  A00 X   4      15.684  59.247  36.0710  0.00  0.00     0.000 C
ATOM     71   O  A00 X   4      15.785  62.824  35.5200  0.00  0.00     0.000 OA
ATOM     72   O  A00 X   4      14.178  61.219  34.8960  0.00  0.00     0.000 OA
ATOM     73   O  A00 X   4      16.064  60.619  36.2630  0.00  0.00     0.000 O
ATOM     74   O  A00 X   4      14.302  61.960  37.2140  0.00  0.00     0.000 OA
ATOM     75   S  A00 X   4      14.986  61.724  35.9840  0.00  0.00     0.000 S
ENDBRANCH 62 70
ENDBRANCH 57 61
ENDBRANCH 41 57
ENDBRANCH 40 44
ENDBRANCH 20 40
ENDBRANCH 19 23
ENDBRANCH 1 19
TORSDOF 14
ENDMDL
MODEL 97
REMARK VINA RESULT:      -0.7     29.712     34.583
ROOT
ATOM      1  C1  A00 X   1      18.287  48.664  29.9470  0.00  0.00     0.000 C
ATOM      2  C2  A00 X   1      17.850  49.637  31.0750  0.00  0.00     0.000 C
ATOM      3  C3  A00 X   1      17.221  48.976  32.3460  0.00  0.00     0.000 C
ATOM      4  C4  A00 X   1      16.776  47.500  32.1810  0.00  0.00     0.000 C
ATOM      5  C5  A00 X   1      16.525  47.133  30.7190  0.00  0.00     0.000 C
ATOM      6  O5  A00 X   1      17.806  47.303  30.0720  0.00  0.00     0.000 O
ATOM      7   O  A00 X   1      16.057  49.712  32.7140  0.00  0.00     0.000 O
ATOM      9  HD  A00 X   1      15.868  48.872  32.8080  0.00  0.00     0.000 HD
ATOM      9   O  A00 X   1      17.728  46.601  32.7480  0.00  0.00     0.000 O
ATOM     11  HD  A00 X   1      17.540  45.761  32.8410  0.00  0.00     0.000 HD
ENDROOT
BRANCH 2 11
ATOM     11   O  A00 X   1      19.007  50.401  31.4670  0.00  0.00     0.000 O
ATOM     12   O  A00 X   1      18.984  51.847  33.3840  0.00  0.00     0.000 OA
ATOM     13   O  A00 X   1      17.531  52.347  31.4990  0.00  0.00     0.000 OA
ATOM     14   O  A00 X   1      19.891  52.555  31.2900  0.00  0.00     0.000 OA
ATOM     15   S  A00 X   1      18.811  51.878  31.9540  0.00  0.00     0.000 S
ENDBRANCH 2 11
BRANCH 5 16
ATOM     16   C  A00 X   1      15.389  47.907  30.0420  0.00  0.00     0.000 C
ATOM     17   O  A00 X   1      14.570  48.467  30.7410  0.00  0.00     0.000 OA
ATOM     18   O  A00 X   1      15.284  47.986  28.8340  0.00  0.00     0.000 OA
ENDBRANCH 5 16
BRANCH 1 19
ATOM     19  O4  A00 X   2      18.036  49.193  28.6220  0.00  0.00     0.000 O
BRANCH 19 23
ATOM     20  C1  A00 X   2      20.077  48.613  24.8990  0.00  0.00     0.000 C
ATOM     21  C2  A00 X   2      19.184  47.457  25.4120  0.00  0.00     0.000 C
ATOM     22  C3  A00 X   2      18.203  47.959  26.4920  0.00  0.00     0.000 C
ATOM     23  C4  A00 X   2      18.967  48.677  27.6280  0.00  0.00     0.000 C
ATOM     24  C5  A00 X   2      19.834  49.794  26.9850  0.00  0.00     0.000 C
ATOM     25  O5  A00 X   2      20.759  49.185  26.0460  0.00  0.00     0.000 O
ATOM     26   O  A00 X   2      17.353  46.868  26.8850  0.00  0.00     0.000 O
ATOM     28  HD  A00 X   2      18.019  46.329  27.0150  0.00  0.00     0.000 HD
BRANCH 21 30
ATOM     28   N  A00 X   2      18.074  46.546  25.1140  0.00  0.00     0.000 N
ATOM     30  HD  A00 X   2      18.758  46.264  24.6630  0.00  0.00     0.000 HD
ATOM     30   O  A00 X   2      18.961  44.613  24.1460  0.00  0.00     0.000 OA
ATOM     31   S  A00 X   2      18.125  45.700  23.7790  0.00  0.00     0.000 S
ATOM     32   O  A00 X   2      16.756  45.358  23.5440  0.00  0.00     0.000 OA
ATOM     33   O  A00 X   2      18.605  46.568  22.7460  0.00  0.00     0.000 OA
ENDBRANCH 21 30
BRANCH 24 34
ATOM     34   C  A00 X   2      20.521  50.811  27.9260  0.00  0.00     0.000 C
ATOM     35   O  A00 X   2      23.099  49.936  30.3440  0.00  0.00     0.000 OA
ATOM     36   O  A00 X   2      21.222  50.144  28.9950  0.00  0.00     0.000 O
ATOM     37   O  A00 X   2      23.241  49.462  28.0310  0.00  0.00     0.000 OA
ATOM     38   S  A00 X   2      22.776  50.378  29.0270  0.00  0.00     0.000 S
ATOM     39   O  A00 X   2      22.980  51.776  28.7900  0.00  0.00     0.000 OA
ENDBRANCH 24 34
BRANCH 20 40
ATOM     40  O4  A00 X   3      19.176  49.582  24.3430  0.00  0.00     0.000 O
BRANCH 40 44
ATOM     41  C1  A00 X   3      19.686  53.164  24.1730  0.00  0.00     0.000 C
ATOM     42  C2  A00 X   3      18.326  52.459  23.9810  0.00  0.00     0.000 C
ATOM     43  C3  A00 X   3      18.437  51.315  22.9400  0.00  0.00     0.000 C
ATOM     44  C4  A00 X   3      19.584  50.343  23.1860  0.00  0.00     0.000 C
ATOM     45  C5  A00 X   3      20.915  51.126  23.3640  0.00  0.00     0.000 C
ATOM     46  O5  A00 X   3      20.762  52.201  24.3460  0.00  0.00     0.000 O
ATOM     47   O  A00 X   3      17.219  50.647  22.6170  0.00  0.00     0.000 O
ATOM     49  HD  A00 X   3      17.732  49.950  22.6150  0.00  0.00     0.000 HD
BRANCH 42 49
ATOM     49   O  A00 X   3      17.922  51.959  25.2740  0.00  0.00     0.000 O
ATOM     50   O  A00 X   3      16.066  50.730  26.1540  0.00  0.00     0.000 OA
ATOM     51   O  A00 X   3      15.657  52.437  24.5700  0.00  0.00     0.000 OA
ATOM     52   O  A00 X   3      16.428  53.053  26.7170  0.00  0.00     0.000 OA
ATOM     53   S  A00 X   3      16.433  52.041  25.7190  0.00  0.00     0.000 S
ENDBRANCH 42 49
BRANCH 45 54
ATOM     54   C  A00 X   3      21.472  51.611  22.0200  0.00  0.00     0.000 C
ATOM     55   O  A00 X   3      22.590  52.079  21.9470  0.00  0.00     0.000 OA
ATOM     56   O  A00 X   3      20.802  51.537  21.0020  0.00  0.00     0.000 OA
ENDBRANCH 45 54
BRANCH 41 57
ATOM     57  O4  A00 X   4      19.933  54.140  23.1360  0.00  0.00     0.000 O
BRANCH 57 61
ATOM     58  C1  A00 X   4      22.455  57.644  23.1330  0.00  0.00     0.000 C
ATOM     59  C2  A00 X   4      22.865  56.435  22.2560  0.00  0.00     0.000 C
ATOM     60  C3  A00 X   4      21.732  55.408  22.0560  0.00  0.00     0.000 C
ATOM     61  C4  A00 X   4      21.045  55.044  23.3900  0.00  0.00     0.000 C
ATOM     62  C5  A00 X   4      20.528  56.375  23.9910  0.00  0.00     0.000 C
ATOM     63  O5  A00 X   4      21.656  57.243  24.2700  0.00  0.00     0.000 O
BRANCH 59 66
ATOM     64   N  A00 X   4      23.982  55.536  22.5990  0.00  0.00     0.000 N
ATOM     66  HD  A00 X   4      24.104  55.351  23.4360  0.00  0.00     0.000 HD
ATOM     66   O  A00 X   4      25.476  57.320  21.9800  0.00  0.00     0.000 OA
ATOM     67   S  A00 X   4      25.439  55.893  22.0440  0.00  0.00     0.000 S
ATOM     68   O  A00 X   4      26.256  55.299  23.0610  0.00  0.00     0.000 OA
ATOM     69   O  A00 X   4      25.422  55.167  20.8050  0.00  0.00     0.000 OA
ENDBRANCH 59 66
BRANCH 62 70
ATOM     70   C  A00 X   4      19.706  56.203  25.2910  0.00  0.00     0.000 C
ATOM     71   O  A00 X   4      20.900  55.726  28.6750  0.00  0.00     0.000 OA
ATOM     72   O  A00 X   4      19.275  54.551  27.4410  0.00  0.00     0.000 OA
ATOM     73   O  A00 X   4      20.585  56.292  26.4230  0.00  0.00     0.000 O
ATOM     74   O  A00 X   4      21.638  54.194  26.9660  0.00  0.00     0.000 OA
ATOM     75   S  A00 X   4      20.619  55.083  27.4220  0.00  0.00     0.000 S
ENDBRANCH 62 70
ENDBRANCH 57 61
ENDBRANCH 41 57
ENDBRANCH 40 44
ENDBRANCH 20 40
ENDBRANCH 19 23
ENDBRANCH 1 19
TORSDOF 14
ENDMDL
MODEL 98
REMARK VINA RESULT:      -0.5     30.678     36.276
ROOT
ATOM      1  C1  A00 X   1      17.739  49.684  30.5760  0.00  0.00     0.000 C
ATOM      2  C2  A00 X   1      17.761  48.631  31.7160  0.00  0.00     0.000 C
ATOM      3  C3  A00 X   1      17.841  47.135  31.2690  0.00  0.00     0.000 C
ATOM      4  C4  A00 X   1      17.521  46.865  29.7760  0.00  0.00     0.000 C
ATOM      5  C5  A00 X   1      16.677  47.979  29.1560  0.00  0.00     0.000 C
ATOM      6  O5  A00 X   1      17.506  49.160  29.2450  0.00  0.00     0.000 O
ATOM      7   O  A00 X   1      16.900  46.379  32.0270  0.00  0.00     0.000 O
ATOM      9  HD  A00 X   1      16.860  46.092  31.2110  0.00  0.00     0.000 HD
ATOM      9   O  A00 X   1      18.712  46.681  29.0110  0.00  0.00     0.000 O
ATOM     11  HD  A00 X   1      18.672  46.394  28.1950  0.00  0.00     0.000 HD
ENDROOT
BRANCH 2 11
ATOM     11   O  A00 X   1      18.887  48.928  32.5650  0.00  0.00     0.000 O
ATOM     12   O  A00 X   1      18.982  48.196  34.8500  0.00  0.00     0.000 OA
ATOM     13   O  A00 X   1      17.261  49.779  34.1780  0.00  0.00     0.000 OA
ATOM     14   O  A00 X   1      19.548  50.433  34.2240  0.00  0.00     0.000 OA
ATOM     15   S  A00 X   1      18.625  49.343  34.0540  0.00  0.00     0.000 S
ENDBRANCH 2 11
BRANCH 5 16
ATOM     16   C  A00 X   1      15.287  48.159  29.7740  0.00  0.00     0.000 C
ATOM     17   O  A00 X   1      14.818  47.248  30.4260  0.00  0.00     0.000 OA
ATOM     18   O  A00 X   1      14.641  49.179  29.6420  0.00  0.00     0.000 OA
ENDBRANCH 5 16
BRANCH 1 19
ATOM     19  O4  A00 X   2      16.866  50.804  30.8630  0.00  0.00     0.000 O
BRANCH 19 23
ATOM     20  C1  A00 X   2      16.959  54.884  29.5560  0.00  0.00     0.000 C
ATOM     21  C2  A00 X   2      16.476  53.820  28.5410  0.00  0.00     0.000 C
ATOM     22  C3  A00 X   2      16.088  52.511  29.2600  0.00  0.00     0.000 C
ATOM     23  C4  A00 X   2      17.252  52.011  30.1460  0.00  0.00     0.000 C
ATOM     24  C5  A00 X   2      17.653  53.169  31.1000  0.00  0.00     0.000 C
ATOM     25  O5  A00 X   2      18.065  54.310  30.3030  0.00  0.00     0.000 O
ATOM     26   O  A00 X   2      15.583  51.582  28.2860  0.00  0.00     0.000 O
ATOM     28  HD  A00 X   2      16.262  51.689  27.7590  0.00  0.00     0.000 HD
BRANCH 21 30
ATOM     28   N  A00 X   2      17.102  54.608  27.4750  0.00  0.00     0.000 N
ATOM     30  HD  A00 X   2      16.564  54.049  27.0900  0.00  0.00     0.000 HD
ATOM     30   O  A00 X   2      15.849  54.315  25.5240  0.00  0.00     0.000 OA
ATOM     31   S  A00 X   2      17.146  54.007  26.0140  0.00  0.00     0.000 S
ATOM     32   O  A00 X   2      18.214  54.721  25.3860  0.00  0.00     0.000 OA
ATOM     33   O  A00 X   2      17.481  52.619  26.1370  0.00  0.00     0.000 OA
ENDBRANCH 21 30
BRANCH 24 34
ATOM     34   C  A00 X   2      18.642  52.855  32.2480  0.00  0.00     0.000 C
ATOM     35   O  A00 X   2      21.106  55.212  33.5230  0.00  0.00     0.000 OA
ATOM     36   O  A00 X   2      19.710  53.821  32.2960  0.00  0.00     0.000 O
ATOM     37   O  A00 X   2      18.785  55.656  33.4120  0.00  0.00     0.000 OA
ATOM     38   S  A00 X   2      19.794  54.663  33.6220  0.00  0.00     0.000 S
ATOM     39   O  A00 X   2      19.602  53.740  34.7000  0.00  0.00     0.000 OA
ENDBRANCH 24 34
BRANCH 20 40
ATOM     40  O4  A00 X   3      15.850  55.110  30.4380  0.00  0.00     0.000 O
BRANCH 40 44
ATOM     41  C1  A00 X   3      13.210  56.135  32.6970  0.00  0.00     0.000 C
ATOM     42  C2  A00 X   3      13.032  55.908  31.1800  0.00  0.00     0.000 C
ATOM     43  C3  A00 X   3      14.105  56.682  30.3730  0.00  0.00     0.000 C
ATOM     44  C4  A00 X   3      15.536  56.459  30.8460  0.00  0.00     0.000 C
ATOM     45  C5  A00 X   3      15.636  56.711  32.3770  0.00  0.00     0.000 C
ATOM     46  O5  A00 X   3      14.598  55.970  33.0970  0.00  0.00     0.000 O
ATOM     47   O  A00 X   3      13.986  56.616  28.9530  0.00  0.00     0.000 O
ATOM     49  HD  A00 X   3      14.849  56.567  28.9950  0.00  0.00     0.000 HD
BRANCH 42 49
ATOM     49   O  A00 X   3      13.124  54.485  30.9510  0.00  0.00     0.000 O
ATOM     50   O  A00 X   3      12.909  53.014  29.0740  0.00  0.00     0.000 OA
ATOM     51   O  A00 X   3      11.379  54.801  29.3040  0.00  0.00     0.000 OA
ATOM     52   O  A00 X   3      11.283  53.029  30.8640  0.00  0.00     0.000 OA
ATOM     53   S  A00 X   3      12.123  53.776  29.9930  0.00  0.00     0.000 S
ENDBRANCH 42 49
BRANCH 45 54
ATOM     54   C  A00 X   3      15.646  58.208  32.7060  0.00  0.00     0.000 C
ATOM     55   O  A00 X   3      15.897  58.593  33.8300  0.00  0.00     0.000 OA
ATOM     56   O  A00 X   3      15.401  59.040  31.8460  0.00  0.00     0.000 OA
ENDBRANCH 45 54
BRANCH 41 57
ATOM     57  O4  A00 X   4      12.621  57.384  33.1220  0.00  0.00     0.000 O
BRANCH 57 61
ATOM     58  C1  A00 X   4      10.582  58.613  36.7240  0.00  0.00     0.000 C
ATOM     59  C2  A00 X   4      12.098  58.303  36.7990  0.00  0.00     0.000 C
ATOM     60  C3  A00 X   4      12.780  58.230  35.4180  0.00  0.00     0.000 C
ATOM     61  C4  A00 X   4      11.982  57.352  34.4300  0.00  0.00     0.000 C
ATOM     62  C5  A00 X   4      10.562  57.967  34.3490  0.00  0.00     0.000 C
ATOM     63  O5  A00 X   4       9.933  57.890  35.6540  0.00  0.00     0.000 O
BRANCH 59 66
ATOM     64   N  A00 X   4      13.098  57.450  37.4660  0.00  0.00     0.000 N
ATOM     66  HD  A00 X   4      13.028  56.594  37.3600  0.00  0.00     0.000 HD
ATOM     66   O  A00 X   4      12.071  58.053  39.5590  0.00  0.00     0.000 OA
ATOM     67   S  A00 X   4      13.338  57.648  39.0350  0.00  0.00     0.000 S
ATOM     68   O  A00 X   4      13.764  56.329  39.4000  0.00  0.00     0.000 OA
ATOM     69   O  A00 X   4      14.393  58.621  39.0090  0.00  0.00     0.000 OA
ENDBRANCH 59 66
BRANCH 62 70
ATOM     70   C  A00 X   4       9.636  57.284  33.3150  0.00  0.00     0.000 C
ATOM     71   O  A00 X   4       6.153  56.361  33.6620  0.00  0.00     0.000 OA
ATOM     72   O  A00 X   4       7.999  55.120  32.8910  0.00  0.00     0.000 OA
ATOM     73   O  A00 X   4       8.280  57.335  33.7860  0.00  0.00     0.000 O
ATOM     74   O  A00 X   4       7.733  55.525  35.2800  0.00  0.00     0.000 OA
ATOM     75   S  A00 X   4       7.508  55.979  33.9450  0.00  0.00     0.000 S
ENDBRANCH 62 70
ENDBRANCH 57 61
ENDBRANCH 41 57
ENDBRANCH 40 44
ENDBRANCH 20 40
ENDBRANCH 19 23
ENDBRANCH 1 19
TORSDOF 14
ENDMDL
MODEL 99
REMARK VINA RESULT:       0.1     26.987     32.183
ROOT
ATOM      1  C1  A00 X   1      18.606  50.859  33.8090  0.00  0.00     0.000 C
ATOM      2  C2  A00 X   1      17.516  50.948  32.7090  0.00  0.00     0.000 C
ATOM      3  C3  A00 X   1      16.322  49.947  32.8410  0.00  0.00     0.000 C
ATOM      4  C4  A00 X   1      16.547  48.763  33.8170  0.00  0.00     0.000 C
ATOM      5  C5  A00 X   1      18.031  48.480  34.0480  0.00  0.00     0.000 C
ATOM      6  O5  A00 X   1      18.545  49.685  34.6580  0.00  0.00     0.000 O
ATOM      7   O  A00 X   1      16.062  49.372  31.5620  0.00  0.00     0.000 O
ATOM      9  HD  A00 X   1      15.998  48.736  32.1450  0.00  0.00     0.000 HD
ATOM      9   O  A00 X   1      15.899  48.989  35.0690  0.00  0.00     0.000 O
ATOM     11  HD  A00 X   1      15.834  48.352  35.6520  0.00  0.00     0.000 HD
ENDROOT
BRANCH 2 11
ATOM     11   O  A00 X   1      17.002  52.294  32.7090  0.00  0.00     0.000 O
ATOM     12   O  A00 X   1      15.074  52.918  31.4200  0.00  0.00     0.000 OA
ATOM     13   O  A00 X   1      17.083  52.172  30.2710  0.00  0.00     0.000 OA
ATOM     14   O  A00 X   1      17.060  54.248  31.4320  0.00  0.00     0.000 OA
ATOM     15   S  A00 X   1      16.513  52.920  31.3570  0.00  0.00     0.000 S
ENDBRANCH 2 11
BRANCH 5 16
ATOM     16   C  A00 X   1      18.809  48.043  32.8020  0.00  0.00     0.000 C
ATOM     17   O  A00 X   1      18.187  47.646  31.8390  0.00  0.00     0.000 OA
ATOM     18   O  A00 X   1      20.021  48.088  32.7420  0.00  0.00     0.000 OA
ENDBRANCH 5 16
BRANCH 1 19
ATOM     19  O4  A00 X   2      19.944  51.068  33.2930  0.00  0.00     0.000 O
BRANCH 19 23
ATOM     20  C1  A00 X   2      21.078  53.669  36.5040  0.00  0.00     0.000 C
ATOM     21  C2  A00 X   2      20.746  54.321  35.1400  0.00  0.00     0.000 C
ATOM     22  C3  A00 X   2      19.957  53.345  34.2420  0.00  0.00     0.000 C
ATOM     23  C4  A00 X   2      20.714  52.005  34.0990  0.00  0.00     0.000 C
ATOM     24  C5  A00 X   2      21.001  51.468  35.5280  0.00  0.00     0.000 C
ATOM     25  O5  A00 X   2      21.807  52.442  36.2400  0.00  0.00     0.000 O
ATOM     26   O  A00 X   2      19.615  54.018  33.0180  0.00  0.00     0.000 O
ATOM     28  HD  A00 X   2      20.426  54.290  32.8820  0.00  0.00     0.000 HD
BRANCH 21 30
ATOM     28   N  A00 X   2      21.768  55.332  35.4260  0.00  0.00     0.000 N
ATOM     30  HD  A00 X   2      21.291  55.637  34.7710  0.00  0.00     0.000 HD
ATOM     30   O  A00 X   2      21.118  57.332  34.4080  0.00  0.00     0.000 OA
ATOM     31   S  A00 X   2      22.152  56.365  34.2930  0.00  0.00     0.000 S
ATOM     32   O  A00 X   2      23.451  56.823  34.6770  0.00  0.00     0.000 OA
ATOM     33   O  A00 X   2      22.225  55.636  33.0620  0.00  0.00     0.000 OA
ENDBRANCH 21 30
BRANCH 24 34
ATOM     34   C  A00 X   2      21.546  50.026  35.6650  0.00  0.00     0.000 C
ATOM     35   O  A00 X   2      24.470  48.773  33.8940  0.00  0.00     0.000 OA
ATOM     36   O  A00 X   2      22.470  49.714  34.6040  0.00  0.00     0.000 O
ATOM     37   O  A00 X   2      24.486  50.688  35.2820  0.00  0.00     0.000 OA
ATOM     38   S  A00 X   2      23.936  49.384  35.0670  0.00  0.00     0.000 S
ATOM     39   O  A00 X   2      23.818  48.519  36.2020  0.00  0.00     0.000 OA
ENDBRANCH 24 34
BRANCH 20 40
ATOM     40  O4  A00 X   3      19.811  53.356  37.1020  0.00  0.00     0.000 O
BRANCH 40 44
ATOM     41  C1  A00 X   3      16.768  53.397  39.0670  0.00  0.00     0.000 C
ATOM     42  C2  A00 X   3      17.522  54.655  38.5850  0.00  0.00     0.000 C
ATOM     43  C3  A00 X   3      19.026  54.575  38.9500  0.00  0.00     0.000 C
ATOM     44  C4  A00 X   3      19.709  53.277  38.5400  0.00  0.00     0.000 C
ATOM     45  C5  A00 X   3      18.897  52.059  39.0640  0.00  0.00     0.000 C
ATOM     46  O5  A00 X   3      17.482  52.182  38.7060  0.00  0.00     0.000 O
ATOM     47   O  A00 X   3      19.807  55.725  38.6300  0.00  0.00     0.000 O
ATOM     49  HD  A00 X   3      20.395  55.127  38.4160  0.00  0.00     0.000 HD
BRANCH 42 49
ATOM     49   O  A00 X   3      17.329  54.743  37.1560  0.00  0.00     0.000 O
ATOM     50   O  A00 X   3      17.952  56.261  35.4130  0.00  0.00     0.000 OA
ATOM     51   O  A00 X   3      17.215  57.138  37.4820  0.00  0.00     0.000 OA
ATOM     52   O  A00 X   3      15.651  56.012  36.1140  0.00  0.00     0.000 OA
ATOM     53   S  A00 X   3      17.019  56.114  36.4870  0.00  0.00     0.000 S
ENDBRANCH 42 49
BRANCH 45 54
ATOM     54   C  A00 X   3      19.122  51.830  40.5640  0.00  0.00     0.000 C
ATOM     55   O  A00 X   3      18.489  50.985  41.1620  0.00  0.00     0.000 OA
ATOM     56   O  A00 X   3      19.940  52.494  41.1820  0.00  0.00     0.000 OA
ENDBRANCH 45 54
BRANCH 41 57
ATOM     57  O4  A00 X   4      16.426  53.483  40.4680  0.00  0.00     0.000 O
BRANCH 57 61
ATOM     58  C1  A00 X   4      14.453  56.547  42.7830  0.00  0.00     0.000 C
ATOM     59  C2  A00 X   4      13.771  56.042  41.4880  0.00  0.00     0.000 C
ATOM     60  C3  A00 X   4      14.369  54.725  40.9510  0.00  0.00     0.000 C
ATOM     61  C4  A00 X   4      15.911  54.774  40.9010  0.00  0.00     0.000 C
ATOM     62  C5  A00 X   4      16.384  55.085  42.3420  0.00  0.00     0.000 C
ATOM     63  O5  A00 X   4      15.890  56.391  42.7360  0.00  0.00     0.000 O
BRANCH 59 66
ATOM     64   N  A00 X   4      12.357  55.853  41.1150  0.00  0.00     0.000 N
ATOM     66  HD  A00 X   4      12.186  55.629  40.2970  0.00  0.00     0.000 HD
ATOM     66   O  A00 X   4      12.086  58.236  41.3320  0.00  0.00     0.000 OA
ATOM     67   S  A00 X   4      11.325  57.031  41.4400  0.00  0.00     0.000 S
ATOM     68   O  A00 X   4      10.356  56.818  40.4050  0.00  0.00     0.000 OA
ATOM     69   O  A00 X   4      10.887  56.631  42.7470  0.00  0.00     0.000 OA
ENDBRANCH 59 66
BRANCH 62 70
ATOM     70   C  A00 X   4      17.921  55.067  42.5210  0.00  0.00     0.000 C
ATOM     71   O  A00 X   4      19.861  53.794  45.3000  0.00  0.00     0.000 OA
ATOM     72   O  A00 X   4      19.973  55.856  44.1670  0.00  0.00     0.000 OA
ATOM     73   O  A00 X   4      18.258  54.249  43.6530  0.00  0.00     0.000 O
ATOM     74   O  A00 X   4      18.159  55.445  45.7420  0.00  0.00     0.000 OA
ATOM     75   S  A00 X   4      19.093  54.904  44.8080  0.00  0.00     0.000 S
ENDBRANCH 62 70
ENDBRANCH 57 61
ENDBRANCH 41 57
ENDBRANCH 40 44
ENDBRANCH 20 40
ENDBRANCH 19 23
ENDBRANCH 1 19
TORSDOF 14
ENDMDL
MODEL 100
REMARK VINA RESULT:       0.4     29.195     33.284
ROOT
ATOM      1  C1  A00 X   1      17.536  49.591  30.6210  0.00  0.00     0.000 C
ATOM      2  C2  A00 X   1      18.349  50.737  31.2800  0.00  0.00     0.000 C
ATOM      3  C3  A00 X   1      17.766  51.316  32.6100  0.00  0.00     0.000 C
ATOM      4  C4  A00 X   1      16.291  50.946  32.9110  0.00  0.00     0.000 C
ATOM      5  C5  A00 X   1      15.523  50.563  31.6460  0.00  0.00     0.000 C
ATOM      6  O5  A00 X   1      16.201  49.388  31.1470  0.00  0.00     0.000 O
ATOM      7   O  A00 X   1      17.823  52.740  32.5530  0.00  0.00     0.000 O
ATOM      9  HD  A00 X   1      17.061  52.529  32.9060  0.00  0.00     0.000 HD
ATOM      9   O  A00 X   1      16.202  49.891  33.8680  0.00  0.00     0.000 O
ATOM     11  HD  A00 X   1      15.439  49.680  34.2210  0.00  0.00     0.000 HD
ENDROOT
BRANCH 2 11
ATOM     11   O  A00 X   1      19.681  50.244  31.5260  0.00  0.00     0.000 O
ATOM     12   O  A00 X   1      21.499  51.715  32.0690  0.00  0.00     0.000 OA
ATOM     13   O  A00 X   1      20.437  51.889  29.8870  0.00  0.00     0.000 OA
ATOM     14   O  A00 X   1      21.733  49.975  30.4470  0.00  0.00     0.000 OA
ATOM     15   S  A00 X   1      20.902  51.037  30.9460  0.00  0.00     0.000 S
ENDBRANCH 2 11
BRANCH 5 16
ATOM     16   C  A00 X   1      15.387  51.680  30.6060  0.00  0.00     0.000 C
ATOM     17   O  A00 X   1      15.595  52.824  30.9530  0.00  0.00     0.000 OA
ATOM     18   O  A00 X   1      15.088  51.461  29.4490  0.00  0.00     0.000 OA
ENDBRANCH 5 16
BRANCH 1 19
ATOM     19  O4  A00 X   2      17.527  49.669  29.1740  0.00  0.00     0.000 O
BRANCH 19 23
ATOM     20  C1  A00 X   2      16.985  46.650  26.1810  0.00  0.00     0.000 C
ATOM     21  C2  A00 X   2      15.718  47.195  26.8840  0.00  0.00     0.000 C
ATOM     22  C3  A00 X   2      16.015  48.535  27.5890  0.00  0.00     0.000 C
ATOM     23  C4  A00 X   2      17.218  48.391  28.5480  0.00  0.00     0.000 C
ATOM     24  C5  A00 X   2      18.410  47.822  27.7310  0.00  0.00     0.000 C
ATOM     25  O5  A00 X   2      18.029  46.533  27.1840  0.00  0.00     0.000 O
ATOM     26   O  A00 X   2      14.795  49.032  28.1660  0.00  0.00     0.000 O
ATOM     28  HD  A00 X   2      14.615  48.282  28.5580  0.00  0.00     0.000 HD
BRANCH 21 30
ATOM     28   N  A00 X   2      15.136  45.858  26.7330  0.00  0.00     0.000 N
ATOM     30  HD  A00 X   2      14.488  46.391  26.9470  0.00  0.00     0.000 HD
ATOM     30   O  A00 X   2      12.819  46.090  26.5500  0.00  0.00     0.000 OA
ATOM     31   S  A00 X   2      13.765  45.542  27.4550  0.00  0.00     0.000 S
ATOM     32   O  A00 X   2      13.754  44.115  27.5500  0.00  0.00     0.000 OA
ATOM     33   O  A00 X   2      13.830  46.127  28.7610  0.00  0.00     0.000 OA
ENDBRANCH 21 30
BRANCH 24 34
ATOM     34   C  A00 X   2      19.804  47.797  28.4030  0.00  0.00     0.000 C
ATOM     35   O  A00 X   2      20.477  46.295  31.6500  0.00  0.00     0.000 OA
ATOM     36   O  A00 X   2      19.703  47.467  29.8030  0.00  0.00     0.000 O
ATOM     37   O  A00 X   2      19.493  45.138  29.8380  0.00  0.00     0.000 OA
ATOM     38   S  A00 X   2      20.433  46.142  30.2330  0.00  0.00     0.000 S
ATOM     39   O  A00 X   2      21.707  46.151  29.5810  0.00  0.00     0.000 OA
ENDBRANCH 24 34
BRANCH 20 40
ATOM     40  O4  A00 X   3      17.355  47.648  25.2190  0.00  0.00     0.000 O
BRANCH 40 44
ATOM     41  C1  A00 X   3      19.209  46.702  22.2540  0.00  0.00     0.000 C
ATOM     42  C2  A00 X   3      19.137  48.134  22.8270  0.00  0.00     0.000 C
ATOM     43  C3  A00 X   3      17.667  48.559  23.0760  0.00  0.00     0.000 C
ATOM     44  C4  A00 X   3      16.843  47.554  23.8720  0.00  0.00     0.000 C
ATOM     45  C5  A00 X   3      16.962  46.142  23.2320  0.00  0.00     0.000 C
ATOM     46  O5  A00 X   3      18.365  45.787  23.0060  0.00  0.00     0.000 O
ATOM     47   O  A00 X   3      17.473  49.898  23.5240  0.00  0.00     0.000 O
ATOM     49  HD  A00 X   3      16.867  49.526  24.0180  0.00  0.00     0.000 HD
BRANCH 42 49
ATOM     49   O  A00 X   3      19.902  48.138  24.0520  0.00  0.00     0.000 O
ATOM     50   O  A00 X   3      20.536  49.762  25.6930  0.00  0.00     0.000 OA
ATOM     51   O  A00 X   3      20.615  50.359  23.4070  0.00  0.00     0.000 OA
ATOM     52   O  A00 X   3      22.161  48.761  24.2090  0.00  0.00     0.000 OA
ATOM     53   S  A00 X   3      20.863  49.319  24.3740  0.00  0.00     0.000 S
ENDBRANCH 42 49
BRANCH 45 54
ATOM     54   C  A00 X   3      16.097  46.015  21.9730  0.00  0.00     0.000 C
ATOM     55   O  A00 X   3      16.195  45.044  21.2500  0.00  0.00     0.000 OA
ATOM     56   O  A00 X   3      15.297  46.888  21.6730  0.00  0.00     0.000 OA
ENDBRANCH 45 54
BRANCH 41 57
ATOM     57  O4  A00 X   4      18.969  46.684  20.8290  0.00  0.00     0.000 O
BRANCH 57 61
ATOM     58  C1  A00 X   4      21.121  44.653  17.6840  0.00  0.00     0.000 C
ATOM     59  C2  A00 X   4      19.667  44.214  17.9920  0.00  0.00     0.000 C
ATOM     60  C3  A00 X   4      18.891  45.224  18.8610  0.00  0.00     0.000 C
ATOM     61  C4  A00 X   4      19.711  45.672  20.0900  0.00  0.00     0.000 C
ATOM     62  C5  A00 X   4      21.030  46.270  19.5390  0.00  0.00     0.000 C
ATOM     63  O5  A00 X   4      21.767  45.234  18.8400  0.00  0.00     0.000 O
BRANCH 59 66
ATOM     64   N  A00 X   4      18.725  43.114  18.2670  0.00  0.00     0.000 N
ATOM     66  HD  A00 X   4      18.777  42.727  19.0400  0.00  0.00     0.000 HD
ATOM     66   O  A00 X   4      19.949  41.798  16.6640  0.00  0.00     0.000 OA
ATOM     67   S  A00 X   4      18.635  41.913  17.2140  0.00  0.00     0.000 S
ATOM     68   O  A00 X   4      18.231  40.842  18.0780  0.00  0.00     0.000 OA
ATOM     69   O  A00 X   4      17.591  42.404  16.3590  0.00  0.00     0.000 OA
ENDBRANCH 59 66
BRANCH 62 70
ATOM     70   C  A00 X   4      21.948  46.881  20.6240  0.00  0.00     0.000 C
ATOM     71   O  A00 X   4      25.460  46.246  21.2320  0.00  0.00     0.000 OA
ATOM     72   O  A00 X   4      23.627  46.270  22.7100  0.00  0.00     0.000 OA
ATOM     73   O  A00 X   4      23.313  46.534  20.3400  0.00  0.00     0.000 O
ATOM     74   O  A00 X   4      23.939  44.376  21.2080  0.00  0.00     0.000 OA
ATOM     75   S  A00 X   4      24.122  45.772  21.4460  0.00  0.00     0.000 S
ENDBRANCH 62 70
ENDBRANCH 57 61
ENDBRANCH 41 57
ENDBRANCH 40 44
ENDBRANCH 20 40
ENDBRANCH 19 23
ENDBRANCH 1 19
TORSDOF 14
ENDMDL
