MODEL 1
REMARK VINA RESULT:     -10.5      0.000      0.000
ROOT
ATOM      1  C1  BGC C   1      18.642  -0.247 -13.4510  0.00  0.00     0.000 C
ATOM      2  C2  BGC C   1      17.396   0.635 -13.3760  0.00  0.00     0.000 C
ATOM      3  C3  BGC C   1      17.798   2.104 -13.3460  0.00  0.00     0.000 C
ATOM      4  C4  BGC C   1      18.854   2.390 -12.2910  0.00  0.00     0.000 C
ATOM      5  C5  BGC C   1      19.969   1.350 -12.3650  0.00  0.00     0.000 C
ATOM      6  O5  BGC C   1      19.510   0.037 -12.4220  0.00  0.00     0.000 O
ATOM      7   O  BGC C   1      16.617   0.364 -14.5170  0.00  0.00     0.000 O
ATOM      9  HD  BGC C   1      16.345   0.741 -13.7870  0.00  0.00     0.000 HD
ATOM      9   O  BGC C   1      16.613   2.886 -13.1430  0.00  0.00     0.000 O
ATOM     11  HD  BGC C   1      16.340   3.262 -12.4130  0.00  0.00     0.000 HD
ATOM     11   O  BGC C   1      19.354   3.697 -12.5520  0.00  0.00     0.000 O
ATOM     13  HD  BGC C   1      19.082   4.073 -11.8220  0.00  0.00     0.000 HD
ATOM     13   O  BGC C   1      20.149   1.113  -9.9050  0.00  0.00     0.000 O
ATOM     15  HD  BGC C   1      19.877   1.490  -9.1750  0.00  0.00     0.000 HD
ATOM     15   C  BGC C   1      20.854   1.507 -11.1150  0.00  0.00     0.000 C
ENDROOT
BRANCH 1 16
ATOM     16  O4  BGC C   2      18.251  -1.592 -13.3010  0.00  0.00     0.000 O
BRANCH 16 20
ATOM     17  C1  BGC C   2      19.447  -5.275 -14.5960  0.00  0.00     0.000 C
ATOM     18  C2  BGC C   2      20.278  -4.661 -13.4800  0.00  0.00     0.000 C
ATOM     19  C3  BGC C   2      19.543  -3.491 -12.8410  0.00  0.00     0.000 C
ATOM     20  C4  BGC C   2      19.100  -2.540 -13.9020  0.00  0.00     0.000 C
ATOM     21  C5  BGC C   2      18.343  -3.268 -15.0090  0.00  0.00     0.000 C
ATOM     22  O5  BGC C   2      19.114  -4.302 -15.5440  0.00  0.00     0.000 O
ATOM     23   O  BGC C   2      20.559  -5.672 -12.5010  0.00  0.00     0.000 O
ATOM     25  HD  BGC C   2      20.492  -5.340 -11.7040  0.00  0.00     0.000 HD
ATOM     25   O  BGC C   2      20.417  -2.829 -11.9350  0.00  0.00     0.000 O
ATOM     27  HD  BGC C   2      20.350  -2.497 -11.1380  0.00  0.00     0.000 HD
ATOM     27   C  BGC C   2      17.861  -2.365 -16.1640  0.00  0.00     0.000 C
ATOM     28   O  BGC C   2      18.949  -1.612 -16.7240  0.00  0.00     0.000 O
ATOM     30  HD  BGC C   2      18.882  -1.280 -15.9270  0.00  0.00     0.000 HD
BRANCH 17 30
ATOM     30  O4  BGC C   3      20.199  -6.286 -15.2340  0.00  0.00     0.000 O
BRANCH 30 34
ATOM     31  C1  BGC C   3      19.551  -9.513 -17.5800  0.00  0.00     0.000 C
ATOM     32  C2  BGC C   3      20.038  -8.239 -18.3110  0.00  0.00     0.000 C
ATOM     33  C3  BGC C   3      20.573  -7.236 -17.3480  0.00  0.00     0.000 C
ATOM     34  C4  BGC C   3      19.530  -7.018 -16.2490  0.00  0.00     0.000 C
ATOM     35  C5  BGC C   3      18.983  -8.333 -15.6360  0.00  0.00     0.000 C
ATOM     36  O5  BGC C   3      18.541  -9.194 -16.6560  0.00  0.00     0.000 O
ATOM     37   O  BGC C   3      21.013  -8.378 -19.3270  0.00  0.00     0.000 O
ATOM     39  HD  BGC C   3      20.726  -7.898 -18.6660  0.00  0.00     0.000 HD
ATOM     39   O  BGC C   3      20.880  -5.989 -18.0370  0.00  0.00     0.000 O
ATOM     41  HD  BGC C   3      20.593  -5.509 -17.3760  0.00  0.00     0.000 HD
ATOM     41   C  BGC C   3      17.800  -8.158 -14.6570  0.00  0.00     0.000 C
ATOM     42   O  BGC C   3      16.567  -7.615 -15.2520  0.00  0.00     0.000 O
ATOM     44  HD  BGC C   3      16.280  -7.135 -14.5910  0.00  0.00     0.000 HD
BRANCH 31 44
ATOM     44  O4  BGC C   4      19.055 -10.445 -18.4820  0.00  0.00     0.000 O
BRANCH 44 48
ATOM     45  C1  BGC C   4      18.015 -14.379 -18.9290  0.00  0.00     0.000 C
ATOM     46  C2  BGC C   4      16.816 -13.531 -18.3970  0.00  0.00     0.000 C
ATOM     47  C3  BGC C   4      17.324 -12.098 -18.6050  0.00  0.00     0.000 C
ATOM     48  C4  BGC C   4      18.691 -11.728 -18.0650  0.00  0.00     0.000 C
ATOM     49  C5  BGC C   4      19.687 -12.699 -18.7190  0.00  0.00     0.000 C
ATOM     50  O5  BGC C   4      19.329 -14.015 -18.4790  0.00  0.00     0.000 O
ATOM     51   O  BGC C   4      15.400 -13.614 -18.9950  0.00  0.00     0.000 O
ATOM     53  HD  BGC C   4      14.882 -13.001 -18.6700  0.00  0.00     0.000 HD
ATOM     53   O  BGC C   4      16.362 -11.355 -17.7180  0.00  0.00     0.000 O
ATOM     55  HD  BGC C   4      15.844 -10.742 -17.3930  0.00  0.00     0.000 HD
ATOM     55   C  BGC C   4      21.068 -12.543 -18.1390  0.00  0.00     0.000 C
ATOM     56   O  BGC C   4      21.164 -12.696 -16.7180  0.00  0.00     0.000 O
ATOM     58  HD  BGC C   4      20.646 -12.083 -16.3930  0.00  0.00     0.000 HD
BRANCH 45 58
ATOM     58  O4  BGC C   5      17.881 -15.734 -18.6190  0.00  0.00     0.000 O
BRANCH 58 62
ATOM     59  C1  BGC C   5      19.831 -17.860 -19.6350  0.00  0.00     0.000 C
ATOM     60  C2  BGC C   5      19.764 -16.843 -20.6610  0.00  0.00     0.000 C
ATOM     61  C3  BGC C   5      18.343 -16.377 -20.9700  0.00  0.00     0.000 C
ATOM     62  C4  BGC C   5      17.480 -16.571 -19.7320  0.00  0.00     0.000 C
ATOM     63  C5  BGC C   5      17.790 -17.943 -19.1800  0.00  0.00     0.000 C
ATOM     64  O5  BGC C   5      18.964 -18.609 -19.6410  0.00  0.00     0.000 O
ATOM     65   O  BGC C   5      16.332 -19.134 -20.6940  0.00  0.00     0.000 O
ATOM     67  HD  BGC C   5      16.423 -18.761 -19.9180  0.00  0.00     0.000 HD
ATOM     67   O  BGC C   5      16.332 -19.134 -20.6940  0.00  0.00     0.000 O
ATOM     69  HD  BGC C   5      16.423 -18.761 -19.9180  0.00  0.00     0.000 HD
ENDBRANCH 58 62
ENDBRANCH 45 58
ENDBRANCH 44 48
ENDBRANCH 31 44
ENDBRANCH 30 34
ENDBRANCH 17 30
ENDBRANCH 16 20
ENDBRANCH 1 16
TORSDOF 8
ENDMDL
MODEL 2
REMARK VINA RESULT:     -10.1      2.365      6.026
ROOT
ATOM      1  C1  BGC C   1      18.883  -4.905 -15.6700  0.00  0.00     0.000 C
ATOM      2  C2  BGC C   1      19.229  -4.291 -14.3140  0.00  0.00     0.000 C
ATOM      3  C3  BGC C   1      18.364  -3.061 -14.0620  0.00  0.00     0.000 C
ATOM      4  C4  BGC C   1      18.388  -2.092 -15.2330  0.00  0.00     0.000 C
ATOM      5  C5  BGC C   1      18.186  -2.846 -16.5450  0.00  0.00     0.000 C
ATOM      6  O5  BGC C   1      18.993  -3.973 -16.6760  0.00  0.00     0.000 O
ATOM      7   O  BGC C   1      18.985  -5.269 -13.3320  0.00  0.00     0.000 O
ATOM      9  HD  BGC C   1      19.477  -4.562 -13.2420  0.00  0.00     0.000 HD
ATOM      9   O  BGC C   1      18.811  -2.444 -12.8470  0.00  0.00     0.000 O
ATOM     11  HD  BGC C   1      19.303  -1.737 -12.7570  0.00  0.00     0.000 HD
ATOM     11   O  BGC C   1      17.338  -1.156 -15.0140  0.00  0.00     0.000 O
ATOM     13  HD  BGC C   1      17.830  -0.449 -14.9240  0.00  0.00     0.000 HD
ATOM     13   O  BGC C   1      19.913  -1.547 -17.7580  0.00  0.00     0.000 O
ATOM     15  HD  BGC C   1      20.405  -0.841 -17.6680  0.00  0.00     0.000 HD
ATOM     15   C  BGC C   1      18.498  -1.881 -17.7040  0.00  0.00     0.000 C
ENDROOT
BRANCH 1 16
ATOM     16  O4  BGC C   2      19.811  -5.926 -15.9510  0.00  0.00     0.000 O
BRANCH 16 20
ATOM     17  C1  BGC C   2      19.807  -9.545 -17.8420  0.00  0.00     0.000 C
ATOM     18  C2  BGC C   2      20.095  -8.337 -18.7190  0.00  0.00     0.000 C
ATOM     19  C3  BGC C   2      20.430  -7.120 -17.8690  0.00  0.00     0.000 C
ATOM     20  C4  BGC C   2      19.366  -6.921 -16.8420  0.00  0.00     0.000 C
ATOM     21  C5  BGC C   2      19.100  -8.210 -16.0710  0.00  0.00     0.000 C
ATOM     22  O5  BGC C   2      18.778  -9.254 -16.9400  0.00  0.00     0.000 O
ATOM     23   O  BGC C   2      21.187  -8.652 -19.5960  0.00  0.00     0.000 O
ATOM     25  HD  BGC C   2      21.718  -7.971 -19.6670  0.00  0.00     0.000 HD
ATOM     25   O  BGC C   2      20.511  -5.973 -18.7070  0.00  0.00     0.000 O
ATOM     27  HD  BGC C   2      21.041  -5.292 -18.7770  0.00  0.00     0.000 HD
ATOM     27   C  BGC C   2      17.998  -8.105 -14.9970  0.00  0.00     0.000 C
ATOM     28   O  BGC C   2      16.773  -7.605 -15.5550  0.00  0.00     0.000 O
ATOM     30  HD  BGC C   2      17.303  -6.924 -15.6260  0.00  0.00     0.000 HD
BRANCH 17 30
ATOM     30  O4  BGC C   3      19.399 -10.625 -18.6550  0.00  0.00     0.000 O
BRANCH 30 34
ATOM     31  C1  BGC C   3      18.162 -14.466 -18.4350  0.00  0.00     0.000 C
ATOM     32  C2  BGC C   3      17.141 -13.405 -17.9620  0.00  0.00     0.000 C
ATOM     33  C3  BGC C   3      17.542 -12.039 -18.3990  0.00  0.00     0.000 C
ATOM     34  C4  BGC C   3      18.994 -11.804 -17.9760  0.00  0.00     0.000 C
ATOM     35  C5  BGC C   3      19.954 -12.957 -18.3660  0.00  0.00     0.000 C
ATOM     36  O5  BGC C   3      19.439 -14.187 -17.9180  0.00  0.00     0.000 O
ATOM     37   O  BGC C   3      15.785 -13.563 -18.3350  0.00  0.00     0.000 O
ATOM     39  HD  BGC C   3      16.435 -13.007 -18.2050  0.00  0.00     0.000 HD
ATOM     39   O  BGC C   3      16.655 -11.041 -17.8130  0.00  0.00     0.000 O
ATOM     41  HD  BGC C   3      17.306 -10.484 -17.6820  0.00  0.00     0.000 HD
ATOM     41   C  BGC C   3      21.386 -12.840 -17.7970  0.00  0.00     0.000 C
ATOM     42   O  BGC C   3      21.485 -12.904 -16.3290  0.00  0.00     0.000 O
ATOM     44  HD  BGC C   3      22.136 -12.347 -16.1990  0.00  0.00     0.000 HD
BRANCH 31 44
ATOM     44  O4  BGC C   4      17.783 -15.739 -18.0270  0.00  0.00     0.000 O
BRANCH 44 48
ATOM     45  C1  BGC C   4      18.201 -19.710 -18.9280  0.00  0.00     0.000 C
ATOM     46  C2  BGC C   4      19.199 -19.273 -17.8090  0.00  0.00     0.000 C
ATOM     47  C3  BGC C   4      18.662 -17.887 -17.4280  0.00  0.00     0.000 C
ATOM     48  C4  BGC C   4      18.417 -16.876 -18.5320  0.00  0.00     0.000 C
ATOM     49  C5  BGC C   4      17.425 -17.535 -19.5030  0.00  0.00     0.000 C
ATOM     50  O5  BGC C   4      17.906 -18.752 -19.9570  0.00  0.00     0.000 O
ATOM     51   O  BGC C   4      19.396 -20.068 -16.5060  0.00  0.00     0.000 O
ATOM     53  HD  BGC C   4      19.892 -19.636 -15.9420  0.00  0.00     0.000 HD
ATOM     53   O  BGC C   4      19.854 -17.345 -16.6880  0.00  0.00     0.000 O
ATOM     55  HD  BGC C   4      20.350 -16.913 -16.1240  0.00  0.00     0.000 HD
ATOM     55   C  BGC C   4      17.224 -16.694 -20.7370  0.00  0.00     0.000 C
ATOM     56   O  BGC C   4      18.413 -16.370 -21.4660  0.00  0.00     0.000 O
ATOM     58  HD  BGC C   4      18.909 -15.938 -20.9030  0.00  0.00     0.000 HD
BRANCH 45 58
ATOM     58  O4  BGC C   5      18.634 -20.854 -19.6030  0.00  0.00     0.000 O
BRANCH 58 62
ATOM     59  C1  BGC C   5      19.438 -23.620 -20.6290  0.00  0.00     0.000 C
ATOM     60  C2  BGC C   5      18.785 -22.949 -21.7320  0.00  0.00     0.000 C
ATOM     61  C3  BGC C   5      17.502 -22.224 -21.3340  0.00  0.00     0.000 C
ATOM     62  C4  BGC C   5      17.594 -21.827 -19.8680  0.00  0.00     0.000 C
ATOM     63  C5  BGC C   5      18.126 -23.023 -19.1120  0.00  0.00     0.000 C
ATOM     64  O5  BGC C   5      18.729 -24.080 -19.8570  0.00  0.00     0.000 O
ATOM     65   O  BGC C   5      15.997 -24.151 -18.9370  0.00  0.00     0.000 O
ATOM     67  HD  BGC C   5      16.567 -23.615 -18.5650  0.00  0.00     0.000 HD
ATOM     67   O  BGC C   5      15.997 -24.151 -18.9370  0.00  0.00     0.000 O
ATOM     69  HD  BGC C   5      16.567 -23.615 -18.5650  0.00  0.00     0.000 HD
ENDBRANCH 58 62
ENDBRANCH 45 58
ENDBRANCH 44 48
ENDBRANCH 31 44
ENDBRANCH 30 34
ENDBRANCH 17 30
ENDBRANCH 16 20
ENDBRANCH 1 16
TORSDOF 8
ENDMDL
MODEL 3
REMARK VINA RESULT:      -9.8      3.035     15.927
ROOT
ATOM      1  C1  BGC C   1      18.175 -21.679 -20.1800  0.00  0.00     0.000 C
ATOM      2  C2  BGC C   1      18.155 -22.158 -21.6310  0.00  0.00     0.000 C
ATOM      3  C3  BGC C   1      17.457 -23.509 -21.7250  0.00  0.00     0.000 C
ATOM      4  C4  BGC C   1      18.007 -24.511 -20.7240  0.00  0.00     0.000 C
ATOM      5  C5  BGC C   1      18.126 -23.869 -19.3450  0.00  0.00     0.000 C
ATOM      6  O5  BGC C   1      18.747 -22.623 -19.3570  0.00  0.00     0.000 O
ATOM      7   O  BGC C   1      17.459 -21.194 -22.3840  0.00  0.00     0.000 O
ATOM      9  HD  BGC C   1      17.999 -21.796 -22.6940  0.00  0.00     0.000 HD
ATOM      9   O  BGC C   1      17.577 -23.978 -23.0750  0.00  0.00     0.000 O
ATOM     11  HD  BGC C   1      18.117 -24.581 -23.3840  0.00  0.00     0.000 HD
ATOM     11   O  BGC C   1      17.100 -25.609 -20.7010  0.00  0.00     0.000 O
ATOM     13  HD  BGC C   1      17.640 -26.211 -21.0100  0.00  0.00     0.000 HD
ATOM     13   O  BGC C   1      20.330 -24.892 -18.8660  0.00  0.00     0.000 O
ATOM     15  HD  BGC C   1      20.870 -25.495 -19.1750  0.00  0.00     0.000 HD
ATOM     15   C  BGC C   1      18.941 -24.815 -18.4440  0.00  0.00     0.000 C
ENDROOT
BRANCH 1 16
ATOM     16  O4  BGC C   2      18.975 -20.523 -20.0980  0.00  0.00     0.000 O
BRANCH 16 20
ATOM     17  C1  BGC C   2      18.806 -16.799 -18.4310  0.00  0.00     0.000 C
ATOM     18  C2  BGC C   2      19.007 -17.953 -17.4610  0.00  0.00     0.000 C
ATOM     19  C3  BGC C   2      19.415 -19.218 -18.2040  0.00  0.00     0.000 C
ATOM     20  C4  BGC C   2      18.452 -19.478 -19.3130  0.00  0.00     0.000 C
ATOM     21  C5  BGC C   2      18.264 -18.237 -20.1790  0.00  0.00     0.000 C
ATOM     22  O5  BGC C   2      17.866 -17.145 -19.4070  0.00  0.00     0.000 O
ATOM     23   O  BGC C   2      20.013 -17.586 -16.5050  0.00  0.00     0.000 O
ATOM     25  HD  BGC C   2      20.532 -18.261 -16.3460  0.00  0.00     0.000 HD
ATOM     25   O  BGC C   2      19.413 -20.313 -17.2970  0.00  0.00     0.000 O
ATOM     27  HD  BGC C   2      19.932 -20.988 -17.1370  0.00  0.00     0.000 HD
ATOM     27   C  BGC C   2      17.268 -18.407 -21.3440  0.00  0.00     0.000 C
ATOM     28   O  BGC C   2      15.993 -18.876 -20.8750  0.00  0.00     0.000 O
ATOM     30  HD  BGC C   2      16.512 -19.551 -20.7150  0.00  0.00     0.000 HD
BRANCH 17 30
ATOM     30  O4  BGC C   3      18.328 -15.675 -17.7240  0.00  0.00     0.000 O
BRANCH 30 34
ATOM     31  C1  BGC C   3      18.879 -11.671 -17.7450  0.00  0.00     0.000 C
ATOM     32  C2  BGC C   3      17.552 -12.169 -18.3660  0.00  0.00     0.000 C
ATOM     33  C3  BGC C   3      17.287 -13.589 -18.0030  0.00  0.00     0.000 C
ATOM     34  C4  BGC C   3      18.533 -14.413 -18.3400  0.00  0.00     0.000 C
ATOM     35  C5  BGC C   3      19.851 -13.802 -17.8000  0.00  0.00     0.000 C
ATOM     36  O5  BGC C   3      19.957 -12.456 -18.1910  0.00  0.00     0.000 O
ATOM     37   O  BGC C   3      16.365 -11.453 -18.0780  0.00  0.00     0.000 O
ATOM     39  HD  BGC C   3      16.724 -12.231 -18.2030  0.00  0.00     0.000 HD
ATOM     39   O  BGC C   3      16.119 -14.083 -18.7220  0.00  0.00     0.000 O
ATOM     41  HD  BGC C   3      16.478 -14.861 -18.8480  0.00  0.00     0.000 HD
ATOM     41   C  BGC C   3      21.143 -14.507 -18.2750  0.00  0.00     0.000 C
ATOM     42   O  BGC C   3      21.398 -14.438 -19.7240  0.00  0.00     0.000 O
ATOM     44  HD  BGC C   3      21.757 -15.216 -19.8490  0.00  0.00     0.000 HD
BRANCH 31 44
ATOM     44  O4  BGC C   4      19.121 -10.346 -18.0840  0.00  0.00     0.000 O
BRANCH 44 48
ATOM     45  C1  BGC C   4      20.666  -6.808 -16.7210  0.00  0.00     0.000 C
ATOM     46  C2  BGC C   4      21.673  -7.985 -16.5160  0.00  0.00     0.000 C
ATOM     47  C3  BGC C   4      21.034  -9.099 -17.3560  0.00  0.00     0.000 C
ATOM     48  C4  BGC C   4      19.572  -9.429 -17.1310  0.00  0.00     0.000 C
ATOM     49  C5  BGC C   4      18.796  -8.125 -17.3770  0.00  0.00     0.000 C
ATOM     50  O5  BGC C   4      19.269  -7.104 -16.5690  0.00  0.00     0.000 O
ATOM     51   O  BGC C   4      23.157  -7.896 -16.9140  0.00  0.00     0.000 O
ATOM     53  HD  BGC C   4      23.551  -8.665 -16.8460  0.00  0.00     0.000 HD
ATOM     53   O  BGC C   4      21.771 -10.289 -16.8060  0.00  0.00     0.000 O
ATOM     55  HD  BGC C   4      22.165 -11.058 -16.7370  0.00  0.00     0.000 HD
ATOM     55   C  BGC C   4      17.339  -8.278 -17.0240  0.00  0.00     0.000 C
ATOM     56   O  BGC C   4      17.068  -8.712 -15.6870  0.00  0.00     0.000 O
ATOM     58  HD  BGC C   4      17.462  -9.481 -15.6190  0.00  0.00     0.000 HD
BRANCH 45 58
ATOM     58  O4  BGC C   5      20.914  -5.745 -15.8500  0.00  0.00     0.000 O
BRANCH 58 62
ATOM     59  C1  BGC C   5      21.396  -3.680 -13.6460  0.00  0.00     0.000 C
ATOM     60  C2  BGC C   5      21.383  -4.973 -12.9990  0.00  0.00     0.000 C
ATOM     61  C3  BGC C   5      20.247  -5.881 -13.4640  0.00  0.00     0.000 C
ATOM     62  C4  BGC C   5      19.861  -5.498 -14.8850  0.00  0.00     0.000 C
ATOM     63  C5  BGC C   5      19.779  -3.990 -14.9370  0.00  0.00     0.000 C
ATOM     64  O5  BGC C   5      20.361  -3.243 -13.8710  0.00  0.00     0.000 O
ATOM     65   O  BGC C   5      17.547  -3.851 -14.0220  0.00  0.00     0.000 O
ATOM     67  HD  BGC C   5      18.038  -3.886 -14.7350  0.00  0.00     0.000 HD
ATOM     67   O  BGC C   5      17.547  -3.851 -14.0220  0.00  0.00     0.000 O
ATOM     69  HD  BGC C   5      18.038  -3.886 -14.7350  0.00  0.00     0.000 HD
ENDBRANCH 58 62
ENDBRANCH 45 58
ENDBRANCH 44 48
ENDBRANCH 31 44
ENDBRANCH 30 34
ENDBRANCH 17 30
ENDBRANCH 16 20
ENDBRANCH 1 16
TORSDOF 8
ENDMDL
MODEL 4
REMARK VINA RESULT:      -9.5      2.233      5.967
ROOT
ATOM      1  C1  BGC C   1      19.892   4.466 -11.6750  0.00  0.00     0.000 C
ATOM      2  C2  BGC C   1      21.127   5.364 -11.7300  0.00  0.00     0.000 C
ATOM      3  C3  BGC C   1      21.022   6.462 -10.6790  0.00  0.00     0.000 C
ATOM      4  C4  BGC C   1      19.691   7.194 -10.7430  0.00  0.00     0.000 C
ATOM      5  C5  BGC C   1      18.543   6.193 -10.8410  0.00  0.00     0.000 C
ATOM      6  O5  BGC C   1      18.739   5.207 -11.8040  0.00  0.00     0.000 O
ATOM      7   O  BGC C   1      22.250   4.553 -11.4790  0.00  0.00     0.000 O
ATOM      9  HD  BGC C   1      22.254   5.334 -11.8520  0.00  0.00     0.000 HD
ATOM      9   O  BGC C   1      22.133   7.353 -10.8530  0.00  0.00     0.000 O
ATOM     11  HD  BGC C   1      22.136   8.134 -11.2260  0.00  0.00     0.000 HD
ATOM     11   O  BGC C   1      19.592   7.972  -9.5550  0.00  0.00     0.000 O
ATOM     13  HD  BGC C   1      19.596   8.753  -9.9280  0.00  0.00     0.000 HD
ATOM     13   O  BGC C   1      17.308   7.512 -12.5360  0.00  0.00     0.000 O
ATOM     15  HD  BGC C   1      17.312   8.294 -12.9090  0.00  0.00     0.000 HD
ATOM     15   C  BGC C   1      17.259   6.969 -11.1870  0.00  0.00     0.000 C
ENDROOT
BRANCH 1 16
ATOM     16  O4  BGC C   2      19.933   3.575 -12.7640  0.00  0.00     0.000 O
BRANCH 16 20
ATOM     17  C1  BGC C   2      19.009  -0.322 -13.5570  0.00  0.00     0.000 C
ATOM     18  C2  BGC C   2      17.829   0.629 -13.4360  0.00  0.00     0.000 C
ATOM     19  C3  BGC C   2      18.294   2.077 -13.5080  0.00  0.00     0.000 C
ATOM     20  C4  BGC C   2      19.393   2.298 -12.5240  0.00  0.00     0.000 C
ATOM     21  C5  BGC C   2      20.487   1.246 -12.6790  0.00  0.00     0.000 C
ATOM     22  O5  BGC C   2      19.960  -0.042 -12.5710  0.00  0.00     0.000 O
ATOM     23   O  BGC C   2      16.897   0.349 -14.4910  0.00  0.00     0.000 O
ATOM     25  HD  BGC C   2      16.581   1.088 -14.8130  0.00  0.00     0.000 HD
ATOM     25   O  BGC C   2      17.199   2.935 -13.2080  0.00  0.00     0.000 O
ATOM     27  HD  BGC C   2      16.883   3.674 -13.5290  0.00  0.00     0.000 HD
ATOM     27   C  BGC C   2      21.661   1.384 -11.6870  0.00  0.00     0.000 C
ATOM     28   O  BGC C   2      21.193   1.410 -10.3280  0.00  0.00     0.000 O
ATOM     30  HD  BGC C   2      20.877   2.150 -10.6500  0.00  0.00     0.000 HD
BRANCH 17 30
ATOM     30  O4  BGC C   3      18.557  -1.648 -13.3820  0.00  0.00     0.000 O
BRANCH 30 34
ATOM     31  C1  BGC C   3      19.443  -5.448 -14.4380  0.00  0.00     0.000 C
ATOM     32  C2  BGC C   3      20.299  -4.853 -13.2940  0.00  0.00     0.000 C
ATOM     33  C3  BGC C   3      19.683  -3.610 -12.7510  0.00  0.00     0.000 C
ATOM     34  C4  BGC C   3      19.383  -2.669 -13.9210  0.00  0.00     0.000 C
ATOM     35  C5  BGC C   3      18.634  -3.349 -15.0950  0.00  0.00     0.000 C
ATOM     36  O5  BGC C   3      19.307  -4.519 -15.4860  0.00  0.00     0.000 O
ATOM     37   O  BGC C   3      20.596  -5.674 -12.1800  0.00  0.00     0.000 O
ATOM     39  HD  BGC C   3      20.395  -4.877 -12.4540  0.00  0.00     0.000 HD
ATOM     39   O  BGC C   3      20.579  -2.983 -11.7870  0.00  0.00     0.000 O
ATOM     41  HD  BGC C   3      20.378  -2.187 -12.0610  0.00  0.00     0.000 HD
ATOM     41   C  BGC C   3      18.477  -2.480 -16.3640  0.00  0.00     0.000 C
ATOM     42   O  BGC C   3      19.736  -2.116 -17.0350  0.00  0.00     0.000 O
ATOM     44  HD  BGC C   3      19.535  -1.320 -17.3090  0.00  0.00     0.000 HD
BRANCH 31 44
ATOM     44  O4  BGC C   4      20.021  -6.607 -14.9410  0.00  0.00     0.000 O
BRANCH 44 48
ATOM     45  C1  BGC C   4      19.313  -9.810 -17.3890  0.00  0.00     0.000 C
ATOM     46  C2  BGC C   4      20.071  -8.672 -18.1460  0.00  0.00     0.000 C
ATOM     47  C3  BGC C   4      20.492  -7.750 -16.9940  0.00  0.00     0.000 C
ATOM     48  C4  BGC C   4      19.436  -7.301 -16.0020  0.00  0.00     0.000 C
ATOM     49  C5  BGC C   4      18.834  -8.584 -15.4070  0.00  0.00     0.000 C
ATOM     50  O5  BGC C   4      18.348  -9.414 -16.4030  0.00  0.00     0.000 O
ATOM     51   O  BGC C   4      21.316  -8.929 -19.0140  0.00  0.00     0.000 O
ATOM     53  HD  BGC C   4      21.684  -8.187 -19.2670  0.00  0.00     0.000 HD
ATOM     53   O  BGC C   4      20.824  -6.506 -17.7700  0.00  0.00     0.000 O
ATOM     55  HD  BGC C   4      21.192  -5.764 -18.0230  0.00  0.00     0.000 HD
ATOM     55   C  BGC C   4      17.653  -8.278 -14.5230  0.00  0.00     0.000 C
ATOM     56   O  BGC C   4      16.596  -7.533 -15.1380  0.00  0.00     0.000 O
ATOM     58  HD  BGC C   4      16.964  -6.791 -15.3910  0.00  0.00     0.000 HD
BRANCH 45 58
ATOM     58  O4  BGC C   5      18.624 -10.655 -18.2620  0.00  0.00     0.000 O
BRANCH 58 62
ATOM     59  C1  BGC C   5      18.552 -12.793 -20.4470  0.00  0.00     0.000 C
ATOM     60  C2  BGC C   5      17.261 -12.832 -19.7950  0.00  0.00     0.000 C
ATOM     61  C3  BGC C   5      17.343 -12.780 -18.2710  0.00  0.00     0.000 C
ATOM     62  C4  BGC C   5      18.617 -12.050 -17.8710  0.00  0.00     0.000 C
ATOM     63  C5  BGC C   5      19.734 -12.591 -18.7330  0.00  0.00     0.000 C
ATOM     64  O5  BGC C   5      19.388 -13.345 -19.8930  0.00  0.00     0.000 O
ATOM     65   O  BGC C   5      20.132 -14.556 -17.3850  0.00  0.00     0.000 O
ATOM     67  HD  BGC C   5      20.351 -13.735 -17.5520  0.00  0.00     0.000 HD
ATOM     67   O  BGC C   5      20.132 -14.556 -17.3850  0.00  0.00     0.000 O
ATOM     69  HD  BGC C   5      20.351 -13.735 -17.5520  0.00  0.00     0.000 HD
ENDBRANCH 58 62
ENDBRANCH 45 58
ENDBRANCH 44 48
ENDBRANCH 31 44
ENDBRANCH 30 34
ENDBRANCH 17 30
ENDBRANCH 16 20
ENDBRANCH 1 16
TORSDOF 8
ENDMDL
MODEL 5
REMARK VINA RESULT:      -9.5      1.951     14.471
ROOT
ATOM      1  C1  BGC C   1      18.137 -14.657 -20.5700  0.00  0.00     0.000 C
ATOM      2  C2  BGC C   1      17.374 -15.884 -20.0710  0.00  0.00     0.000 C
ATOM      3  C3  BGC C   1      17.669 -17.082 -20.9660  0.00  0.00     0.000 C
ATOM      4  C4  BGC C   1      17.478 -16.759 -22.4390  0.00  0.00     0.000 C
ATOM      5  C5  BGC C   1      18.153 -15.434 -22.7810  0.00  0.00     0.000 C
ATOM      6  O5  BGC C   1      17.853 -14.405 -21.8920  0.00  0.00     0.000 O
ATOM      7   O  BGC C   1      17.801 -16.141 -18.7540  0.00  0.00     0.000 O
ATOM      9  HD  BGC C   1      17.075 -16.432 -19.1250  0.00  0.00     0.000 HD
ATOM      9   O  BGC C   1      16.836 -18.169 -20.5420  0.00  0.00     0.000 O
ATOM     11  HD  BGC C   1      16.109 -18.460 -20.9130  0.00  0.00     0.000 HD
ATOM     11   O  BGC C   1      18.056 -17.833 -23.1730  0.00  0.00     0.000 O
ATOM     13  HD  BGC C   1      17.329 -18.124 -23.5440  0.00  0.00     0.000 HD
ATOM     13   O  BGC C   1      16.288 -14.654 -24.2130  0.00  0.00     0.000 O
ATOM     15  HD  BGC C   1      15.561 -14.945 -24.5840  0.00  0.00     0.000 HD
ATOM     15   C  BGC C   1      17.697 -15.014 -24.1900  0.00  0.00     0.000 C
ENDROOT
BRANCH 1 16
ATOM     16  O4  BGC C   2      17.711 -13.533 -19.8360  0.00  0.00     0.000 O
BRANCH 16 20
ATOM     17  C1  BGC C   2      19.354 -10.303 -17.9530  0.00  0.00     0.000 C
ATOM     18  C2  BGC C   2      19.538 -10.358 -19.4620  0.00  0.00     0.000 C
ATOM     19  C3  BGC C   2      18.595 -11.378 -20.0840  0.00  0.00     0.000 C
ATOM     20  C4  BGC C   2      18.737 -12.685 -19.3780  0.00  0.00     0.000 C
ATOM     21  C5  BGC C   2      18.612 -12.508 -17.8670  0.00  0.00     0.000 C
ATOM     22  O5  BGC C   2      19.536 -11.574 -17.3970  0.00  0.00     0.000 O
ATOM     23   O  BGC C   2      19.294  -9.052 -20.0060  0.00  0.00     0.000 O
ATOM     25  HD  BGC C   2      18.848  -9.117 -20.7460  0.00  0.00     0.000 HD
ATOM     25   O  BGC C   2      18.920 -11.537 -21.4600  0.00  0.00     0.000 O
ATOM     27  HD  BGC C   2      18.475 -11.602 -22.1990  0.00  0.00     0.000 HD
ATOM     27   C  BGC C   2      18.765 -13.807 -17.0500  0.00  0.00     0.000 C
ATOM     28   O  BGC C   2      19.995 -14.480 -17.3670  0.00  0.00     0.000 O
ATOM     30  HD  BGC C   2      19.550 -14.545 -18.1070  0.00  0.00     0.000 HD
BRANCH 17 30
ATOM     30  O4  BGC C   3      20.312  -9.427 -17.3990  0.00  0.00     0.000 O
BRANCH 30 34
ATOM     31  C1  BGC C   3      20.070  -6.306 -14.8430  0.00  0.00     0.000 C
ATOM     32  C2  BGC C   3      20.978  -7.475 -14.3900  0.00  0.00     0.000 C
ATOM     33  C3  BGC C   3      21.275  -8.395 -15.5220  0.00  0.00     0.000 C
ATOM     34  C4  BGC C   3      19.952  -8.793 -16.1810  0.00  0.00     0.000 C
ATOM     35  C5  BGC C   3      19.026  -7.591 -16.5000  0.00  0.00     0.000 C
ATOM     36  O5  BGC C   3      18.855  -6.794 -15.3550  0.00  0.00     0.000 O
ATOM     37   O  BGC C   3      22.220  -7.166 -13.7860  0.00  0.00     0.000 O
ATOM     39  HD  BGC C   3      21.791  -7.696 -14.3200  0.00  0.00     0.000 HD
ATOM     39   O  BGC C   3      21.997  -9.568 -15.0420  0.00  0.00     0.000 O
ATOM     41  HD  BGC C   3      21.568 -10.097 -15.5760  0.00  0.00     0.000 HD
ATOM     41   C  BGC C   3      17.610  -7.967 -16.9960  0.00  0.00     0.000 C
ATOM     42   O  BGC C   3      16.775  -8.688 -16.0200  0.00  0.00     0.000 O
ATOM     44  HD  BGC C   3      16.346  -9.218 -16.5540  0.00  0.00     0.000 HD
BRANCH 31 44
ATOM     44  O4  BGC C   4      19.797  -5.449 -13.7840  0.00  0.00     0.000 O
BRANCH 44 48
ATOM     45  C1  BGC C   4      18.702  -1.600 -12.9210  0.00  0.00     0.000 C
ATOM     46  C2  BGC C   4      17.958  -2.133 -14.1860  0.00  0.00     0.000 C
ATOM     47  C3  BGC C   4      18.271  -3.634 -14.1310  0.00  0.00     0.000 C
ATOM     48  C4  BGC C   4      19.715  -4.068 -13.9780  0.00  0.00     0.000 C
ATOM     49  C5  BGC C   4      20.224  -3.414 -12.6830  0.00  0.00     0.000 C
ATOM     50  O5  BGC C   4      20.054  -2.040 -12.7200  0.00  0.00     0.000 O
ATOM     51   O  BGC C   4      16.439  -1.982 -14.3900  0.00  0.00     0.000 O
ATOM     53  HD  BGC C   4      16.166  -2.429 -15.0800  0.00  0.00     0.000 HD
ATOM     53   O  BGC C   4      17.915  -4.022 -15.5400  0.00  0.00     0.000 O
ATOM     55  HD  BGC C   4      17.641  -4.469 -16.2290  0.00  0.00     0.000 HD
ATOM     55   C  BGC C   4      21.703  -3.634 -12.5010  0.00  0.00     0.000 C
ATOM     56   O  BGC C   4      22.533  -3.191 -13.5810  0.00  0.00     0.000 O
ATOM     58  HD  BGC C   4      22.260  -3.638 -14.2700  0.00  0.00     0.000 HD
BRANCH 45 58
ATOM     58  O4  BGC C   5      18.761  -0.204 -12.8920  0.00  0.00     0.000 O
BRANCH 58 62
ATOM     59  C1  BGC C   5      19.021   2.831 -12.6260  0.00  0.00     0.000 C
ATOM     60  C2  BGC C   5      20.062   2.409 -13.5380  0.00  0.00     0.000 C
ATOM     61  C3  BGC C   5      20.819   1.168 -13.0720  0.00  0.00     0.000 C
ATOM     62  C4  BGC C   5      19.904   0.337 -12.1850  0.00  0.00     0.000 C
ATOM     63  C5  BGC C   5      19.222   1.287 -11.2290  0.00  0.00     0.000 C
ATOM     64  O5  BGC C   5      19.263   2.683 -11.5170  0.00  0.00     0.000 O
ATOM     65   O  BGC C   5      21.059   1.396  -9.6640  0.00  0.00     0.000 O
ATOM     67  HD  BGC C   5      20.311   1.016  -9.8790  0.00  0.00     0.000 HD
ATOM     67   O  BGC C   5      21.059   1.396  -9.6640  0.00  0.00     0.000 O
ATOM     69  HD  BGC C   5      20.311   1.016  -9.8790  0.00  0.00     0.000 HD
ENDBRANCH 58 62
ENDBRANCH 45 58
ENDBRANCH 44 48
ENDBRANCH 31 44
ENDBRANCH 30 34
ENDBRANCH 17 30
ENDBRANCH 16 20
ENDBRANCH 1 16
TORSDOF 8
ENDMDL
MODEL 6
REMARK VINA RESULT:      -9.5      1.484     14.486
ROOT
ATOM      1  C1  BGC C   1      18.153 -15.248 -18.9840  0.00  0.00     0.000 C
ATOM      2  C2  BGC C   1      17.750 -15.971 -20.2690  0.00  0.00     0.000 C
ATOM      3  C3  BGC C   1      17.187 -17.348 -19.9380  0.00  0.00     0.000 C
ATOM      4  C4  BGC C   1      18.100 -18.136 -19.0140  0.00  0.00     0.000 C
ATOM      5  C5  BGC C   1      18.559 -17.260 -17.8520  0.00  0.00     0.000 C
ATOM      6  O5  BGC C   1      19.028 -16.009 -18.2440  0.00  0.00     0.000 O
ATOM      7   O  BGC C   1      16.774 -15.184 -20.9090  0.00  0.00     0.000 O
ATOM      9  HD  BGC C   1      17.253 -15.807 -21.2740  0.00  0.00     0.000 HD
ATOM      9   O  BGC C   1      16.946 -18.038 -21.1720  0.00  0.00     0.000 O
ATOM     11  HD  BGC C   1      17.425 -18.661 -21.5370  0.00  0.00     0.000 HD
ATOM     11   O  BGC C   1      17.349 -19.252 -18.5480  0.00  0.00     0.000 O
ATOM     13  HD  BGC C   1      17.828 -19.875 -18.9130  0.00  0.00     0.000 HD
ATOM     13   O  BGC C   1      20.894 -18.086 -17.9240  0.00  0.00     0.000 O
ATOM     15  HD  BGC C   1      21.373 -18.709 -18.2900  0.00  0.00     0.000 HD
ATOM     15   C  BGC C   1      19.690 -17.998 -17.1130  0.00  0.00     0.000 C
ENDROOT
BRANCH 1 16
ATOM     16  O4  BGC C   2      18.828 -14.061 -19.3280  0.00  0.00     0.000 O
BRANCH 16 20
ATOM     17  C1  BGC C   2      19.774 -10.494 -17.5810  0.00  0.00     0.000 C
ATOM     18  C2  BGC C   2      20.684 -11.663 -17.2400  0.00  0.00     0.000 C
ATOM     19  C3  BGC C   2      20.466 -12.817 -18.2080  0.00  0.00     0.000 C
ATOM     20  C4  BGC C   2      19.011 -13.142 -18.2780  0.00  0.00     0.000 C
ATOM     21  C5  BGC C   2      18.183 -11.890 -18.5480  0.00  0.00     0.000 C
ATOM     22  O5  BGC C   2      18.438 -10.907 -17.5910  0.00  0.00     0.000 O
ATOM     23   O  BGC C   2      22.048 -11.219 -17.2880  0.00  0.00     0.000 O
ATOM     25  HD  BGC C   2      22.546 -11.826 -17.6550  0.00  0.00     0.000 HD
ATOM     25   O  BGC C   2      21.191 -13.953 -17.7520  0.00  0.00     0.000 O
ATOM     27  HD  BGC C   2      21.689 -14.560 -18.1180  0.00  0.00     0.000 HD
ATOM     27   C  BGC C   2      16.660 -12.126 -18.6180  0.00  0.00     0.000 C
ATOM     28   O  BGC C   2      16.180 -12.788 -17.4370  0.00  0.00     0.000 O
ATOM     30  HD  BGC C   2      16.678 -13.395 -17.8030  0.00  0.00     0.000 HD
BRANCH 17 30
ATOM     30  O4  BGC C   3      19.926  -9.485 -16.6050  0.00  0.00     0.000 O
BRANCH 30 34
ATOM     31  C1  BGC C   3      18.831  -5.645 -15.9790  0.00  0.00     0.000 C
ATOM     32  C2  BGC C   3      17.942  -6.715 -15.3030  0.00  0.00     0.000 C
ATOM     33  C3  BGC C   3      18.609  -8.046 -15.2980  0.00  0.00     0.000 C
ATOM     34  C4  BGC C   3      19.066  -8.362 -16.7240  0.00  0.00     0.000 C
ATOM     35  C5  BGC C   3      19.847  -7.207 -17.4010  0.00  0.00     0.000 C
ATOM     36  O5  BGC C   3      19.117  -6.009 -17.3070  0.00  0.00     0.000 O
ATOM     37   O  BGC C   3      17.500  -6.482 -13.9780  0.00  0.00     0.000 O
ATOM     39  HD  BGC C   3      17.782  -7.068 -14.5510  0.00  0.00     0.000 HD
ATOM     39   O  BGC C   3      17.694  -9.067 -14.8000  0.00  0.00     0.000 O
ATOM     41  HD  BGC C   3      17.976  -9.652 -15.3730  0.00  0.00     0.000 HD
ATOM     41   C  BGC C   3      20.164  -7.419 -18.8990  0.00  0.00     0.000 C
ATOM     42   O  BGC C   3      18.990  -7.493 -19.7850  0.00  0.00     0.000 O
ATOM     44  HD  BGC C   3      19.272  -8.079 -20.3570  0.00  0.00     0.000 HD
BRANCH 31 44
ATOM     44  O4  BGC C   4      18.206  -4.405 -15.9800  0.00  0.00     0.000 O
BRANCH 44 48
ATOM     45  C1  BGC C   4      18.739  -0.632 -14.4840  0.00  0.00     0.000 C
ATOM     46  C2  BGC C   4      18.852  -0.647 -16.0420  0.00  0.00     0.000 C
ATOM     47  C3  BGC C   4      18.322  -2.046 -16.3850  0.00  0.00     0.000 C
ATOM     48  C4  BGC C   4      18.912  -3.242 -15.6640  0.00  0.00     0.000 C
ATOM     49  C5  BGC C   4      18.690  -2.989 -14.1640  0.00  0.00     0.000 C
ATOM     50  O5  BGC C   4      19.238  -1.777 -13.7770  0.00  0.00     0.000 O
ATOM     51   O  BGC C   4      18.120   0.362 -16.9450  0.00  0.00     0.000 O
ATOM     53  HD  BGC C   4      18.190   0.149 -17.7820  0.00  0.00     0.000 HD
ATOM     53   O  BGC C   4      18.832  -2.174 -17.7940  0.00  0.00     0.000 O
ATOM     55  HD  BGC C   4      18.903  -2.387 -18.6310  0.00  0.00     0.000 HD
ATOM     55   C  BGC C   4      19.381  -4.032 -13.3240  0.00  0.00     0.000 C
ATOM     56   O  BGC C   4      20.788  -4.177 -13.5490  0.00  0.00     0.000 O
ATOM     58  HD  BGC C   4      20.859  -4.390 -14.3860  0.00  0.00     0.000 HD
BRANCH 45 58
ATOM     58  O4  BGC C   5      19.394   0.465 -13.9190  0.00  0.00     0.000 O
BRANCH 58 62
ATOM     59  C1  BGC C   5      19.683   3.479 -13.4920  0.00  0.00     0.000 C
ATOM     60  C2  BGC C   5      20.390   2.842 -12.4020  0.00  0.00     0.000 C
ATOM     61  C3  BGC C   5      19.625   1.683 -11.7700  0.00  0.00     0.000 C
ATOM     62  C4  BGC C   5      18.692   1.081 -12.8110  0.00  0.00     0.000 C
ATOM     63  C5  BGC C   5      18.005   2.228 -13.5140  0.00  0.00     0.000 C
ATOM     64  O5  BGC C   5      18.547   3.539 -13.3590  0.00  0.00     0.000 O
ATOM     65   O  BGC C   5      16.315   2.557 -11.8200  0.00  0.00     0.000 O
ATOM     67  HD  BGC C   5      16.527   2.177 -12.5680  0.00  0.00     0.000 HD
ATOM     67   O  BGC C   5      16.315   2.557 -11.8200  0.00  0.00     0.000 O
ATOM     69  HD  BGC C   5      16.527   2.177 -12.5680  0.00  0.00     0.000 HD
ENDBRANCH 58 62
ENDBRANCH 45 58
ENDBRANCH 44 48
ENDBRANCH 31 44
ENDBRANCH 30 34
ENDBRANCH 17 30
ENDBRANCH 16 20
ENDBRANCH 1 16
TORSDOF 8
ENDMDL
MODEL 7
REMARK VINA RESULT:      -9.4      1.830     14.658
ROOT
ATOM      1  C1  BGC C   1      20.243 -15.728 -18.5260  0.00  0.00     0.000 C
ATOM      2  C2  BGC C   1      20.178 -17.140 -17.9460  0.00  0.00     0.000 C
ATOM      3  C3  BGC C   1      20.801 -18.134 -18.9200  0.00  0.00     0.000 C
ATOM      4  C4  BGC C   1      20.242 -17.988 -20.3260  0.00  0.00     0.000 C
ATOM      5  C5  BGC C   1      20.214 -16.518 -20.7330  0.00  0.00     0.000 C
ATOM      6  O5  BGC C   1      19.659 -15.679 -19.7710  0.00  0.00     0.000 O
ATOM      7   O  BGC C   1      20.891 -17.132 -16.7330  0.00  0.00     0.000 O
ATOM      9  HD  BGC C   1      20.308 -17.722 -16.9820  0.00  0.00     0.000 HD
ATOM      9   O  BGC C   1      20.601 -19.454 -18.3970  0.00  0.00     0.000 O
ATOM     11  HD  BGC C   1      20.018 -20.044 -18.6470  0.00  0.00     0.000 HD
ATOM     11   O  BGC C   1      21.091 -18.742 -21.1850  0.00  0.00     0.000 O
ATOM     13  HD  BGC C   1      20.508 -19.332 -21.4350  0.00  0.00     0.000 HD
ATOM     13   O  BGC C   1      17.982 -16.674 -21.7950  0.00  0.00     0.000 O
ATOM     15  HD  BGC C   1      17.399 -17.264 -22.0450  0.00  0.00     0.000 HD
ATOM     15   C  BGC C   1      19.390 -16.395 -22.0280  0.00  0.00     0.000 C
ENDROOT
BRANCH 1 16
ATOM     16  O4  BGC C   2      19.508 -14.864 -17.6920  0.00  0.00     0.000 O
BRANCH 16 20
ATOM     17  C1  BGC C   2      19.353 -10.854 -16.9330  0.00  0.00     0.000 C
ATOM     18  C2  BGC C   2      18.437 -11.358 -18.0380  0.00  0.00     0.000 C
ATOM     19  C3  BGC C   2      18.308 -12.873 -17.9840  0.00  0.00     0.000 C
ATOM     20  C4  BGC C   2      19.667 -13.490 -17.9530  0.00  0.00     0.000 C
ATOM     21  C5  BGC C   2      20.529 -12.862 -16.8610  0.00  0.00     0.000 C
ATOM     22  O5  BGC C   2      20.603 -11.477 -17.0190  0.00  0.00     0.000 O
ATOM     23   O  BGC C   2      17.150 -10.739 -17.8910  0.00  0.00     0.000 O
ATOM     25  HD  BGC C   2      16.524 -11.316 -18.0480  0.00  0.00     0.000 HD
ATOM     25   O  BGC C   2      17.601 -13.324 -19.1330  0.00  0.00     0.000 O
ATOM     27  HD  BGC C   2      16.975 -13.901 -19.2900  0.00  0.00     0.000 HD
ATOM     27   C  BGC C   2      21.962 -13.425 -16.7670  0.00  0.00     0.000 C
ATOM     28   O  BGC C   2      22.637 -13.346 -18.0330  0.00  0.00     0.000 O
ATOM     30  HD  BGC C   2      22.010 -13.923 -18.1900  0.00  0.00     0.000 HD
BRANCH 17 30
ATOM     30  O4  BGC C   3      19.534  -9.462 -17.0770  0.00  0.00     0.000 O
BRANCH 30 34
ATOM     31  C1  BGC C   3      19.726  -6.055 -14.9100  0.00  0.00     0.000 C
ATOM     32  C2  BGC C   3      20.762  -7.144 -14.5420  0.00  0.00     0.000 C
ATOM     33  C3  BGC C   3      20.842  -8.191 -15.5980  0.00  0.00     0.000 C
ATOM     34  C4  BGC C   3      19.424  -8.689 -15.8910  0.00  0.00     0.000 C
ATOM     35  C5  BGC C   3      18.398  -7.552 -16.1300  0.00  0.00     0.000 C
ATOM     36  O5  BGC C   3      18.450  -6.624 -15.0760  0.00  0.00     0.000 O
ATOM     37   O  BGC C   3      22.092  -6.742 -14.2730  0.00  0.00     0.000 O
ATOM     39  HD  BGC C   3      21.579  -7.341 -14.6320  0.00  0.00     0.000 HD
ATOM     39   O  BGC C   3      21.703  -9.283 -15.1600  0.00  0.00     0.000 O
ATOM     41  HD  BGC C   3      21.191  -9.881 -15.5190  0.00  0.00     0.000 HD
ATOM     41   C  BGC C   3      16.927  -8.011 -16.2480  0.00  0.00     0.000 C
ATOM     42   O  BGC C   3      16.361  -8.621 -15.0330  0.00  0.00     0.000 O
ATOM     44  HD  BGC C   3      15.848  -9.220 -15.3910  0.00  0.00     0.000 HD
BRANCH 31 44
ATOM     44  O4  BGC C   4      19.656  -5.080 -13.9240  0.00  0.00     0.000 O
BRANCH 44 48
ATOM     45  C1  BGC C   4      19.096  -1.068 -13.3320  0.00  0.00     0.000 C
ATOM     46  C2  BGC C   4      18.123  -1.624 -14.4210  0.00  0.00     0.000 C
ATOM     47  C3  BGC C   4      18.287  -3.139 -14.2500  0.00  0.00     0.000 C
ATOM     48  C4  BGC C   4      19.686  -3.722 -14.2500  0.00  0.00     0.000 C
ATOM     49  C5  BGC C   4      20.443  -3.016 -13.1130  0.00  0.00     0.000 C
ATOM     50  O5  BGC C   4      20.411  -1.641 -13.2720  0.00  0.00     0.000 O
ATOM     51   O  BGC C   4      16.614  -1.318 -14.4310  0.00  0.00     0.000 O
ATOM     53  HD  BGC C   4      16.198  -1.791 -15.0250  0.00  0.00     0.000 HD
ATOM     53   O  BGC C   4      17.690  -3.609 -15.5480  0.00  0.00     0.000 O
ATOM     55  HD  BGC C   4      17.274  -4.083 -16.1420  0.00  0.00     0.000 HD
ATOM     55   C  BGC C   4      21.903  -3.389 -13.1120  0.00  0.00     0.000 C
ATOM     56   O  BGC C   4      22.606  -3.143 -14.3360  0.00  0.00     0.000 O
ATOM     58  HD  BGC C   4      22.191  -3.616 -14.9300  0.00  0.00     0.000 HD
BRANCH 45 58
ATOM     58  O4  BGC C   5      19.298   0.308 -13.4590  0.00  0.00     0.000 O
BRANCH 58 62
ATOM     59  C1  BGC C   5      19.386   3.353 -13.7360  0.00  0.00     0.000 C
ATOM     60  C2  BGC C   5      20.156   3.027 -12.5550  0.00  0.00     0.000 C
ATOM     61  C3  BGC C   5      19.485   1.997 -11.6510  0.00  0.00     0.000 C
ATOM     62  C4  BGC C   5      18.577   1.116 -12.4970  0.00  0.00     0.000 C
ATOM     63  C5  BGC C   5      17.799   2.027 -13.4180  0.00  0.00     0.000 C
ATOM     64  O5  BGC C   5      18.252   3.369 -13.5820  0.00  0.00     0.000 O
ATOM     65   O  BGC C   5      16.122   2.626 -11.7860  0.00  0.00     0.000 O
ATOM     67  HD  BGC C   5      16.346   2.099 -12.4360  0.00  0.00     0.000 HD
ATOM     67   O  BGC C   5      16.122   2.626 -11.7860  0.00  0.00     0.000 O
ATOM     69  HD  BGC C   5      16.346   2.099 -12.4360  0.00  0.00     0.000 HD
ENDBRANCH 58 62
ENDBRANCH 45 58
ENDBRANCH 44 48
ENDBRANCH 31 44
ENDBRANCH 30 34
ENDBRANCH 17 30
ENDBRANCH 16 20
ENDBRANCH 1 16
TORSDOF 8
ENDMDL
MODEL 8
REMARK VINA RESULT:      -8.9      2.690      6.460
ROOT
ATOM      1  C1  BGC C   1      19.028   5.507 -11.2560  0.00  0.00     0.000 C
ATOM      2  C2  BGC C   1      20.124   6.572 -11.2700  0.00  0.00     0.000 C
ATOM      3  C3  BGC C   1      19.853   7.615 -10.1920  0.00  0.00     0.000 C
ATOM      4  C4  BGC C   1      18.432   8.152 -10.2560  0.00  0.00     0.000 C
ATOM      5  C5  BGC C   1      17.439   7.002 -10.3970  0.00  0.00     0.000 C
ATOM      6  O5  BGC C   1      17.783   6.080 -11.3830  0.00  0.00     0.000 O
ATOM      7   O  BGC C   1      21.348   5.921 -11.0230  0.00  0.00     0.000 O
ATOM      9  HD  BGC C   1      21.245   6.706 -11.3760  0.00  0.00     0.000 HD
ATOM      9   O  BGC C   1      20.827   8.658 -10.3270  0.00  0.00     0.000 O
ATOM     11  HD  BGC C   1      20.724   9.442 -10.6790  0.00  0.00     0.000 HD
ATOM     11   O  BGC C   1      18.211   8.874  -9.0500  0.00  0.00     0.000 O
ATOM     13  HD  BGC C   1      18.108   9.659  -9.4020  0.00  0.00     0.000 HD
ATOM     13   O  BGC C   1      16.047   8.180 -12.0750  0.00  0.00     0.000 O
ATOM     15  HD  BGC C   1      15.944   8.965 -12.4270  0.00  0.00     0.000 HD
ATOM     15   C  BGC C   1      16.062   7.598 -10.7420  0.00  0.00     0.000 C
ENDROOT
BRANCH 1 16
ATOM     16  O4  BGC C   2      19.207   4.662 -12.3680  0.00  0.00     0.000 O
BRANCH 16 20
ATOM     17  C1  BGC C   2      18.899   0.694 -13.2790  0.00  0.00     0.000 C
ATOM     18  C2  BGC C   2      17.596   1.400 -12.9370  0.00  0.00     0.000 C
ATOM     19  C3  BGC C   2      17.775   2.911 -12.9770  0.00  0.00     0.000 C
ATOM     20  C4  BGC C   2      18.948   3.297 -12.1400  0.00  0.00     0.000 C
ATOM     21  C5  BGC C   2      20.180   2.478 -12.5110  0.00  0.00     0.000 C
ATOM     22  O5  BGC C   2      19.917   1.111 -12.4160  0.00  0.00     0.000 O
ATOM     23   O  BGC C   2      16.587   0.989 -13.8720  0.00  0.00     0.000 O
ATOM     25  HD  BGC C   2      16.099   1.668 -14.0990  0.00  0.00     0.000 HD
ATOM     25   O  BGC C   2      16.599   3.534 -12.4750  0.00  0.00     0.000 O
ATOM     27  HD  BGC C   2      16.111   4.213 -12.7020  0.00  0.00     0.000 HD
ATOM     27   C  BGC C   2      21.441   2.796 -11.6810  0.00  0.00     0.000 C
ATOM     28   O  BGC C   2      21.180   2.682 -10.2720  0.00  0.00     0.000 O
ATOM     30  HD  BGC C   2      20.692   3.360 -10.4990  0.00  0.00     0.000 HD
BRANCH 17 30
ATOM     30  O4  BGC C   3      18.726  -0.699 -13.1310  0.00  0.00     0.000 O
BRANCH 30 34
ATOM     31  C1  BGC C   3      19.780  -4.208 -14.8390  0.00  0.00     0.000 C
ATOM     32  C2  BGC C   3      20.948  -3.257 -14.4830  0.00  0.00     0.000 C
ATOM     33  C3  BGC C   3      20.500  -2.175 -13.5630  0.00  0.00     0.000 C
ATOM     34  C4  BGC C   3      19.260  -1.512 -14.1660  0.00  0.00     0.000 C
ATOM     35  C5  BGC C   3      18.171  -2.518 -14.6210  0.00  0.00     0.000 C
ATOM     36  O5  BGC C   3      18.736  -3.496 -15.4570  0.00  0.00     0.000 O
ATOM     37   O  BGC C   3      22.116  -3.814 -13.9100  0.00  0.00     0.000 O
ATOM     39  HD  BGC C   3      21.565  -3.146 -13.9150  0.00  0.00     0.000 HD
ATOM     39   O  BGC C   3      21.572  -1.206 -13.3660  0.00  0.00     0.000 O
ATOM     41  HD  BGC C   3      21.020  -0.539 -13.3710  0.00  0.00     0.000 HD
ATOM     41   C  BGC C   3      16.988  -1.896 -15.3980  0.00  0.00     0.000 C
ATOM     42   O  BGC C   3      17.338  -1.288 -16.6920  0.00  0.00     0.000 O
ATOM     44  HD  BGC C   3      16.786  -0.620 -16.6970  0.00  0.00     0.000 HD
BRANCH 31 44
ATOM     44  O4  BGC C   4      20.202  -5.216 -15.6960  0.00  0.00     0.000 O
BRANCH 44 48
ATOM     45  C1  BGC C   4      19.660  -9.166 -16.6250  0.00  0.00     0.000 C
ATOM     46  C2  BGC C   4      18.296  -8.450 -16.3680  0.00  0.00     0.000 C
ATOM     47  C3  BGC C   4      18.710  -6.972 -16.3550  0.00  0.00     0.000 C
ATOM     48  C4  BGC C   4      19.860  -6.550 -15.4630  0.00  0.00     0.000 C
ATOM     49  C5  BGC C   4      21.070  -7.394 -15.8960  0.00  0.00     0.000 C
ATOM     50  O5  BGC C   4      20.782  -8.747 -15.8330  0.00  0.00     0.000 O
ATOM     51   O  BGC C   4      17.088  -8.585 -17.3130  0.00  0.00     0.000 O
ATOM     53  HD  BGC C   4      16.452  -8.038 -17.0960  0.00  0.00     0.000 HD
ATOM     53   O  BGC C   4      17.495  -6.372 -15.7030  0.00  0.00     0.000 O
ATOM     55  HD  BGC C   4      16.860  -5.825 -15.4860  0.00  0.00     0.000 HD
ATOM     55   C  BGC C   4      22.243  -7.186 -14.9720  0.00  0.00     0.000 C
ATOM     56   O  BGC C   4      21.993  -7.445 -13.5860  0.00  0.00     0.000 O
ATOM     58  HD  BGC C   4      21.357  -6.898 -13.3690  0.00  0.00     0.000 HD
BRANCH 45 58
ATOM     58  O4  BGC C   5      19.573 -10.548 -16.4390  0.00  0.00     0.000 O
BRANCH 58 62
ATOM     59  C1  BGC C   5      21.311 -13.002 -16.9930  0.00  0.00     0.000 C
ATOM     60  C2  BGC C   5      21.702 -11.998 -17.9590  0.00  0.00     0.000 C
ATOM     61  C3  BGC C   5      20.521 -11.282 -18.6110  0.00  0.00     0.000 C
ATOM     62  C4  BGC C   5      19.340 -11.306 -17.6520  0.00  0.00     0.000 C
ATOM     63  C5  BGC C   5      19.242 -12.707 -17.0950  0.00  0.00     0.000 C
ATOM     64  O5  BGC C   5      20.358 -13.579 -17.2580  0.00  0.00     0.000 O
ATOM     65   O  BGC C   5      18.051 -13.623 -18.9870  0.00  0.00     0.000 O
ATOM     67  HD  BGC C   5      17.997 -13.266 -18.1990  0.00  0.00     0.000 HD
ATOM     67   O  BGC C   5      18.051 -13.623 -18.9870  0.00  0.00     0.000 O
ATOM     69  HD  BGC C   5      17.997 -13.266 -18.1990  0.00  0.00     0.000 HD
ENDBRANCH 58 62
ENDBRANCH 45 58
ENDBRANCH 44 48
ENDBRANCH 31 44
ENDBRANCH 30 34
ENDBRANCH 17 30
ENDBRANCH 16 20
ENDBRANCH 1 16
TORSDOF 8
ENDMDL
MODEL 9
REMARK VINA RESULT:      -8.7      3.497     16.351
ROOT
ATOM      1  C1  BGC C   1      19.407  -8.148 -17.4000  0.00  0.00     0.000 C
ATOM      2  C2  BGC C   1      18.657  -9.408 -16.9680  0.00  0.00     0.000 C
ATOM      3  C3  BGC C   1      19.379 -10.648 -17.4820  0.00  0.00     0.000 C
ATOM      4  C4  BGC C   1      19.686 -10.559 -18.9680  0.00  0.00     0.000 C
ATOM      5  C5  BGC C   1      20.288  -9.197 -19.3020  0.00  0.00     0.000 C
ATOM      6  O5  BGC C   1      19.583  -8.124 -18.7640  0.00  0.00     0.000 O
ATOM      7   O  BGC C   1      18.617  -9.414 -15.5600  0.00  0.00     0.000 O
ATOM      9  HD  BGC C   1      18.105  -9.868 -16.0910  0.00  0.00     0.000 HD
ATOM      9   O  BGC C   1      18.575 -11.793 -17.1680  0.00  0.00     0.000 O
ATOM     11  HD  BGC C   1      18.062 -12.247 -17.6990  0.00  0.00     0.000 HD
ATOM     11   O  BGC C   1      20.600 -11.609 -19.2620  0.00  0.00     0.000 O
ATOM     13  HD  BGC C   1      20.088 -12.063 -19.7930  0.00  0.00     0.000 HD
ATOM     13   O  BGC C   1      18.976  -8.933 -21.3870  0.00  0.00     0.000 O
ATOM     15  HD  BGC C   1      18.464  -9.387 -21.9170  0.00  0.00     0.000 HD
ATOM     15   C  BGC C   1      20.317  -9.048 -20.8340  0.00  0.00     0.000 C
ENDROOT
BRANCH 1 16
ATOM     16  O4  BGC C   2      18.629  -7.024 -17.0650  0.00  0.00     0.000 O
BRANCH 16 20
ATOM     17  C1  BGC C   2      19.237  -3.151 -15.9210  0.00  0.00     0.000 C
ATOM     18  C2  BGC C   2      19.316  -3.423 -17.4150  0.00  0.00     0.000 C
ATOM     19  C3  BGC C   2      18.724  -4.785 -17.7480  0.00  0.00     0.000 C
ATOM     20  C4  BGC C   2      19.344  -5.826 -16.8780  0.00  0.00     0.000 C
ATOM     21  C5  BGC C   2      19.281  -5.421 -15.4080  0.00  0.00     0.000 C
ATOM     22  O5  BGC C   2      19.873  -4.173 -15.2080  0.00  0.00     0.000 O
ATOM     23   O  BGC C   2      18.611  -2.385 -18.1130  0.00  0.00     0.000 O
ATOM     25  HD  BGC C   2      18.159  -2.723 -18.7700  0.00  0.00     0.000 HD
ATOM     25   O  BGC C   2      18.980  -5.085 -19.1140  0.00  0.00     0.000 O
ATOM     27  HD  BGC C   2      18.528  -5.422 -19.7710  0.00  0.00     0.000 HD
ATOM     27   C  BGC C   2      19.918  -6.431 -14.4310  0.00  0.00     0.000 C
ATOM     28   O  BGC C   2      21.274  -6.728 -14.8010  0.00  0.00     0.000 O
ATOM     30  HD  BGC C   2      20.822  -7.066 -15.4580  0.00  0.00     0.000 HD
BRANCH 17 30
ATOM     30  O4  BGC C   3      19.887  -1.931 -15.6340  0.00  0.00     0.000 O
BRANCH 30 34
ATOM     31  C1  BGC C   3      19.706   1.209 -13.0960  0.00  0.00     0.000 C
ATOM     32  C2  BGC C   3      20.423  -0.051 -12.5540  0.00  0.00     0.000 C
ATOM     33  C3  BGC C   3      20.742  -1.004 -13.6540  0.00  0.00     0.000 C
ATOM     34  C4  BGC C   3      19.465  -1.256 -14.4590  0.00  0.00     0.000 C
ATOM     35  C5  BGC C   3      18.718   0.039 -14.8700  0.00  0.00     0.000 C
ATOM     36  O5  BGC C   3      18.510   0.855 -13.7440  0.00  0.00     0.000 O
ATOM     37   O  BGC C   3      21.616   0.121 -11.8130  0.00  0.00     0.000 O
ATOM     39  HD  BGC C   3      21.194  -0.361 -12.3960  0.00  0.00     0.000 HD
ATOM     39   O  BGC C   3      21.272  -2.246 -13.1060  0.00  0.00     0.000 O
ATOM     41  HD  BGC C   3      20.849  -2.728 -13.6880  0.00  0.00     0.000 HD
ATOM     41   C  BGC C   3      17.335  -0.180 -15.5240  0.00  0.00     0.000 C
ATOM     42   O  BGC C   3      16.321  -0.800 -14.6540  0.00  0.00     0.000 O
ATOM     44  HD  BGC C   3      15.898  -1.282 -15.2360  0.00  0.00     0.000 HD
BRANCH 31 44
ATOM     44  O4  BGC C   4      19.412   2.095 -12.0680  0.00  0.00     0.000 O
BRANCH 44 48
ATOM     45  C1  BGC C   4      19.316   6.054 -11.0290  0.00  0.00     0.000 C
ATOM     46  C2  BGC C   4      18.003   5.625 -11.7600  0.00  0.00     0.000 C
ATOM     47  C3  BGC C   4      18.127   4.096 -11.7660  0.00  0.00     0.000 C
ATOM     48  C4  BGC C   4      19.410   3.475 -12.2840  0.00  0.00     0.000 C
ATOM     49  C5  BGC C   4      20.544   4.055 -11.4250  0.00  0.00     0.000 C
ATOM     50  O5  BGC C   4      20.539   5.439 -11.4620  0.00  0.00     0.000 O
ATOM     51   O  BGC C   4      16.599   5.975 -11.2340  0.00  0.00     0.000 O
ATOM     53  HD  BGC C   4      15.981   5.568 -11.6840  0.00  0.00     0.000 HD
ATOM     53   O  BGC C   4      17.103   3.760 -12.8140  0.00  0.00     0.000 O
ATOM     55  HD  BGC C   4      16.484   3.353 -13.2640  0.00  0.00     0.000 HD
ATOM     55   C  BGC C   4      21.895   3.641 -11.9480  0.00  0.00     0.000 C
ATOM     56   O  BGC C   4      22.158   3.973 -13.3160  0.00  0.00     0.000 O
ATOM     58  HD  BGC C   4      21.540   3.567 -13.7660  0.00  0.00     0.000 HD
BRANCH 45 58
ATOM     58  O4  BGC C   5      19.543   7.429 -11.1170  0.00  0.00     0.000 O
BRANCH 58 62
ATOM     59  C1  BGC C   5      19.341  10.467 -11.4080  0.00  0.00     0.000 C
ATOM     60  C2  BGC C   5      20.386  10.218 -10.4400  0.00  0.00     0.000 C
ATOM     61  C3  BGC C   5      20.021   9.158  -9.4030  0.00  0.00     0.000 C
ATOM     62  C4  BGC C   5      19.008   8.200 -10.0130  0.00  0.00     0.000 C
ATOM     63  C5  BGC C   5      17.973   9.037 -10.7280  0.00  0.00     0.000 C
ATOM     64  O5  BGC C   5      18.275  10.406 -10.9930  0.00  0.00     0.000 O
ATOM     65   O  BGC C   5      16.683   9.545  -8.7490  0.00  0.00     0.000 O
ATOM     67  HD  BGC C   5      16.787   9.024  -9.4330  0.00  0.00     0.000 HD
ATOM     67   O  BGC C   5      16.683   9.545  -8.7490  0.00  0.00     0.000 O
ATOM     69  HD  BGC C   5      16.787   9.024  -9.4330  0.00  0.00     0.000 HD
ENDBRANCH 58 62
ENDBRANCH 45 58
ENDBRANCH 44 48
ENDBRANCH 31 44
ENDBRANCH 30 34
ENDBRANCH 17 30
ENDBRANCH 16 20
ENDBRANCH 1 16
TORSDOF 8
ENDMDL
MODEL 10
REMARK VINA RESULT:      -8.5      8.511     16.263
ROOT
ATOM      1  C1  BGC C   1      18.190 -15.254 -18.7210  0.00  0.00     0.000 C
ATOM      2  C2  BGC C   1      19.267 -14.246 -18.3250  0.00  0.00     0.000 C
ATOM      3  C3  BGC C   1      18.622 -12.999 -17.7320  0.00  0.00     0.000 C
ATOM      4  C4  BGC C   1      17.518 -12.446 -18.6180  0.00  0.00     0.000 C
ATOM      5  C5  BGC C   1      16.596 -13.573 -19.0770  0.00  0.00     0.000 C
ATOM      6  O5  BGC C   1      17.271 -14.685 -19.5730  0.00  0.00     0.000 O
ATOM      7   O  BGC C   1      20.097 -14.867 -17.3720  0.00  0.00     0.000 O
ATOM      9  HD  BGC C   1      20.291 -14.168 -17.8450  0.00  0.00     0.000 HD
ATOM      9   O  BGC C   1      19.655 -12.032 -17.4970  0.00  0.00     0.000 O
ATOM     11  HD  BGC C   1      19.849 -11.333 -17.9700  0.00  0.00     0.000 HD
ATOM     11   O  BGC C   1      16.808 -11.488 -17.8410  0.00  0.00     0.000 O
ATOM     13  HD  BGC C   1      17.002 -10.789 -18.3140  0.00  0.00     0.000 HD
ATOM     13   O  BGC C   1      16.422 -12.722 -21.3970  0.00  0.00     0.000 O
ATOM     15  HD  BGC C   1      16.617 -12.023 -21.8700  0.00  0.00     0.000 HD
ATOM     15   C  BGC C   1      15.679 -13.021 -20.1830  0.00  0.00     0.000 C
ENDROOT
BRANCH 1 16
ATOM     16  O4  BGC C   2      18.800 -16.312 -19.4220  0.00  0.00     0.000 O
BRANCH 16 20
ATOM     17  C1  BGC C   2      18.227 -20.313 -20.0060  0.00  0.00     0.000 C
ATOM     18  C2  BGC C   2      17.303 -19.389 -20.7830  0.00  0.00     0.000 C
ATOM     19  C3  BGC C   2      17.834 -17.963 -20.7750  0.00  0.00     0.000 C
ATOM     20  C4  BGC C   2      18.120 -17.544 -19.3720  0.00  0.00     0.000 C
ATOM     21  C5  BGC C   2      18.989 -18.575 -18.6580  0.00  0.00     0.000 C
ATOM     22  O5  BGC C   2      18.399 -19.840 -18.7010  0.00  0.00     0.000 O
ATOM     23   O  BGC C   2      17.187 -19.874 -22.1290  0.00  0.00     0.000 O
ATOM     25  HD  BGC C   2      17.196 -19.210 -22.6860  0.00  0.00     0.000 HD
ATOM     25   O  BGC C   2      16.860 -17.098 -21.3470  0.00  0.00     0.000 O
ATOM     27  HD  BGC C   2      16.869 -16.434 -21.9040  0.00  0.00     0.000 HD
ATOM     27   C  BGC C   2      19.321 -18.235 -17.1910  0.00  0.00     0.000 C
ATOM     28   O  BGC C   2      18.127 -17.988 -16.4310  0.00  0.00     0.000 O
ATOM     30  HD  BGC C   2      18.136 -17.324 -16.9870  0.00  0.00     0.000 HD
BRANCH 17 30
ATOM     30  O4  BGC C   3      17.653 -21.601 -19.9440  0.00  0.00     0.000 O
BRANCH 30 34
ATOM     31  C1  BGC C   3      18.621 -25.515 -20.2380  0.00  0.00     0.000 C
ATOM     32  C2  BGC C   3      19.374 -24.717 -19.1470  0.00  0.00     0.000 C
ATOM     33  C3  BGC C   3      18.715 -23.408 -18.8850  0.00  0.00     0.000 C
ATOM     34  C4  BGC C   3      18.521 -22.689 -20.2230  0.00  0.00     0.000 C
ATOM     35  C5  BGC C   3      17.875 -23.574 -21.3200  0.00  0.00     0.000 C
ATOM     36  O5  BGC C   3      18.578 -24.785 -21.4400  0.00  0.00     0.000 O
ATOM     37   O  BGC C   3      19.570 -25.327 -17.8840  0.00  0.00     0.000 O
ATOM     39  HD  BGC C   3      19.396 -24.593 -18.3100  0.00  0.00     0.000 HD
ATOM     39   O  BGC C   3      19.524 -22.610 -17.9720  0.00  0.00     0.000 O
ATOM     41  HD  BGC C   3      19.349 -21.876 -18.3970  0.00  0.00     0.000 HD
ATOM     41   C  BGC C   3      17.832 -22.942 -22.7300  0.00  0.00     0.000 C
ATOM     42   O  BGC C   3      19.146 -22.685 -23.3430  0.00  0.00     0.000 O
ATOM     44  HD  BGC C   3      18.971 -21.951 -23.7690  0.00  0.00     0.000 HD
BRANCH 31 44
ATOM     44  O4  BGC C   4      19.237 -26.736 -20.4780  0.00  0.00     0.000 O
BRANCH 44 48
ATOM     45  C1  BGC C   4      18.843 -30.281 -22.4860  0.00  0.00     0.000 C
ATOM     46  C2  BGC C   4      19.622 -29.228 -23.3380  0.00  0.00     0.000 C
ATOM     47  C3  BGC C   4      19.915 -28.135 -22.3020  0.00  0.00     0.000 C
ATOM     48  C4  BGC C   4      18.767 -27.598 -21.4700  0.00  0.00     0.000 C
ATOM     49  C5  BGC C   4      18.160 -28.810 -20.7450  0.00  0.00     0.000 C
ATOM     50  O5  BGC C   4      17.786 -29.793 -21.6460  0.00  0.00     0.000 O
ATOM     51   O  BGC C   4      20.943 -29.549 -24.0610  0.00  0.00     0.000 O
ATOM     53  HD  BGC C   4      21.306 -28.834 -24.3890  0.00  0.00     0.000 HD
ATOM     53   O  BGC C   4      20.269 -26.999 -23.2220  0.00  0.00     0.000 O
ATOM     55  HD  BGC C   4      20.633 -26.285 -23.5500  0.00  0.00     0.000 HD
ATOM     55   C  BGC C   4      16.900 -28.435 -20.0090  0.00  0.00     0.000 C
ATOM     56   O  BGC C   4      15.873 -27.833 -20.8050  0.00  0.00     0.000 O
ATOM     58  HD  BGC C   4      16.237 -27.118 -21.1330  0.00  0.00     0.000 HD
BRANCH 45 58
ATOM     58  O4  BGC C   5      18.257 -31.271 -23.2790  0.00  0.00     0.000 O
BRANCH 58 62
ATOM     59  C1  BGC C   5      17.007 -33.186 -25.3090  0.00  0.00     0.000 C
ATOM     60  C2  BGC C   5      17.606 -32.114 -26.0730  0.00  0.00     0.000 C
ATOM     61  C3  BGC C   5      17.319 -30.725 -25.5100  0.00  0.00     0.000 C
ATOM     62  C4  BGC C   5      17.083 -30.840 -24.0110  0.00  0.00     0.000 C
ATOM     63  C5  BGC C   5      16.164 -32.019 -23.7900  0.00  0.00     0.000 C
ATOM     64  O5  BGC C   5      15.981 -32.944 -24.8610  0.00  0.00     0.000 O
ATOM     65   O  BGC C   5      14.126 -30.816 -24.2760  0.00  0.00     0.000 O
ATOM     67  HD  BGC C   5      14.681 -31.087 -23.6690  0.00  0.00     0.000 HD
ATOM     67   O  BGC C   5      14.126 -30.816 -24.2760  0.00  0.00     0.000 O
ATOM     69  HD  BGC C   5      14.681 -31.087 -23.6690  0.00  0.00     0.000 HD
ENDBRANCH 58 62
ENDBRANCH 45 58
ENDBRANCH 44 48
ENDBRANCH 31 44
ENDBRANCH 30 34
ENDBRANCH 17 30
ENDBRANCH 16 20
ENDBRANCH 1 16
TORSDOF 8
ENDMDL
MODEL 11
REMARK VINA RESULT:      -8.4      2.628     15.344
ROOT
ATOM      1  C1  BGC C   1      19.535 -10.033 -18.5760  0.00  0.00     0.000 C
ATOM      2  C2  BGC C   1      18.758 -11.315 -18.2810  0.00  0.00     0.000 C
ATOM      3  C3  BGC C   1      19.512 -12.521 -18.8290  0.00  0.00     0.000 C
ATOM      4  C4  BGC C   1      19.918 -12.333 -20.2810  0.00  0.00     0.000 C
ATOM      5  C5  BGC C   1      20.542 -10.955 -20.4820  0.00  0.00     0.000 C
ATOM      6  O5  BGC C   1      19.802  -9.917 -19.9210  0.00  0.00     0.000 O
ATOM      7   O  BGC C   1      18.624 -11.416 -16.8830  0.00  0.00     0.000 O
ATOM      9  HD  BGC C   1      18.148 -11.830 -17.4760  0.00  0.00     0.000 HD
ATOM      9   O  BGC C   1      18.688 -13.680 -18.6470  0.00  0.00     0.000 O
ATOM     11  HD  BGC C   1      18.212 -14.095 -19.2400  0.00  0.00     0.000 HD
ATOM     11   O  BGC C   1      20.849 -13.366 -20.5840  0.00  0.00     0.000 O
ATOM     13  HD  BGC C   1      20.374 -13.781 -21.1780  0.00  0.00     0.000 HD
ATOM     13   O  BGC C   1      19.372 -10.545 -22.6270  0.00  0.00     0.000 O
ATOM     15  HD  BGC C   1      18.896 -10.960 -23.2200  0.00  0.00     0.000 HD
ATOM     15   C  BGC C   1      20.672 -10.703 -21.9950  0.00  0.00     0.000 C
ENDROOT
BRANCH 1 16
ATOM     16  O4  BGC C   2      18.737  -8.929 -18.2190  0.00  0.00     0.000 O
BRANCH 16 20
ATOM     17  C1  BGC C   2      19.307  -5.176 -16.7150  0.00  0.00     0.000 C
ATOM     18  C2  BGC C   2      19.360  -5.300 -18.2300  0.00  0.00     0.000 C
ATOM     19  C3  BGC C   2      18.782  -6.634 -18.6820  0.00  0.00     0.000 C
ATOM     20  C4  BGC C   2      19.437  -7.743 -17.9290  0.00  0.00     0.000 C
ATOM     21  C5  BGC C   2      19.397  -7.484 -16.4260  0.00  0.00     0.000 C
ATOM     22  O5  BGC C   2      19.974  -6.251 -16.1180  0.00  0.00     0.000 O
ATOM     23   O  BGC C   2      18.625  -4.212 -18.8100  0.00  0.00     0.000 O
ATOM     25  HD  BGC C   2      18.165  -4.493 -19.4880  0.00  0.00     0.000 HD
ATOM     25   O  BGC C   2      19.015  -6.795 -20.0760  0.00  0.00     0.000 O
ATOM     27  HD  BGC C   2      18.555  -7.075 -20.7540  0.00  0.00     0.000 HD
ATOM     27   C  BGC C   2      20.070  -8.572 -15.5650  0.00  0.00     0.000 C
ATOM     28   O  BGC C   2      21.423  -8.808 -15.9880  0.00  0.00     0.000 O
ATOM     30  HD  BGC C   2      20.963  -9.088 -16.6660  0.00  0.00     0.000 HD
BRANCH 17 30
ATOM     30  O4  BGC C   3      19.944  -3.978 -16.3240  0.00  0.00     0.000 O
BRANCH 30 34
ATOM     31  C1  BGC C   3      19.725  -1.038 -13.5590  0.00  0.00     0.000 C
ATOM     32  C2  BGC C   3      20.312  -2.381 -13.0650  0.00  0.00     0.000 C
ATOM     33  C3  BGC C   3      20.670  -3.266 -14.2080  0.00  0.00     0.000 C
ATOM     34  C4  BGC C   3      19.459  -3.368 -15.1370  0.00  0.00     0.000 C
ATOM     35  C5  BGC C   3      18.832  -1.998 -15.5020  0.00  0.00     0.000 C
ATOM     36  O5  BGC C   3      18.572  -1.259 -14.3350  0.00  0.00     0.000 O
ATOM     37   O  BGC C   3      21.441  -2.348 -12.2130  0.00  0.00     0.000 O
ATOM     39  HD  BGC C   3      21.045  -2.753 -12.8670  0.00  0.00     0.000 HD
ATOM     39   O  BGC C   3      21.073  -4.580 -13.7210  0.00  0.00     0.000 O
ATOM     41  HD  BGC C   3      20.676  -4.986 -14.3760  0.00  0.00     0.000 HD
ATOM     41   C  BGC C   3      17.503  -2.073 -16.2870  0.00  0.00     0.000 C
ATOM     42   O  BGC C   3      16.379  -2.688 -15.5610  0.00  0.00     0.000 O
ATOM     44  HD  BGC C   3      15.982  -3.093 -16.2150  0.00  0.00     0.000 HD
BRANCH 31 44
ATOM     44  O4  BGC C   4      19.393  -0.215 -12.4910  0.00  0.00     0.000 O
BRANCH 44 48
ATOM     45  C1  BGC C   4      19.383   3.648 -11.1370  0.00  0.00     0.000 C
ATOM     46  C2  BGC C   4      18.198   3.387 -12.1200  0.00  0.00     0.000 C
ATOM     47  C3  BGC C   4      18.216   1.857 -12.2400  0.00  0.00     0.000 C
ATOM     48  C4  BGC C   4      19.525   1.172 -12.5810  0.00  0.00     0.000 C
ATOM     49  C5  BGC C   4      20.523   1.589 -11.4890  0.00  0.00     0.000 C
ATOM     50  O5  BGC C   4      20.620   2.968 -11.4030  0.00  0.00     0.000 O
ATOM     51   O  BGC C   4      16.749   3.812 -11.8170  0.00  0.00     0.000 O
ATOM     53  HD  BGC C   4      16.196   3.494 -12.4030  0.00  0.00     0.000 HD
ATOM     53   O  BGC C   4      17.376   1.688 -13.4760  0.00  0.00     0.000 O
ATOM     55  HD  BGC C   4      16.823   1.369 -14.0620  0.00  0.00     0.000 HD
ATOM     55   C  BGC C   4      21.914   1.105 -11.8030  0.00  0.00     0.000 C
ATOM     56   O  BGC C   4      22.442   1.515 -13.0700  0.00  0.00     0.000 O
ATOM     58  HD  BGC C   4      21.889   1.197 -13.6550  0.00  0.00     0.000 HD
BRANCH 45 58
ATOM     58  O4  BGC C   5      19.717   5.003 -11.0620  0.00  0.00     0.000 O
BRANCH 58 62
ATOM     59  C1  BGC C   5      20.193   8.020 -10.9140  0.00  0.00     0.000 C
ATOM     60  C2  BGC C   5      18.982   7.760 -10.1670  0.00  0.00     0.000 C
ATOM     61  C3  BGC C   5      18.022   6.804 -10.8700  0.00  0.00     0.000 C
ATOM     62  C4  BGC C   5      18.821   5.885 -11.7820  0.00  0.00     0.000 C
ATOM     63  C5  BGC C   5      19.813   6.746 -12.5300  0.00  0.00     0.000 C
ATOM     64  O5  BGC C   5      20.058   8.066 -12.0500  0.00  0.00     0.000 O
ATOM     65   O  BGC C   5      18.250   7.482 -14.2180  0.00  0.00     0.000 O
ATOM     67  HD  BGC C   5      18.860   6.909 -13.9950  0.00  0.00     0.000 HD
ATOM     67   O  BGC C   5      18.250   7.482 -14.2180  0.00  0.00     0.000 O
ATOM     69  HD  BGC C   5      18.860   6.909 -13.9950  0.00  0.00     0.000 HD
ENDBRANCH 58 62
ENDBRANCH 45 58
ENDBRANCH 44 48
ENDBRANCH 31 44
ENDBRANCH 30 34
ENDBRANCH 17 30
ENDBRANCH 16 20
ENDBRANCH 1 16
TORSDOF 8
ENDMDL
MODEL 12
REMARK VINA RESULT:      -8.3      4.932     11.040
ROOT
ATOM      1  C1  BGC C   1      19.774 -10.304 -16.9470  0.00  0.00     0.000 C
ATOM      2  C2  BGC C   1      21.024  -9.474 -17.2390  0.00  0.00     0.000 C
ATOM      3  C3  BGC C   1      21.318  -8.544 -16.0690  0.00  0.00     0.000 C
ATOM      4  C4  BGC C   1      20.096  -7.743 -15.6490  0.00  0.00     0.000 C
ATOM      5  C5  BGC C   1      18.878  -8.656 -15.5420  0.00  0.00     0.000 C
ATOM      6  O5  BGC C   1      18.705  -9.494 -16.6400  0.00  0.00     0.000 O
ATOM      7   O  BGC C   1      22.092 -10.371 -17.4310  0.00  0.00     0.000 O
ATOM      9  HD  BGC C   1      22.064  -9.543 -17.6840  0.00  0.00     0.000 HD
ATOM      9   O  BGC C   1      22.414  -7.696 -16.4390  0.00  0.00     0.000 O
ATOM     11  HD  BGC C   1      22.386  -6.868 -16.6910  0.00  0.00     0.000 HD
ATOM     11   O  BGC C   1      20.404  -7.150 -14.3930  0.00  0.00     0.000 O
ATOM     13  HD  BGC C   1      20.376  -6.322 -14.6450  0.00  0.00     0.000 HD
ATOM     13   O  BGC C   1      17.348  -7.033 -16.6200  0.00  0.00     0.000 O
ATOM     15  HD  BGC C   1      17.320  -6.205 -16.8730  0.00  0.00     0.000 HD
ATOM     15   C  BGC C   1      17.626  -7.771 -15.3980  0.00  0.00     0.000 C
ENDROOT
BRANCH 1 16
ATOM     16  O4  BGC C   2      19.428 -11.021 -18.1090  0.00  0.00     0.000 O
BRANCH 16 20
ATOM     17  C1  BGC C   2      17.872 -14.663 -19.1020  0.00  0.00     0.000 C
ATOM     18  C2  BGC C   2      16.892 -13.659 -18.5170  0.00  0.00     0.000 C
ATOM     19  C3  BGC C   2      17.484 -12.257 -18.5300  0.00  0.00     0.000 C
ATOM     20  C4  BGC C   2      18.831 -12.277 -17.8910  0.00  0.00     0.000 C
ATOM     21  C5  BGC C   2      19.709 -13.368 -18.4960  0.00  0.00     0.000 C
ATOM     22  O5  BGC C   2      19.087 -14.614 -18.4090  0.00  0.00     0.000 O
ATOM     23   O  BGC C   2      15.677 -13.698 -19.2810  0.00  0.00     0.000 O
ATOM     25  HD  BGC C   2      15.372 -12.896 -19.3960  0.00  0.00     0.000 HD
ATOM     25   O  BGC C   2      16.623 -11.380 -17.8130  0.00  0.00     0.000 O
ATOM     27  HD  BGC C   2      16.318 -10.577 -17.9280  0.00  0.00     0.000 HD
ATOM     27   C  BGC C   2      21.120 -13.477 -17.8820  0.00  0.00     0.000 C
ATOM     28   O  BGC C   2      21.055 -13.633 -16.4550  0.00  0.00     0.000 O
ATOM     30  HD  BGC C   2      20.751 -12.831 -16.5700  0.00  0.00     0.000 HD
BRANCH 17 30
ATOM     30  O4  BGC C   3      17.337 -15.963 -18.9780  0.00  0.00     0.000 O
BRANCH 30 34
ATOM     31  C1  BGC C   3      18.119 -19.758 -20.1280  0.00  0.00     0.000 C
ATOM     32  C2  BGC C   3      18.703 -19.339 -18.7580  0.00  0.00     0.000 C
ATOM     33  C3  BGC C   3      18.083 -18.075 -18.2720  0.00  0.00     0.000 C
ATOM     34  C4  BGC C   3      18.178 -17.031 -19.3870  0.00  0.00     0.000 C
ATOM     35  C5  BGC C   3      17.696 -17.544 -20.7680  0.00  0.00     0.000 C
ATOM     36  O5  BGC C   3      18.339 -18.753 -21.0870  0.00  0.00     0.000 O
ATOM     37   O  BGC C   3      18.630 -20.260 -17.6860  0.00  0.00     0.000 O
ATOM     39  HD  BGC C   3      18.578 -19.430 -17.9270  0.00  0.00     0.000 HD
ATOM     39   O  BGC C   3      18.755 -17.616 -17.0630  0.00  0.00     0.000 O
ATOM     41  HD  BGC C   3      18.703 -16.786 -17.3030  0.00  0.00     0.000 HD
ATOM     41   C  BGC C   3      17.948 -16.580 -21.9510  0.00  0.00     0.000 C
ATOM     42   O  BGC C   3      19.364 -16.314 -22.2520  0.00  0.00     0.000 O
ATOM     44  HD  BGC C   3      19.312 -15.484 -22.4930  0.00  0.00     0.000 HD
BRANCH 31 44
ATOM     44  O4  BGC C   4      18.699 -20.938 -20.5770  0.00  0.00     0.000 O
BRANCH 44 48
ATOM     45  C1  BGC C   4      18.034 -24.332 -22.7670  0.00  0.00     0.000 C
ATOM     46  C2  BGC C   4      17.634 -23.051 -23.5670  0.00  0.00     0.000 C
ATOM     47  C3  BGC C   4      18.245 -21.936 -22.7080  0.00  0.00     0.000 C
ATOM     48  C4  BGC C   4      17.939 -21.915 -21.2230  0.00  0.00     0.000 C
ATOM     49  C5  BGC C   4      18.407 -23.270 -20.6700  0.00  0.00     0.000 C
ATOM     50  O5  BGC C   4      17.808 -24.318 -21.3500  0.00  0.00     0.000 O
ATOM     51   O  BGC C   4      18.066 -22.804 -25.0240  0.00  0.00     0.000 O
ATOM     53  HD  BGC C   4      17.864 -22.003 -25.2830  0.00  0.00     0.000 HD
ATOM     53   O  BGC C   4      17.498 -20.752 -23.2570  0.00  0.00     0.000 O
ATOM     55  HD  BGC C   4      17.296 -19.950 -23.5160  0.00  0.00     0.000 HD
ATOM     55   C  BGC C   4      18.008 -23.442 -19.2280  0.00  0.00     0.000 C
ATOM     56   O  BGC C   4      16.609 -23.307 -18.9520  0.00  0.00     0.000 O
ATOM     58  HD  BGC C   4      16.407 -22.506 -19.2110  0.00  0.00     0.000 HD
BRANCH 45 58
ATOM     58  O4  BGC C   5      17.377 -25.472 -23.2350  0.00  0.00     0.000 O
BRANCH 58 62
ATOM     59  C1  BGC C   5      18.242 -27.942 -24.8170  0.00  0.00     0.000 C
ATOM     60  C2  BGC C   5      16.925 -28.232 -24.2940  0.00  0.00     0.000 C
ATOM     61  C3  BGC C   5      16.745 -27.837 -22.8310  0.00  0.00     0.000 C
ATOM     62  C4  BGC C   5      17.690 -26.687 -22.5110  0.00  0.00     0.000 C
ATOM     63  C5  BGC C   5      19.035 -27.033 -23.1070  0.00  0.00     0.000 C
ATOM     64  O5  BGC C   5      19.098 -28.084 -24.0690  0.00  0.00     0.000 O
ATOM     65   O  BGC C   5      19.735 -28.453 -21.2820  0.00  0.00     0.000 O
ATOM     67  HD  BGC C   5      19.745 -27.659 -21.6280  0.00  0.00     0.000 HD
ATOM     67   O  BGC C   5      19.735 -28.453 -21.2820  0.00  0.00     0.000 O
ATOM     69  HD  BGC C   5      19.745 -27.659 -21.6280  0.00  0.00     0.000 HD
ENDBRANCH 58 62
ENDBRANCH 45 58
ENDBRANCH 44 48
ENDBRANCH 31 44
ENDBRANCH 30 34
ENDBRANCH 17 30
ENDBRANCH 16 20
ENDBRANCH 1 16
TORSDOF 8
ENDMDL
MODEL 13
REMARK VINA RESULT:      -8.3      1.971      3.975
ROOT
ATOM      1  C1  BGC C   1      19.363  -1.962 -14.1580  0.00  0.00     0.000 C
ATOM      2  C2  BGC C   1      20.209  -1.285 -13.0800  0.00  0.00     0.000 C
ATOM      3  C3  BGC C   1      19.376  -0.246 -12.3390  0.00  0.00     0.000 C
ATOM      4  C4  BGC C   1      18.663   0.703 -13.2890  0.00  0.00     0.000 C
ATOM      5  C5  BGC C   1      17.986  -0.082 -14.4090  0.00  0.00     0.000 C
ATOM      6  O5  BGC C   1      18.810  -1.031 -15.0080  0.00  0.00     0.000 O
ATOM      7   O  BGC C   1      20.642  -2.288 -12.1920  0.00  0.00     0.000 O
ATOM      9  HD  BGC C   1      20.986  -1.498 -12.2840  0.00  0.00     0.000 HD
ATOM      9   O  BGC C   1      20.240   0.452 -11.4320  0.00  0.00     0.000 O
ATOM     11  HD  BGC C   1      20.584   1.241 -11.5240  0.00  0.00     0.000 HD
ATOM     11   O  BGC C   1      17.706   1.418 -12.5140  0.00  0.00     0.000 O
ATOM     13  HD  BGC C   1      18.050   2.207 -12.6060  0.00  0.00     0.000 HD
ATOM     13   O  BGC C   1      18.658   1.522 -16.1740  0.00  0.00     0.000 O
ATOM     15  HD  BGC C   1      19.002   2.311 -16.2660  0.00  0.00     0.000 HD
ATOM     15   C  BGC C   1      17.527   0.919 -15.4860  0.00  0.00     0.000 C
ENDROOT
BRANCH 1 16
ATOM     16  O4  BGC C   2      20.200  -2.784 -14.9370  0.00  0.00     0.000 O
BRANCH 16 20
ATOM     17  C1  BGC C   2      19.820  -5.938 -17.5040  0.00  0.00     0.000 C
ATOM     18  C2  BGC C   2      19.545  -4.564 -18.0940  0.00  0.00     0.000 C
ATOM     19  C3  BGC C   2      20.063  -3.467 -17.1740  0.00  0.00     0.000 C
ATOM     20  C4  BGC C   2      19.538  -3.684 -15.7940  0.00  0.00     0.000 C
ATOM     21  C5  BGC C   2      19.797  -5.113 -15.3270  0.00  0.00     0.000 C
ATOM     22  O5  BGC C   2      19.260  -6.037 -16.2260  0.00  0.00     0.000 O
ATOM     23   O  BGC C   2      20.175  -4.477 -19.3810  0.00  0.00     0.000 O
ATOM     25  HD  BGC C   2      20.532  -3.695 -19.4850  0.00  0.00     0.000 HD
ATOM     25   O  BGC C   2      19.628  -2.204 -17.6610  0.00  0.00     0.000 O
ATOM     27  HD  BGC C   2      19.985  -1.422 -17.7650  0.00  0.00     0.000 HD
ATOM     27   C  BGC C   2      19.270  -5.437 -13.9140  0.00  0.00     0.000 C
ATOM     28   O  BGC C   2      17.872  -5.127 -13.7960  0.00  0.00     0.000 O
ATOM     30  HD  BGC C   2      18.230  -4.345 -13.9000  0.00  0.00     0.000 HD
BRANCH 17 30
ATOM     30  O4  BGC C   3      19.237  -6.924 -18.3280  0.00  0.00     0.000 O
BRANCH 30 34
ATOM     31  C1  BGC C   3      19.177 -10.933 -18.8400  0.00  0.00     0.000 C
ATOM     32  C2  BGC C   3      18.163 -10.372 -17.8150  0.00  0.00     0.000 C
ATOM     33  C3  BGC C   3      18.020  -8.896 -17.9500  0.00  0.00     0.000 C
ATOM     34  C4  BGC C   3      19.416  -8.271 -17.9180  0.00  0.00     0.000 C
ATOM     35  C5  BGC C   3      20.429  -8.952 -18.8740  0.00  0.00     0.000 C
ATOM     36  O5  BGC C   3      20.440 -10.341 -18.6580  0.00  0.00     0.000 O
ATOM     37   O  BGC C   3      16.851 -10.904 -17.8080  0.00  0.00     0.000 O
ATOM     39  HD  BGC C   3      17.341 -10.195 -17.7220  0.00  0.00     0.000 HD
ATOM     39   O  BGC C   3      17.183  -8.370 -16.8780  0.00  0.00     0.000 O
ATOM     41  HD  BGC C   3      17.673  -7.662 -16.7920  0.00  0.00     0.000 HD
ATOM     41   C  BGC C   3      21.890  -8.468 -18.7350  0.00  0.00     0.000 C
ATOM     42   O  BGC C   3      22.525  -8.754 -17.4380  0.00  0.00     0.000 O
ATOM     44  HD  BGC C   3      23.015  -8.045 -17.3520  0.00  0.00     0.000 HD
BRANCH 31 44
ATOM     44  O4  BGC C   4      19.306 -12.309 -18.7110  0.00  0.00     0.000 O
BRANCH 44 48
ATOM     45  C1  BGC C   4      19.386 -15.848 -20.7690  0.00  0.00     0.000 C
ATOM     46  C2  BGC C   4      20.775 -15.134 -20.8100  0.00  0.00     0.000 C
ATOM     47  C3  BGC C   4      20.601 -14.038 -19.7510  0.00  0.00     0.000 C
ATOM     48  C4  BGC C   4      19.387 -13.134 -19.8360  0.00  0.00     0.000 C
ATOM     49  C5  BGC C   4      18.160 -14.059 -19.7890  0.00  0.00     0.000 C
ATOM     50  O5  BGC C   4      18.218 -15.013 -20.7910  0.00  0.00     0.000 O
ATOM     51   O  BGC C   4      22.099 -15.861 -20.5140  0.00  0.00     0.000 O
ATOM     53  HD  BGC C   4      22.761 -15.305 -20.4630  0.00  0.00     0.000 HD
ATOM     53   O  BGC C   4      21.754 -13.144 -20.1160  0.00  0.00     0.000 O
ATOM     55  HD  BGC C   4      22.417 -12.589 -20.0650  0.00  0.00     0.000 HD
ATOM     55   C  BGC C   4      16.885 -13.294 -20.0310  0.00  0.00     0.000 C
ATOM     56   O  BGC C   4      16.834 -12.547 -21.2530  0.00  0.00     0.000 O
ATOM     58  HD  BGC C   4      17.496 -11.992 -21.2020  0.00  0.00     0.000 HD
BRANCH 45 58
ATOM     58  O4  BGC C   5      19.221 -16.742 -21.8290  0.00  0.00     0.000 O
BRANCH 58 62
ATOM     59  C1  BGC C   5      19.169 -19.698 -22.6080  0.00  0.00     0.000 C
ATOM     60  C2  BGC C   5      18.534 -18.979 -23.6910  0.00  0.00     0.000 C
ATOM     61  C3  BGC C   5      17.540 -17.920 -23.2230  0.00  0.00     0.000 C
ATOM     62  C4  BGC C   5      17.949 -17.436 -21.8400  0.00  0.00     0.000 C
ATOM     63  C5  BGC C   5      18.289 -18.659 -21.0200  0.00  0.00     0.000 C
ATOM     64  O5  BGC C   5      18.498 -19.895 -21.7020  0.00  0.00     0.000 O
ATOM     65   O  BGC C   5      16.004 -19.188 -20.4390  0.00  0.00     0.000 O
ATOM     67  HD  BGC C   5      16.736 -18.785 -20.2100  0.00  0.00     0.000 HD
ATOM     67   O  BGC C   5      16.004 -19.188 -20.4390  0.00  0.00     0.000 O
ATOM     69  HD  BGC C   5      16.736 -18.785 -20.2100  0.00  0.00     0.000 HD
ENDBRANCH 58 62
ENDBRANCH 45 58
ENDBRANCH 44 48
ENDBRANCH 31 44
ENDBRANCH 30 34
ENDBRANCH 17 30
ENDBRANCH 16 20
ENDBRANCH 1 16
TORSDOF 8
ENDMDL
MODEL 14
REMARK VINA RESULT:      -8.2      3.340      6.755
ROOT
ATOM      1  C1  BGC C   1      21.572  -5.873 -15.9760  0.00  0.00     0.000 C
ATOM      2  C2  BGC C   1      22.002  -4.528 -16.5590  0.00  0.00     0.000 C
ATOM      3  C3  BGC C   1      22.635  -3.667 -15.4720  0.00  0.00     0.000 C
ATOM      4  C4  BGC C   1      21.766  -3.582 -14.2280  0.00  0.00     0.000 C
ATOM      5  C5  BGC C   1      21.270  -4.970 -13.8350  0.00  0.00     0.000 C
ATOM      6  O5  BGC C   1      20.738  -5.698 -14.8950  0.00  0.00     0.000 O
ATOM      7   O  BGC C   1      22.935  -4.789 -17.5800  0.00  0.00     0.000 O
ATOM      9  HD  BGC C   1      22.486  -4.057 -17.4700  0.00  0.00     0.000 HD
ATOM      9   O  BGC C   1      22.902  -2.373 -16.0290  0.00  0.00     0.000 O
ATOM     11  HD  BGC C   1      22.453  -1.641 -15.9180  0.00  0.00     0.000 HD
ATOM     11   O  BGC C   1      22.573  -3.016 -13.2010  0.00  0.00     0.000 O
ATOM     13  HD  BGC C   1      22.123  -2.284 -13.0900  0.00  0.00     0.000 HD
ATOM     13   O  BGC C   1      18.978  -4.192 -13.3040  0.00  0.00     0.000 O
ATOM     15  HD  BGC C   1      18.529  -3.460 -13.1930  0.00  0.00     0.000 HD
ATOM     15   C  BGC C   1      20.181  -4.803 -12.7590  0.00  0.00     0.000 C
ENDROOT
BRANCH 1 16
ATOM     16  O4  BGC C   2      20.837  -6.572 -16.9540  0.00  0.00     0.000 O
BRANCH 16 20
ATOM     17  C1  BGC C   2      19.502 -10.400 -17.4440  0.00  0.00     0.000 C
ATOM     18  C2  BGC C   2      18.492  -9.411 -16.8840  0.00  0.00     0.000 C
ATOM     19  C3  BGC C   2      18.970  -7.980 -17.0870  0.00  0.00     0.000 C
ATOM     20  C4  BGC C   2      20.358  -7.837 -16.5620  0.00  0.00     0.000 C
ATOM     21  C5  BGC C   2      21.272  -8.922 -17.1250  0.00  0.00     0.000 C
ATOM     22  O5  BGC C   2      20.757 -10.193 -16.8620  0.00  0.00     0.000 O
ATOM     23   O  BGC C   2      17.231  -9.616 -17.5380  0.00  0.00     0.000 O
ATOM     25  HD  BGC C   2      16.856  -8.854 -17.7080  0.00  0.00     0.000 HD
ATOM     25   O  BGC C   2      18.099  -7.094 -16.3940  0.00  0.00     0.000 O
ATOM     27  HD  BGC C   2      17.724  -6.332 -16.5630  0.00  0.00     0.000 HD
ATOM     27   C  BGC C   2      22.729  -8.866 -16.6210  0.00  0.00     0.000 C
ATOM     28   O  BGC C   2      22.783  -8.873 -15.1850  0.00  0.00     0.000 O
ATOM     30  HD  BGC C   2      22.409  -8.111 -15.3550  0.00  0.00     0.000 HD
BRANCH 17 30
ATOM     30  O4  BGC C   3      19.081 -11.714 -17.1470  0.00  0.00     0.000 O
BRANCH 30 34
ATOM     31  C1  BGC C   3      19.295 -15.502 -18.5420  0.00  0.00     0.000 C
ATOM     32  C2  BGC C   3      20.598 -14.939 -17.9240  0.00  0.00     0.000 C
ATOM     33  C3  BGC C   3      20.332 -13.701 -17.1410  0.00  0.00     0.000 C
ATOM     34  C4  BGC C   3      19.539 -12.733 -18.0220  0.00  0.00     0.000 C
ATOM     35  C5  BGC C   3      18.313 -13.381 -18.7170  0.00  0.00     0.000 C
ATOM     36  O5  BGC C   3      18.702 -14.551 -19.3920  0.00  0.00     0.000 O
ATOM     37   O  BGC C   3      21.366 -15.786 -17.0890  0.00  0.00     0.000 O
ATOM     39  HD  BGC C   3      21.075 -14.982 -17.2280  0.00  0.00     0.000 HD
ATOM     39   O  BGC C   3      21.587 -13.104 -16.7010  0.00  0.00     0.000 O
ATOM     41  HD  BGC C   3      21.297 -12.300 -16.8390  0.00  0.00     0.000 HD
ATOM     41   C  BGC C   3      17.598 -12.486 -19.7540  0.00  0.00     0.000 C
ATOM     42   O  BGC C   3      18.403 -12.124 -20.9320  0.00  0.00     0.000 O
ATOM     44  HD  BGC C   3      18.113 -11.320 -21.0700  0.00  0.00     0.000 HD
BRANCH 31 44
ATOM     44  O4  BGC C   4      19.548 -16.657 -19.2700  0.00  0.00     0.000 O
BRANCH 44 48
ATOM     45  C1  BGC C   4      18.108 -20.372 -20.2130  0.00  0.00     0.000 C
ATOM     46  C2  BGC C   4      17.452 -19.265 -21.0990  0.00  0.00     0.000 C
ATOM     47  C3  BGC C   4      18.341 -18.051 -20.8010  0.00  0.00     0.000 C
ATOM     48  C4  BGC C   4      18.598 -17.678 -19.3550  0.00  0.00     0.000 C
ATOM     49  C5  BGC C   4      19.227 -18.917 -18.6980  0.00  0.00     0.000 C
ATOM     50  O5  BGC C   4      18.415 -20.028 -18.8530  0.00  0.00     0.000 O
ATOM     51   O  BGC C   4      17.324 -19.384 -22.6280  0.00  0.00     0.000 O
ATOM     53  HD  BGC C   4      17.046 -18.644 -22.9820  0.00  0.00     0.000 HD
ATOM     53   O  BGC C   4      17.452 -16.951 -21.3150  0.00  0.00     0.000 O
ATOM     55  HD  BGC C   4      17.175 -16.211 -21.6690  0.00  0.00     0.000 HD
ATOM     55   C  BGC C   4      19.381 -18.732 -17.2110  0.00  0.00     0.000 C
ATOM     56   O  BGC C   4      18.180 -18.411 -16.4990  0.00  0.00     0.000 O
ATOM     58  HD  BGC C   4      17.902 -17.671 -16.8520  0.00  0.00     0.000 HD
BRANCH 45 58
ATOM     58  O4  BGC C   5      17.319 -21.521 -20.1340  0.00  0.00     0.000 O
BRANCH 58 62
ATOM     59  C1  BGC C   5      18.194 -24.238 -21.2310  0.00  0.00     0.000 C
ATOM     60  C2  BGC C   5      16.969 -24.469 -20.4970  0.00  0.00     0.000 C
ATOM     61  C3  BGC C   5      16.922 -23.762 -19.1450  0.00  0.00     0.000 C
ATOM     62  C4  BGC C   5      17.804 -22.523 -19.2060  0.00  0.00     0.000 C
ATOM     63  C5  BGC C   5      19.097 -22.925 -19.8750  0.00  0.00     0.000 C
ATOM     64  O5  BGC C   5      19.136 -24.162 -20.5840  0.00  0.00     0.000 O
ATOM     65   O  BGC C   5      20.105 -23.856 -17.8860  0.00  0.00     0.000 O
ATOM     67  HD  BGC C   5      20.013 -23.162 -18.3960  0.00  0.00     0.000 HD
ATOM     67   O  BGC C   5      20.105 -23.856 -17.8860  0.00  0.00     0.000 O
ATOM     69  HD  BGC C   5      20.013 -23.162 -18.3960  0.00  0.00     0.000 HD
ENDBRANCH 58 62
ENDBRANCH 45 58
ENDBRANCH 44 48
ENDBRANCH 31 44
ENDBRANCH 30 34
ENDBRANCH 17 30
ENDBRANCH 16 20
ENDBRANCH 1 16
TORSDOF 8
ENDMDL
MODEL 15
REMARK VINA RESULT:      -8.1      8.734     16.749
ROOT
ATOM      1  C1  BGC C   1      18.097 -15.484 -19.0620  0.00  0.00     0.000 C
ATOM      2  C2  BGC C   1      19.184 -14.571 -18.4980  0.00  0.00     0.000 C
ATOM      3  C3  BGC C   1      18.551 -13.346 -17.8470  0.00  0.00     0.000 C
ATOM      4  C4  BGC C   1      17.547 -12.664 -18.7610  0.00  0.00     0.000 C
ATOM      5  C5  BGC C   1      16.614 -13.698 -19.3860  0.00  0.00     0.000 C
ATOM      6  O5  BGC C   1      17.275 -14.797 -19.9260  0.00  0.00     0.000 O
ATOM      7   O  BGC C   1      19.906 -15.313 -17.5440  0.00  0.00     0.000 O
ATOM      9  HD  BGC C   1      20.169 -14.587 -17.9370  0.00  0.00     0.000 HD
ATOM      9   O  BGC C   1      19.605 -12.458 -17.4510  0.00  0.00     0.000 O
ATOM     11  HD  BGC C   1      19.868 -11.733 -17.8440  0.00  0.00     0.000 HD
ATOM     11   O  BGC C   1      16.822 -11.739 -17.9590  0.00  0.00     0.000 O
ATOM     13  HD  BGC C   1      17.085 -11.013 -18.3520  0.00  0.00     0.000 HD
ATOM     13   O  BGC C   1      16.665 -12.645 -21.6280  0.00  0.00     0.000 O
ATOM     15  HD  BGC C   1      16.927 -11.920 -22.0210  0.00  0.00     0.000 HD
ATOM     15   C  BGC C   1      15.814 -13.007 -20.5050  0.00  0.00     0.000 C
ENDROOT
BRANCH 1 16
ATOM     16  O4  BGC C   2      18.712 -16.510 -19.8060  0.00  0.00     0.000 O
BRANCH 16 20
ATOM     17  C1  BGC C   2      18.093 -20.464 -20.6160  0.00  0.00     0.000 C
ATOM     18  C2  BGC C   2      17.263 -19.482 -21.4270  0.00  0.00     0.000 C
ATOM     19  C3  BGC C   2      17.827 -18.073 -21.3090  0.00  0.00     0.000 C
ATOM     20  C4  BGC C   2      18.000 -17.722 -19.8700  0.00  0.00     0.000 C
ATOM     21  C5  BGC C   2      18.778 -18.807 -19.1310  0.00  0.00     0.000 C
ATOM     22  O5  BGC C   2      18.163 -20.051 -19.2810  0.00  0.00     0.000 O
ATOM     23   O  BGC C   2      17.253 -19.905 -22.7990  0.00  0.00     0.000 O
ATOM     25  HD  BGC C   2      17.327 -19.219 -23.3220  0.00  0.00     0.000 HD
ATOM     25   O  BGC C   2      16.928 -17.157 -21.9230  0.00  0.00     0.000 O
ATOM     27  HD  BGC C   2      17.001 -16.471 -22.4470  0.00  0.00     0.000 HD
ATOM     27   C  BGC C   2      18.989 -18.540 -17.6270  0.00  0.00     0.000 C
ATOM     28   O  BGC C   2      17.741 -18.291 -16.9610  0.00  0.00     0.000 O
ATOM     30  HD  BGC C   2      17.814 -17.605 -17.4850  0.00  0.00     0.000 HD
BRANCH 17 30
ATOM     30  O4  BGC C   3      17.484 -21.737 -20.6610  0.00  0.00     0.000 O
BRANCH 30 34
ATOM     31  C1  BGC C   3      18.387 -25.670 -20.8890  0.00  0.00     0.000 C
ATOM     32  C2  BGC C   3      18.994 -24.911 -19.6850  0.00  0.00     0.000 C
ATOM     33  C3  BGC C   3      18.337 -23.588 -19.4950  0.00  0.00     0.000 C
ATOM     34  C4  BGC C   3      18.356 -22.844 -20.8330  0.00  0.00     0.000 C
ATOM     35  C5  BGC C   3      17.854 -23.693 -22.0290  0.00  0.00     0.000 C
ATOM     36  O5  BGC C   3      18.537 -24.921 -22.0700  0.00  0.00     0.000 O
ATOM     37   O  BGC C   3      18.991 -25.546 -18.4200  0.00  0.00     0.000 O
ATOM     39  HD  BGC C   3      18.898 -24.801 -18.8520  0.00  0.00     0.000 HD
ATOM     39   O  BGC C   3      19.025 -22.827 -18.4600  0.00  0.00     0.000 O
ATOM     41  HD  BGC C   3      18.932 -22.083 -18.8920  0.00  0.00     0.000 HD
ATOM     41   C  BGC C   3      18.031 -23.038 -23.4180  0.00  0.00     0.000 C
ATOM     42   O  BGC C   3      19.426 -22.807 -23.8300  0.00  0.00     0.000 O
ATOM     44  HD  BGC C   3      19.333 -22.062 -24.2620  0.00  0.00     0.000 HD
BRANCH 31 44
ATOM     44  O4  BGC C   4      19.001 -26.904 -21.0610  0.00  0.00     0.000 O
BRANCH 44 48
ATOM     45  C1  BGC C   4      17.912 -30.850 -21.0470  0.00  0.00     0.000 C
ATOM     46  C2  BGC C   4      18.576 -30.448 -22.4030  0.00  0.00     0.000 C
ATOM     47  C3  BGC C   4      19.166 -29.071 -22.0720  0.00  0.00     0.000 C
ATOM     48  C4  BGC C   4      18.265 -28.029 -21.4380  0.00  0.00     0.000 C
ATOM     49  C5  BGC C   4      17.731 -28.657 -20.1410  0.00  0.00     0.000 C
ATOM     50  O5  BGC C   4      17.098 -29.863 -20.3950  0.00  0.00     0.000 O
ATOM     51   O  BGC C   4      19.684 -31.280 -23.0720  0.00  0.00     0.000 O
ATOM     53  HD  BGC C   4      20.026 -30.865 -23.7510  0.00  0.00     0.000 HD
ATOM     53   O  BGC C   4      19.407 -28.555 -23.4640  0.00  0.00     0.000 O
ATOM     55  HD  BGC C   4      19.748 -28.140 -24.1430  0.00  0.00     0.000 HD
ATOM     55   C  BGC C   4      16.688 -27.782 -19.4950  0.00  0.00     0.000 C
ATOM     56   O  BGC C   4      15.568 -27.442 -20.3200  0.00  0.00     0.000 O
ATOM     58  HD  BGC C   4      15.909 -27.027 -21.0000  0.00  0.00     0.000 HD
BRANCH 45 58
ATOM     58  O4  BGC C   5      17.096 -31.976 -21.1730  0.00  0.00     0.000 O
BRANCH 58 62
ATOM     59  C1  BGC C   5      16.894 -35.003 -20.7810  0.00  0.00     0.000 C
ATOM     60  C2  BGC C   5      15.537 -34.514 -20.9000  0.00  0.00     0.000 C
ATOM     61  C3  BGC C   5      15.267 -33.252 -20.0850  0.00  0.00     0.000 C
ATOM     62  C4  BGC C   5      16.569 -32.482 -19.9210  0.00  0.00     0.000 C
ATOM     63  C5  BGC C   5      17.638 -33.484 -19.5490  0.00  0.00     0.000 C
ATOM     64  O5  BGC C   5      17.364 -34.870 -19.7460  0.00  0.00     0.000 O
ATOM     65   O  BGC C   5      17.084 -33.548 -17.1990  0.00  0.00     0.000 O
ATOM     67  HD  BGC C   5      17.576 -33.197 -17.8180  0.00  0.00     0.000 HD
ATOM     67   O  BGC C   5      17.084 -33.548 -17.1990  0.00  0.00     0.000 O
ATOM     69  HD  BGC C   5      17.576 -33.197 -17.8180  0.00  0.00     0.000 HD
ENDBRANCH 58 62
ENDBRANCH 45 58
ENDBRANCH 44 48
ENDBRANCH 31 44
ENDBRANCH 30 34
ENDBRANCH 17 30
ENDBRANCH 16 20
ENDBRANCH 1 16
TORSDOF 8
ENDMDL
MODEL 16
REMARK VINA RESULT:      -7.5     21.903     25.555
ROOT
ATOM      1  C1  BGC C   1       5.360 -20.153   2.1760  0.00  0.00     0.000 C
ATOM      2  C2  BGC C   1       4.274 -19.113   1.9060  0.00  0.00     0.000 C
ATOM      3  C3  BGC C   1       2.898 -19.719   2.1530  0.00  0.00     0.000 C
ATOM      4  C4  BGC C   1       2.715 -21.043   1.4310  0.00  0.00     0.000 C
ATOM      5  C5  BGC C   1       3.933 -21.936   1.6490  0.00  0.00     0.000 C
ATOM      6  O5  BGC C   1       5.148 -21.292   1.4320  0.00  0.00     0.000 O
ATOM      7   O  BGC C   1       4.497 -18.032   2.7810  0.00  0.00     0.000 O
ATOM      9  HD  BGC C   1       4.022 -18.018   2.0570  0.00  0.00     0.000 HD
ATOM      9   O  BGC C   1       1.911 -18.754   1.7640  0.00  0.00     0.000 O
ATOM     11  HD  BGC C   1       1.435 -18.740   1.0400  0.00  0.00     0.000 HD
ATOM     11   O  BGC C   1       1.539 -21.643   1.9640  0.00  0.00     0.000 O
ATOM     13  HD  BGC C   1       1.063 -21.628   1.2400  0.00  0.00     0.000 HD
ATOM     13   O  BGC C   1       4.000 -22.715  -0.7020  0.00  0.00     0.000 O
ATOM     15  HD  BGC C   1       3.524 -22.701  -1.4260  0.00  0.00     0.000 HD
ATOM     15   C  BGC C   1       3.831 -23.130   0.6820  0.00  0.00     0.000 C
ENDROOT
BRANCH 1 16
ATOM     16  O4  BGC C   2       6.601 -19.624   1.7720  0.00  0.00     0.000 O
BRANCH 16 20
ATOM     17  C1  BGC C   2      10.530 -19.936   2.8400  0.00  0.00     0.000 C
ATOM     18  C2  BGC C   2       9.985 -21.061   1.9750  0.00  0.00     0.000 C
ATOM     19  C3  BGC C   2       8.656 -20.665   1.3480  0.00  0.00     0.000 C
ATOM     20  C4  BGC C   2       7.730 -20.173   2.4090  0.00  0.00     0.000 C
ATOM     21  C5  BGC C   2       8.399 -19.102   3.2670  0.00  0.00     0.000 C
ATOM     22  O5  BGC C   2       9.593 -19.576   3.8140  0.00  0.00     0.000 O
ATOM     23   O  BGC C   2      10.948 -21.371   0.9560  0.00  0.00     0.000 O
ATOM     25  HD  BGC C   2      10.547 -21.519   0.2040  0.00  0.00     0.000 HD
ATOM     25   O  BGC C   2       8.089 -21.798   0.7010  0.00  0.00     0.000 O
ATOM     27  HD  BGC C   2       7.687 -21.947  -0.0520  0.00  0.00     0.000 HD
ATOM     27   C  BGC C   2       7.521 -18.546   4.4060  0.00  0.00     0.000 C
ATOM     28   O  BGC C   2       7.020 -19.603   5.2410  0.00  0.00     0.000 O
ATOM     30  HD  BGC C   2       6.618 -19.752   4.4880  0.00  0.00     0.000 HD
BRANCH 17 30
ATOM     30  O4  BGC C   3      11.706 -20.373   3.4880  0.00  0.00     0.000 O
BRANCH 30 34
ATOM     31  C1  BGC C   3      15.247 -18.504   4.0400  0.00  0.00     0.000 C
ATOM     32  C2  BGC C   3      14.616 -19.133   5.3050  0.00  0.00     0.000 C
ATOM     33  C3  BGC C   3      13.520 -20.077   4.9480  0.00  0.00     0.000 C
ATOM     34  C4  BGC C   3      12.552 -19.358   4.0060  0.00  0.00     0.000 C
ATOM     35  C5  BGC C   3      13.249 -18.638   2.8230  0.00  0.00     0.000 C
ATOM     36  O5  BGC C   3      14.275 -17.805   3.3010  0.00  0.00     0.000 O
ATOM     37   O  BGC C   3      15.462 -19.823   6.2060  0.00  0.00     0.000 O
ATOM     39  HD  BGC C   3      14.686 -19.799   5.8220  0.00  0.00     0.000 HD
ATOM     39   O  BGC C   3      12.839 -20.537   6.1520  0.00  0.00     0.000 O
ATOM     41  HD  BGC C   3      12.063 -20.514   5.7680  0.00  0.00     0.000 HD
ATOM     41   C  BGC C   3      12.323 -17.752   1.9580  0.00  0.00     0.000 C
ATOM     42   O  BGC C   3      11.730 -16.597   2.6530  0.00  0.00     0.000 O
ATOM     44  HD  BGC C   3      10.955 -16.574   2.2690  0.00  0.00     0.000 HD
BRANCH 31 44
ATOM     44  O4  BGC C   4      16.268 -17.626   4.3780  0.00  0.00     0.000 O
BRANCH 44 48
ATOM     45  C1  BGC C   4      20.006 -16.404   3.2400  0.00  0.00     0.000 C
ATOM     46  C2  BGC C   4      18.906 -15.418   2.7320  0.00  0.00     0.000 C
ATOM     47  C3  BGC C   4      17.673 -15.885   3.5170  0.00  0.00     0.000 C
ATOM     48  C4  BGC C   4      17.311 -17.357   3.4880  0.00  0.00     0.000 C
ATOM     49  C5  BGC C   4      18.542 -18.112   4.0150  0.00  0.00     0.000 C
ATOM     50  O5  BGC C   4      19.671 -17.800   3.2760  0.00  0.00     0.000 O
ATOM     51   O  BGC C   4      19.010 -13.891   2.8970  0.00  0.00     0.000 O
ATOM     53  HD  BGC C   4      18.273 -13.496   2.6710  0.00  0.00     0.000 HD
ATOM     53   O  BGC C   4      16.590 -15.221   2.7120  0.00  0.00     0.000 O
ATOM     55  HD  BGC C   4      15.853 -14.826   2.4860  0.00  0.00     0.000 HD
ATOM     55   C  BGC C   4      18.370 -19.602   3.8820  0.00  0.00     0.000 C
ATOM     56   O  BGC C   4      18.088 -20.078   2.5610  0.00  0.00     0.000 O
ATOM     58  HD  BGC C   4      17.351 -19.684   2.3350  0.00  0.00     0.000 HD
BRANCH 45 58
ATOM     58  O4  BGC C   5      21.176 -16.325   2.4800  0.00  0.00     0.000 O
BRANCH 58 62
ATOM     59  C1  BGC C   5      23.718 -15.895   0.8360  0.00  0.00     0.000 C
ATOM     60  C2  BGC C   5      24.149 -16.298   2.1570  0.00  0.00     0.000 C
ATOM     61  C3  BGC C   5      23.404 -15.591   3.2870  0.00  0.00     0.000 C
ATOM     62  C4  BGC C   5      22.022 -15.191   2.7910  0.00  0.00     0.000 C
ATOM     63  C5  BGC C   5      22.196 -14.583   1.4190  0.00  0.00     0.000 C
ATOM     64  O5  BGC C   5      23.432 -14.790   0.7390  0.00  0.00     0.000 O
ATOM     65   O  BGC C   5      22.823 -12.391   2.2180  0.00  0.00     0.000 O
ATOM     67  HD  BGC C   5      22.184 -12.909   1.9480  0.00  0.00     0.000 HD
ATOM     67   O  BGC C   5      22.823 -12.391   2.2180  0.00  0.00     0.000 O
ATOM     69  HD  BGC C   5      22.184 -12.909   1.9480  0.00  0.00     0.000 HD
ENDBRANCH 58 62
ENDBRANCH 45 58
ENDBRANCH 44 48
ENDBRANCH 31 44
ENDBRANCH 30 34
ENDBRANCH 17 30
ENDBRANCH 16 20
ENDBRANCH 1 16
TORSDOF 8
ENDMDL
MODEL 17
REMARK VINA RESULT:      -7.4      4.130      9.306
ROOT
ATOM      1  C1  BGC C   1      20.502  -8.598 -16.4670  0.00  0.00     0.000 C
ATOM      2  C2  BGC C   1      21.587  -7.570 -16.7850  0.00  0.00     0.000 C
ATOM      3  C3  BGC C   1      21.899  -6.739 -15.5460  0.00  0.00     0.000 C
ATOM      4  C4  BGC C   1      20.644  -6.173 -14.9030  0.00  0.00     0.000 C
ATOM      5  C5  BGC C   1      19.578  -7.258 -14.7810  0.00  0.00     0.000 C
ATOM      6  O5  BGC C   1      19.382  -7.988 -15.9490  0.00  0.00     0.000 O
ATOM      7   O  BGC C   1      22.731  -8.278 -17.2000  0.00  0.00     0.000 O
ATOM      9  HD  BGC C   1      22.565  -7.441 -17.3430  0.00  0.00     0.000 HD
ATOM      9   O  BGC C   1      22.821  -5.708 -15.9230  0.00  0.00     0.000 O
ATOM     11  HD  BGC C   1      22.655  -4.870 -16.0670  0.00  0.00     0.000 HD
ATOM     11   O  BGC C   1      21.023  -5.681 -13.6230  0.00  0.00     0.000 O
ATOM     13  HD  BGC C   1      20.857  -4.843 -13.7660  0.00  0.00     0.000 HD
ATOM     13   O  BGC C   1      17.728  -5.765 -15.4800  0.00  0.00     0.000 O
ATOM     15  HD  BGC C   1      17.562  -4.927 -15.6240  0.00  0.00     0.000 HD
ATOM     15   C  BGC C   1      18.249  -6.583 -14.3950  0.00  0.00     0.000 C
ENDROOT
BRANCH 1 16
ATOM     16  O4  BGC C   2      20.112  -9.227 -17.6650  0.00  0.00     0.000 O
BRANCH 16 20
ATOM     17  C1  BGC C   2      18.867 -12.918 -18.8910  0.00  0.00     0.000 C
ATOM     18  C2  BGC C   2      17.806 -12.038 -18.2490  0.00  0.00     0.000 C
ATOM     19  C3  BGC C   2      18.278 -10.593 -18.1720  0.00  0.00     0.000 C
ATOM     20  C4  BGC C   2      19.623 -10.540 -17.5280  0.00  0.00     0.000 C
ATOM     21  C5  BGC C   2      20.589 -11.514 -18.1970  0.00  0.00     0.000 C
ATOM     22  O5  BGC C   2      20.074 -12.811 -18.1900  0.00  0.00     0.000 O
ATOM     23   O  BGC C   2      16.599 -12.131 -19.0200  0.00  0.00     0.000 O
ATOM     25  HD  BGC C   2      16.228 -11.352 -19.0860  0.00  0.00     0.000 HD
ATOM     25   O  BGC C   2      17.347  -9.838 -17.4060  0.00  0.00     0.000 O
ATOM     27  HD  BGC C   2      16.976  -9.058 -17.4720  0.00  0.00     0.000 HD
ATOM     27   C  BGC C   2      22.004 -11.543 -17.5830  0.00  0.00     0.000 C
ATOM     28   O  BGC C   2      21.954 -11.793 -16.1690  0.00  0.00     0.000 O
ATOM     30  HD  BGC C   2      21.583 -11.013 -16.2350  0.00  0.00     0.000 HD
BRANCH 17 30
ATOM     30  O4  BGC C   3      18.443 -14.264 -18.8510  0.00  0.00     0.000 O
BRANCH 30 34
ATOM     31  C1  BGC C   3      19.275 -17.848 -20.5230  0.00  0.00     0.000 C
ATOM     32  C2  BGC C   3      20.096 -17.490 -19.2610  0.00  0.00     0.000 C
ATOM     33  C3  BGC C   3      19.489 -16.341 -18.5330  0.00  0.00     0.000 C
ATOM     34  C4  BGC C   3      19.265 -15.202 -19.5290  0.00  0.00     0.000 C
ATOM     35  C5  BGC C   3      18.548 -15.642 -20.8310  0.00  0.00     0.000 C
ATOM     36  O5  BGC C   3      19.207 -16.748 -21.3960  0.00  0.00     0.000 O
ATOM     37   O  BGC C   3      20.324 -18.501 -18.2980  0.00  0.00     0.000 O
ATOM     39  HD  BGC C   3      20.155 -17.663 -18.4360  0.00  0.00     0.000 HD
ATOM     39   O  BGC C   3      20.359 -15.921 -17.4410  0.00  0.00     0.000 O
ATOM     41  HD  BGC C   3      20.191 -15.083 -17.5780  0.00  0.00     0.000 HD
ATOM     41   C  BGC C   3      18.468 -14.561 -21.9340  0.00  0.00     0.000 C
ATOM     42   O  BGC C   3      19.764 -14.128 -22.4830  0.00  0.00     0.000 O
ATOM     44  HD  BGC C   3      19.595 -13.289 -22.6210  0.00  0.00     0.000 HD
BRANCH 31 44
ATOM     44  O4  BGC C   4      19.843 -18.920 -21.1990  0.00  0.00     0.000 O
BRANCH 44 48
ATOM     45  C1  BGC C   4      18.476 -22.714 -21.9020  0.00  0.00     0.000 C
ATOM     46  C2  BGC C   4      19.228 -22.141 -23.1450  0.00  0.00     0.000 C
ATOM     47  C3  BGC C   4      19.899 -20.891 -22.5620  0.00  0.00     0.000 C
ATOM     48  C4  BGC C   4      19.046 -19.905 -21.7890  0.00  0.00     0.000 C
ATOM     49  C5  BGC C   4      18.410 -20.700 -20.6370  0.00  0.00     0.000 C
ATOM     50  O5  BGC C   4      17.705 -21.791 -21.1170  0.00  0.00     0.000 O
ATOM     51   O  BGC C   4      20.304 -22.932 -23.9110  0.00  0.00     0.000 O
ATOM     53  HD  BGC C   4      20.705 -22.436 -24.4970  0.00  0.00     0.000 HD
ATOM     53   O  BGC C   4      20.240 -20.167 -23.8350  0.00  0.00     0.000 O
ATOM     55  HD  BGC C   4      20.642 -19.671 -24.4210  0.00  0.00     0.000 HD
ATOM     55   C  BGC C   4      17.404 -19.867 -19.8860  0.00  0.00     0.000 C
ATOM     56   O  BGC C   4      16.350 -19.306 -20.6760  0.00  0.00     0.000 O
ATOM     58  HD  BGC C   4      16.751 -18.810 -21.2620  0.00  0.00     0.000 HD
BRANCH 45 58
ATOM     58  O4  BGC C   5      17.587 -23.736 -22.2470  0.00  0.00     0.000 O
BRANCH 58 62
ATOM     59  C1  BGC C   5      19.567 -26.066 -22.2720  0.00  0.00     0.000 C
ATOM     60  C2  BGC C   5      18.293 -26.607 -22.6950  0.00  0.00     0.000 C
ATOM     61  C3  BGC C   5      17.116 -26.138 -21.8440  0.00  0.00     0.000 C
ATOM     62  C4  BGC C   5      17.448 -24.777 -21.2500  0.00  0.00     0.000 C
ATOM     63  C5  BGC C   5      18.862 -24.852 -20.7210  0.00  0.00     0.000 C
ATOM     64  O5  BGC C   5      19.684 -25.939 -21.1400  0.00  0.00     0.000 O
ATOM     65   O  BGC C   5      18.268 -25.905 -18.6290  0.00  0.00     0.000 O
ATOM     67  HD  BGC C   5      18.425 -25.164 -19.0490  0.00  0.00     0.000 HD
ATOM     67   O  BGC C   5      18.268 -25.905 -18.6290  0.00  0.00     0.000 O
ATOM     69  HD  BGC C   5      18.425 -25.164 -19.0490  0.00  0.00     0.000 HD
ENDBRANCH 58 62
ENDBRANCH 45 58
ENDBRANCH 44 48
ENDBRANCH 31 44
ENDBRANCH 30 34
ENDBRANCH 17 30
ENDBRANCH 16 20
ENDBRANCH 1 16
TORSDOF 8
ENDMDL
MODEL 18
REMARK VINA RESULT:      -7.3      3.543      8.001
ROOT
ATOM      1  C1  BGC C   1      20.633  -7.010 -16.4290  0.00  0.00     0.000 C
ATOM      2  C2  BGC C   1      21.530  -5.932 -17.0390  0.00  0.00     0.000 C
ATOM      3  C3  BGC C   1      21.940  -4.928 -15.9680  0.00  0.00     0.000 C
ATOM      4  C4  BGC C   1      20.748  -4.406 -15.1830  0.00  0.00     0.000 C
ATOM      5  C5  BGC C   1      19.846  -5.563 -14.7620  0.00  0.00     0.000 C
ATOM      6  O5  BGC C   1      19.549  -6.448 -15.7950  0.00  0.00     0.000 O
ATOM      7   O  BGC C   1      22.665  -6.576 -17.5660  0.00  0.00     0.000 O
ATOM      9  HD  BGC C   1      22.384  -5.782 -17.7680  0.00  0.00     0.000 HD
ATOM      9   O  BGC C   1      22.666  -3.869 -16.6070  0.00  0.00     0.000 O
ATOM     11  HD  BGC C   1      22.385  -3.075 -16.8090  0.00  0.00     0.000 HD
ATOM     11   O  BGC C   1      21.270  -3.725 -14.0470  0.00  0.00     0.000 O
ATOM     13  HD  BGC C   1      20.989  -2.931 -14.2490  0.00  0.00     0.000 HD
ATOM     13   O  BGC C   1      17.751  -4.349 -15.2880  0.00  0.00     0.000 O
ATOM     15  HD  BGC C   1      17.470  -3.555 -15.4890  0.00  0.00     0.000 HD
ATOM     15   C  BGC C   1      18.528  -4.973 -14.2280  0.00  0.00     0.000 C
ENDROOT
BRANCH 1 16
ATOM     16  O4  BGC C   2      20.130  -7.817 -17.4680  0.00  0.00     0.000 O
BRANCH 16 20
ATOM     17  C1  BGC C   2      19.252 -11.761 -18.0620  0.00  0.00     0.000 C
ATOM     18  C2  BGC C   2      18.153 -10.923 -17.4290  0.00  0.00     0.000 C
ATOM     19  C3  BGC C   2      18.444  -9.438 -17.5920  0.00  0.00     0.000 C
ATOM     20  C4  BGC C   2      19.825  -9.144 -17.1100  0.00  0.00     0.000 C
ATOM     21  C5  BGC C   2      20.840 -10.088 -17.7470  0.00  0.00     0.000 C
ATOM     22  O5  BGC C   2      20.495 -11.421 -17.5170  0.00  0.00     0.000 O
ATOM     23   O  BGC C   2      16.901 -11.259 -18.0460  0.00  0.00     0.000 O
ATOM     25  HD  BGC C   2      16.430 -10.543 -18.1720  0.00  0.00     0.000 HD
ATOM     25   O  BGC C   2      17.500  -8.691 -16.8330  0.00  0.00     0.000 O
ATOM     27  HD  BGC C   2      17.029  -7.975 -16.9590  0.00  0.00     0.000 HD
ATOM     27   C  BGC C   2      22.298  -9.871 -17.2920  0.00  0.00     0.000 C
ATOM     28   O  BGC C   2      22.410  -9.922 -15.8610  0.00  0.00     0.000 O
ATOM     30  HD  BGC C   2      21.939  -9.206 -15.9870  0.00  0.00     0.000 HD
BRANCH 17 30
ATOM     30  O4  BGC C   3      19.006 -13.126 -17.8030  0.00  0.00     0.000 O
BRANCH 30 34
ATOM     31  C1  BGC C   3      19.313 -16.779 -19.5060  0.00  0.00     0.000 C
ATOM     32  C2  BGC C   3      20.645 -16.136 -19.0510  0.00  0.00     0.000 C
ATOM     33  C3  BGC C   3      20.404 -14.982 -18.1420  0.00  0.00     0.000 C
ATOM     34  C4  BGC C   3      19.403 -14.039 -18.8150  0.00  0.00     0.000 C
ATOM     35  C5  BGC C   3      18.142 -14.754 -19.3640  0.00  0.00     0.000 C
ATOM     36  O5  BGC C   3      18.516 -15.836 -20.1800  0.00  0.00     0.000 O
ATOM     37   O  BGC C   3      21.603 -16.958 -18.4100  0.00  0.00     0.000 O
ATOM     39  HD  BGC C   3      21.228 -16.178 -18.4400  0.00  0.00     0.000 HD
ATOM     39   O  BGC C   3      21.658 -14.298 -17.8510  0.00  0.00     0.000 O
ATOM     41  HD  BGC C   3      21.284 -13.518 -17.8810  0.00  0.00     0.000 HD
ATOM     41   C  BGC C   3      17.200 -13.865 -20.2080  0.00  0.00     0.000 C
ATOM     42   O  BGC C   3      17.777 -13.353 -21.4620  0.00  0.00     0.000 O
ATOM     44  HD  BGC C   3      17.402 -12.573 -21.4920  0.00  0.00     0.000 HD
BRANCH 31 44
ATOM     44  O4  BGC C   4      19.543 -17.856 -20.3520  0.00  0.00     0.000 O
BRANCH 44 48
ATOM     45  C1  BGC C   4      18.422 -21.718 -21.1190  0.00  0.00     0.000 C
ATOM     46  C2  BGC C   4      17.603 -20.705 -21.9820  0.00  0.00     0.000 C
ATOM     47  C3  BGC C   4      18.384 -19.402 -21.7700  0.00  0.00     0.000 C
ATOM     48  C4  BGC C   4      18.695 -18.966 -20.3520  0.00  0.00     0.000 C
ATOM     49  C5  BGC C   4      19.486 -20.120 -19.7140  0.00  0.00     0.000 C
ATOM     50  O5  BGC C   4      18.780 -21.309 -19.7900  0.00  0.00     0.000 O
ATOM     51   O  BGC C   4      17.388 -20.877 -23.4970  0.00  0.00     0.000 O
ATOM     53  HD  BGC C   4      17.016 -20.177 -23.8460  0.00  0.00     0.000 HD
ATOM     53   O  BGC C   4      17.359 -18.409 -22.2460  0.00  0.00     0.000 O
ATOM     55  HD  BGC C   4      16.987 -17.709 -22.5950  0.00  0.00     0.000 HD
ATOM     55   C  BGC C   4      19.716 -19.880 -18.2440  0.00  0.00     0.000 C
ATOM     56   O  BGC C   4      18.538 -19.659 -17.4600  0.00  0.00     0.000 O
ATOM     58  HD  BGC C   4      18.167 -18.960 -17.8090  0.00  0.00     0.000 HD
BRANCH 45 58
ATOM     58  O4  BGC C   5      17.757 -22.936 -20.9640  0.00  0.00     0.000 O
BRANCH 58 62
ATOM     59  C1  BGC C   5      16.844 -25.609 -19.7910  0.00  0.00     0.000 C
ATOM     60  C2  BGC C   5      17.998 -25.198 -19.0220  0.00  0.00     0.000 C
ATOM     61  C3  BGC C   5      19.151 -24.677 -19.8760  0.00  0.00     0.000 C
ATOM     62  C4  BGC C   5      18.587 -24.106 -21.1690  0.00  0.00     0.000 C
ATOM     63  C5  BGC C   5      17.564 -25.091 -21.6860  0.00  0.00     0.000 C
ATOM     64  O5  BGC C   5      17.086 -26.099 -20.7970  0.00  0.00     0.000 O
ATOM     65   O  BGC C   5      19.170 -26.559 -22.7360  0.00  0.00     0.000 O
ATOM     67  HD  BGC C   5      18.628 -25.890 -22.8310  0.00  0.00     0.000 HD
ATOM     67   O  BGC C   5      19.170 -26.559 -22.7360  0.00  0.00     0.000 O
ATOM     69  HD  BGC C   5      18.628 -25.890 -22.8310  0.00  0.00     0.000 HD
ENDBRANCH 58 62
ENDBRANCH 45 58
ENDBRANCH 44 48
ENDBRANCH 31 44
ENDBRANCH 30 34
ENDBRANCH 17 30
ENDBRANCH 16 20
ENDBRANCH 1 16
TORSDOF 8
ENDMDL
MODEL 19
REMARK VINA RESULT:      -7.2      2.602      6.205
ROOT
ATOM      1  C1  BGC C   1      21.607   4.139 -12.1140  0.00  0.00     0.000 C
ATOM      2  C2  BGC C   1      22.816   5.071 -12.1760  0.00  0.00     0.000 C
ATOM      3  C3  BGC C   1      22.774   6.058 -11.0150  0.00  0.00     0.000 C
ATOM      4  C4  BGC C   1      21.428   6.754 -10.9000  0.00  0.00     0.000 C
ATOM      5  C5  BGC C   1      20.296   5.737 -11.0080  0.00  0.00     0.000 C
ATOM      6  O5  BGC C   1      20.432   4.856 -12.0780  0.00  0.00     0.000 O
ATOM      7   O  BGC C   1      23.971   4.271 -12.0960  0.00  0.00     0.000 O
ATOM      9  HD  BGC C   1      23.929   5.086 -12.3880  0.00  0.00     0.000 HD
ATOM      9   O  BGC C   1      23.848   6.992 -11.1850  0.00  0.00     0.000 O
ATOM     11  HD  BGC C   1      23.806   7.806 -11.4770  0.00  0.00     0.000 HD
ATOM     11   O  BGC C   1      21.409   7.408  -9.6360  0.00  0.00     0.000 O
ATOM     13  HD  BGC C   1      21.367   8.223  -9.9280  0.00  0.00     0.000 HD
ATOM     13   O  BGC C   1      18.901   7.182 -12.4590  0.00  0.00     0.000 O
ATOM     15  HD  BGC C   1      18.859   7.996 -12.7510  0.00  0.00     0.000 HD
ATOM     15   C  BGC C   1      18.973   6.507 -11.1730  0.00  0.00     0.000 C
ENDROOT
BRANCH 1 16
ATOM     16  O4  BGC C   2      21.578   3.361 -13.2880  0.00  0.00     0.000 O
BRANCH 16 20
ATOM     17  C1  BGC C   2      20.266  -0.331 -14.4390  0.00  0.00     0.000 C
ATOM     18  C2  BGC C   2      19.219   0.772 -14.4250  0.00  0.00     0.000 C
ATOM     19  C3  BGC C   2      19.878   2.141 -14.3420  0.00  0.00     0.000 C
ATOM     20  C4  BGC C   2      20.842   2.164 -13.2030  0.00  0.00     0.000 C
ATOM     21  C5  BGC C   2      21.797   0.976 -13.2700  0.00  0.00     0.000 C
ATOM     22  O5  BGC C   2      21.092  -0.228 -13.3150  0.00  0.00     0.000 O
ATOM     23   O  BGC C   2      18.422   0.670 -15.6140  0.00  0.00     0.000 O
ATOM     25  HD  BGC C   2      18.258   1.459 -15.9310  0.00  0.00     0.000 HD
ATOM     25   O  BGC C   2      18.876   3.132 -14.1450  0.00  0.00     0.000 O
ATOM     27  HD  BGC C   2      18.712   3.921 -14.4610  0.00  0.00     0.000 HD
ATOM     27   C  BGC C   2      22.821   0.905 -12.1180  0.00  0.00     0.000 C
ATOM     28   O  BGC C   2      22.168   0.940 -10.8380  0.00  0.00     0.000 O
ATOM     30  HD  BGC C   2      22.004   1.730 -11.1550  0.00  0.00     0.000 HD
BRANCH 17 30
ATOM     30  O4  BGC C   3      19.620  -1.586 -14.4100  0.00  0.00     0.000 O
BRANCH 30 34
ATOM     31  C1  BGC C   3      20.658  -5.406 -15.2280  0.00  0.00     0.000 C
ATOM     32  C2  BGC C   3      20.363  -5.094 -13.7410  0.00  0.00     0.000 C
ATOM     33  C3  BGC C   3      19.666  -3.787 -13.5930  0.00  0.00     0.000 C
ATOM     34  C4  BGC C   3      20.466  -2.725 -14.3520  0.00  0.00     0.000 C
ATOM     35  C5  BGC C   3      20.842  -3.140 -15.7970  0.00  0.00     0.000 C
ATOM     36  O5  BGC C   3      21.464  -4.401 -15.7920  0.00  0.00     0.000 O
ATOM     37   O  BGC C   3      19.615  -6.035 -12.9930  0.00  0.00     0.000 O
ATOM     39  HD  BGC C   3      19.772  -5.197 -13.1460  0.00  0.00     0.000 HD
ATOM     39   O  BGC C   3      19.539  -3.441 -12.1820  0.00  0.00     0.000 O
ATOM     41  HD  BGC C   3      19.695  -2.603 -12.3340  0.00  0.00     0.000 HD
ATOM     41   C  BGC C   3      21.802  -2.173 -16.5280  0.00  0.00     0.000 C
ATOM     42   O  BGC C   3      23.144  -2.053 -15.9340  0.00  0.00     0.000 O
ATOM     44  HD  BGC C   3      23.300  -1.214 -16.0860  0.00  0.00     0.000 HD
BRANCH 31 44
ATOM     44  O4  BGC C   4      21.306  -6.627 -15.3620  0.00  0.00     0.000 O
BRANCH 44 48
ATOM     45  C1  BGC C   4      21.411 -10.097 -17.5310  0.00  0.00     0.000 C
ATOM     46  C2  BGC C   4      22.280  -8.983 -18.1980  0.00  0.00     0.000 C
ATOM     47  C3  BGC C   4      22.344  -7.924 -17.0900  0.00  0.00     0.000 C
ATOM     48  C4  BGC C   4      21.049  -7.463 -16.4510  0.00  0.00     0.000 C
ATOM     49  C5  BGC C   4      20.379  -8.725 -15.8840  0.00  0.00     0.000 C
ATOM     50  O5  BGC C   4      20.206  -9.683 -16.8700  0.00  0.00     0.000 O
ATOM     51   O  BGC C   4      23.717  -9.225 -18.6930  0.00  0.00     0.000 O
ATOM     53  HD  BGC C   4      24.101  -8.486 -18.9280  0.00  0.00     0.000 HD
ATOM     53   O  BGC C   4      22.803  -6.739 -17.8940  0.00  0.00     0.000 O
ATOM     55  HD  BGC C   4      23.186  -5.999 -18.1290  0.00  0.00     0.000 HD
ATOM     55   C  BGC C   4      18.997  -8.426 -15.3640  0.00  0.00     0.000 C
ATOM     56   O  BGC C   4      18.097  -7.827 -16.3040  0.00  0.00     0.000 O
ATOM     58  HD  BGC C   4      18.481  -7.088 -16.5390  0.00  0.00     0.000 HD
BRANCH 45 58
ATOM     58  O4  BGC C   5      21.011 -11.073 -18.4480  0.00  0.00     0.000 O
BRANCH 58 62
ATOM     59  C1  BGC C   5      19.608 -13.666 -19.2580  0.00  0.00     0.000 C
ATOM     60  C2  BGC C   5      19.721 -12.869 -20.4600  0.00  0.00     0.000 C
ATOM     61  C3  BGC C   5      19.350 -11.402 -20.2600  0.00  0.00     0.000 C
ATOM     62  C4  BGC C   5      19.610 -11.021 -18.8100  0.00  0.00     0.000 C
ATOM     63  C5  BGC C   5      19.054 -12.132 -17.9480  0.00  0.00     0.000 C
ATOM     64  O5  BGC C   5      18.741 -13.377 -18.5690  0.00  0.00     0.000 O
ATOM     65   O  BGC C   5      16.769 -11.349 -18.0110  0.00  0.00     0.000 O
ATOM     67  HD  BGC C   5      17.525 -11.348 -17.5880  0.00  0.00     0.000 HD
ATOM     67   O  BGC C   5      16.769 -11.349 -18.0110  0.00  0.00     0.000 O
ATOM     69  HD  BGC C   5      17.525 -11.348 -17.5880  0.00  0.00     0.000 HD
ENDBRANCH 58 62
ENDBRANCH 45 58
ENDBRANCH 44 48
ENDBRANCH 31 44
ENDBRANCH 30 34
ENDBRANCH 17 30
ENDBRANCH 16 20
ENDBRANCH 1 16
TORSDOF 8
ENDMDL
MODEL 20
REMARK VINA RESULT:      -7.1      3.361      7.255
ROOT
ATOM      1  C1  BGC C   1      18.871   5.532 -11.5010  0.00  0.00     0.000 C
ATOM      2  C2  BGC C   1      19.926   6.637 -11.4880  0.00  0.00     0.000 C
ATOM      3  C3  BGC C   1      19.671   7.590 -10.3260  0.00  0.00     0.000 C
ATOM      4  C4  BGC C   1      18.230   8.074 -10.2850  0.00  0.00     0.000 C
ATOM      5  C5  BGC C   1      17.273   6.898 -10.4640  0.00  0.00     0.000 C
ATOM      6  O5  BGC C   1      17.601   6.063 -11.5280  0.00  0.00     0.000 O
ATOM      7   O  BGC C   1      21.183   6.019 -11.3460  0.00  0.00     0.000 O
ATOM      9  HD  BGC C   1      21.035   6.822 -11.6350  0.00  0.00     0.000 HD
ATOM      9   O  BGC C   1      20.599   8.677 -10.4300  0.00  0.00     0.000 O
ATOM     11  HD  BGC C   1      20.451   9.480 -10.7190  0.00  0.00     0.000 HD
ATOM     11   O  BGC C   1      18.042   8.700  -9.0210  0.00  0.00     0.000 O
ATOM     13  HD  BGC C   1      17.894   9.503  -9.3110  0.00  0.00     0.000 HD
ATOM     13   O  BGC C   1      15.760   8.137 -11.9850  0.00  0.00     0.000 O
ATOM     15  HD  BGC C   1      15.611   8.939 -12.2750  0.00  0.00     0.000 HD
ATOM     15   C  BGC C   1      15.860   7.463 -10.7000  0.00  0.00     0.000 C
ENDROOT
BRANCH 1 16
ATOM     16  O4  BGC C   2      19.026   4.775 -12.6780  0.00  0.00     0.000 O
BRANCH 16 20
ATOM     17  C1  BGC C   2      18.928   0.861 -13.8370  0.00  0.00     0.000 C
ATOM     18  C2  BGC C   2      17.625   1.425 -13.2910  0.00  0.00     0.000 C
ATOM     19  C3  BGC C   2      17.675   2.945 -13.2400  0.00  0.00     0.000 C
ATOM     20  C4  BGC C   2      18.908   3.381 -12.5220  0.00  0.00     0.000 C
ATOM     21  C5  BGC C   2      20.147   2.700 -13.0960  0.00  0.00     0.000 C
ATOM     22  O5  BGC C   2      20.009   1.311 -13.0720  0.00  0.00     0.000 O
ATOM     23   O  BGC C   2      16.544   0.986 -14.1270  0.00  0.00     0.000 O
ATOM     25  HD  BGC C   2      15.978   1.631 -14.2440  0.00  0.00     0.000 HD
ATOM     25   O  BGC C   2      16.524   3.428 -12.5580  0.00  0.00     0.000 O
ATOM     27  HD  BGC C   2      15.958   4.073 -12.6750  0.00  0.00     0.000 HD
ATOM     27   C  BGC C   2      21.472   3.075 -12.4000  0.00  0.00     0.000 C
ATOM     28   O  BGC C   2      21.398   2.849 -10.9830  0.00  0.00     0.000 O
ATOM     30  HD  BGC C   2      20.832   3.494 -11.1000  0.00  0.00     0.000 HD
BRANCH 17 30
ATOM     30  O4  BGC C   3      18.887  -0.549 -13.7720  0.00  0.00     0.000 O
BRANCH 30 34
ATOM     31  C1  BGC C   3      20.842  -3.813 -15.1380  0.00  0.00     0.000 C
ATOM     32  C2  BGC C   3      21.453  -3.140 -13.8850  0.00  0.00     0.000 C
ATOM     33  C3  BGC C   3      20.493  -2.185 -13.2650  0.00  0.00     0.000 C
ATOM     34  C4  BGC C   3      19.986  -1.235 -14.3530  0.00  0.00     0.000 C
ATOM     35  C5  BGC C   3      19.502  -1.956 -15.6360  0.00  0.00     0.000 C
ATOM     36  O5  BGC C   3      20.490  -2.845 -16.0950  0.00  0.00     0.000 O
ATOM     37   O  BGC C   3      21.926  -3.970 -12.8400  0.00  0.00     0.000 O
ATOM     39  HD  BGC C   3      21.520  -3.233 -13.0470  0.00  0.00     0.000 HD
ATOM     39   O  BGC C   3      21.141  -1.451 -12.1850  0.00  0.00     0.000 O
ATOM     41  HD  BGC C   3      20.735  -0.714 -12.3910  0.00  0.00     0.000 HD
ATOM     41   C  BGC C   3      19.155  -1.025 -16.8210  0.00  0.00     0.000 C
ATOM     42   O  BGC C   3      20.287  -0.256 -17.3650  0.00  0.00     0.000 O
ATOM     44  HD  BGC C   3      19.881   0.481 -17.5720  0.00  0.00     0.000 HD
BRANCH 31 44
ATOM     44  O4  BGC C   4      21.739  -4.704 -15.7120  0.00  0.00     0.000 O
BRANCH 44 48
ATOM     45  C1  BGC C   4      22.013  -8.504 -17.2110  0.00  0.00     0.000 C
ATOM     46  C2  BGC C   4      21.895  -7.447 -18.3560  0.00  0.00     0.000 C
ATOM     47  C3  BGC C   4      22.119  -6.132 -17.5990  0.00  0.00     0.000 C
ATOM     48  C4  BGC C   4      21.294  -5.860 -16.3570  0.00  0.00     0.000 C
ATOM     49  C5  BGC C   4      21.567  -7.029 -15.3970  0.00  0.00     0.000 C
ATOM     50  O5  BGC C   4      21.286  -8.244 -16.0000  0.00  0.00     0.000 O
ATOM     51   O  BGC C   4      22.820  -7.439 -19.5870  0.00  0.00     0.000 O
ATOM     53  HD  BGC C   4      22.704  -6.727 -20.0660  0.00  0.00     0.000 HD
ATOM     53   O  BGC C   4      21.590  -5.158 -18.6160  0.00  0.00     0.000 O
ATOM     55  HD  BGC C   4      21.474  -4.446 -19.0960  0.00  0.00     0.000 HD
ATOM     55   C  BGC C   4      20.675  -6.964 -14.1850  0.00  0.00     0.000 C
ATOM     56   O  BGC C   4      19.268  -6.925 -14.4510  0.00  0.00     0.000 O
ATOM     58  HD  BGC C   4      19.153  -6.213 -14.9310  0.00  0.00     0.000 HD
BRANCH 45 58
ATOM     58  O4  BGC C   5      21.603  -9.774 -17.6220  0.00  0.00     0.000 O
BRANCH 58 62
ATOM     59  C1  BGC C   5      19.035 -11.387 -18.0180  0.00  0.00     0.000 C
ATOM     60  C2  BGC C   5      20.081 -12.108 -18.7100  0.00  0.00     0.000 C
ATOM     61  C3  BGC C   5      20.991 -11.213 -19.5480  0.00  0.00     0.000 C
ATOM     62  C4  BGC C   5      21.005  -9.818 -18.9410  0.00  0.00     0.000 C
ATOM     63  C5  BGC C   5      19.575  -9.455 -18.6150  0.00  0.00     0.000 C
ATOM     64  O5  BGC C   5      18.601 -10.497 -18.5930  0.00  0.00     0.000 O
ATOM     65   O  BGC C   5      19.000  -8.752 -20.8530  0.00  0.00     0.000 O
ATOM     67  HD  BGC C   5      19.278  -8.516 -20.0680  0.00  0.00     0.000 HD
ATOM     67   O  BGC C   5      19.000  -8.752 -20.8530  0.00  0.00     0.000 O
ATOM     69  HD  BGC C   5      19.278  -8.516 -20.0680  0.00  0.00     0.000 HD
ENDBRANCH 58 62
ENDBRANCH 45 58
ENDBRANCH 44 48
ENDBRANCH 31 44
ENDBRANCH 30 34
ENDBRANCH 17 30
ENDBRANCH 16 20
ENDBRANCH 1 16
TORSDOF 8
ENDMDL
MODEL 21
REMARK VINA RESULT:      -7.0      2.569      6.006
ROOT
ATOM      1  C1  BGC C   1      20.387   4.337 -11.8350  0.00  0.00     0.000 C
ATOM      2  C2  BGC C   1      21.582   5.218 -11.4720  0.00  0.00     0.000 C
ATOM      3  C3  BGC C   1      21.149   6.311 -10.5020  0.00  0.00     0.000 C
ATOM      4  C4  BGC C   1      19.921   7.060 -10.9910  0.00  0.00     0.000 C
ATOM      5  C5  BGC C   1      18.858   6.076 -11.4710  0.00  0.00     0.000 C
ATOM      6  O5  BGC C   1      19.348   5.093 -12.3270  0.00  0.00     0.000 O
ATOM      7   O  BGC C   1      22.551   4.390 -10.8750  0.00  0.00     0.000 O
ATOM      9  HD  BGC C   1      22.686   5.174 -11.2180  0.00  0.00     0.000 HD
ATOM      9   O  BGC C   1      22.265   7.187 -10.2930  0.00  0.00     0.000 O
ATOM     11  HD  BGC C   1      22.399   7.971 -10.6360  0.00  0.00     0.000 HD
ATOM     11   O  BGC C   1      19.446   7.832  -9.8940  0.00  0.00     0.000 O
ATOM     13  HD  BGC C   1      19.580   8.616 -10.2360  0.00  0.00     0.000 HD
ATOM     13   O  BGC C   1      18.262   7.423 -13.4630  0.00  0.00     0.000 O
ATOM     15  HD  BGC C   1      18.396   8.207 -13.8060  0.00  0.00     0.000 HD
ATOM     15   C  BGC C   1      17.767   6.872 -12.2110  0.00  0.00     0.000 C
ENDROOT
BRANCH 1 16
ATOM     16  O4  BGC C   2      20.774   3.452 -12.8600  0.00  0.00     0.000 O
BRANCH 16 20
ATOM     17  C1  BGC C   2      19.707  -0.238 -14.2430  0.00  0.00     0.000 C
ATOM     18  C2  BGC C   2      18.843   0.922 -14.7110  0.00  0.00     0.000 C
ATOM     19  C3  BGC C   2      19.534   2.252 -14.4430  0.00  0.00     0.000 C
ATOM     20  C4  BGC C   2      19.963   2.313 -13.0150  0.00  0.00     0.000 C
ATOM     21  C5  BGC C   2      20.756   1.068 -12.6280  0.00  0.00     0.000 C
ATOM     22  O5  BGC C   2      20.024  -0.091 -12.8890  0.00  0.00     0.000 O
ATOM     23   O  BGC C   2      18.579   0.768 -16.1140  0.00  0.00     0.000 O
ATOM     25  HD  BGC C   2      18.625   1.536 -16.5110  0.00  0.00     0.000 HD
ATOM     25   O  BGC C   2      18.627   3.313 -14.7190  0.00  0.00     0.000 O
ATOM     27  HD  BGC C   2      18.673   4.081 -15.1160  0.00  0.00     0.000 HD
ATOM     27   C  BGC C   2      21.227   1.034 -11.1590  0.00  0.00     0.000 C
ATOM     28   O  BGC C   2      20.125   1.216 -10.2550  0.00  0.00     0.000 O
ATOM     30  HD  BGC C   2      20.171   1.984 -10.6520  0.00  0.00     0.000 HD
BRANCH 17 30
ATOM     30  O4  BGC C   3      18.996  -1.446 -14.4100  0.00  0.00     0.000 O
BRANCH 30 34
ATOM     31  C1  BGC C   3      19.623  -5.157 -15.8840  0.00  0.00     0.000 C
ATOM     32  C2  BGC C   3      19.702  -5.024 -14.3440  0.00  0.00     0.000 C
ATOM     33  C3  BGC C   3      19.124  -3.731 -13.8850  0.00  0.00     0.000 C
ATOM     34  C4  BGC C   3      19.774  -2.600 -14.6860  0.00  0.00     0.000 C
ATOM     35  C5  BGC C   3      19.780  -2.843 -16.2170  0.00  0.00     0.000 C
ATOM     36  O5  BGC C   3      20.323  -4.107 -16.5050  0.00  0.00     0.000 O
ATOM     37   O  BGC C   3      19.106  -6.034 -13.5510  0.00  0.00     0.000 O
ATOM     39  HD  BGC C   3      19.263  -5.187 -13.6400  0.00  0.00     0.000 HD
ATOM     39   O  BGC C   3      19.349  -3.558 -12.4540  0.00  0.00     0.000 O
ATOM     41  HD  BGC C   3      19.506  -2.711 -12.5430  0.00  0.00     0.000 HD
ATOM     41   C  BGC C   3      20.587  -1.813 -17.0410  0.00  0.00     0.000 C
ATOM     42   O  BGC C   3      22.035  -1.794 -16.7760  0.00  0.00     0.000 O
ATOM     44  HD  BGC C   3      22.192  -0.947 -16.8640  0.00  0.00     0.000 HD
BRANCH 31 44
ATOM     44  O4  BGC C   4      20.161  -6.365 -16.3080  0.00  0.00     0.000 O
BRANCH 44 48
ATOM     45  C1  BGC C   4      19.760  -9.354 -19.0760  0.00  0.00     0.000 C
ATOM     46  C2  BGC C   4      19.659  -7.944 -19.7420  0.00  0.00     0.000 C
ATOM     47  C3  BGC C   4      20.139  -7.024 -18.6120  0.00  0.00     0.000 C
ATOM     48  C4  BGC C   4      19.498  -7.160 -17.2450  0.00  0.00     0.000 C
ATOM     49  C5  BGC C   4      19.716  -8.619 -16.8140  0.00  0.00     0.000 C
ATOM     50  O5  BGC C   4      19.211  -9.498 -17.7570  0.00  0.00     0.000 O
ATOM     51   O  BGC C   4      20.436  -7.561 -21.0150  0.00  0.00     0.000 O
ATOM     53  HD  BGC C   4      20.364  -6.716 -21.1880  0.00  0.00     0.000 HD
ATOM     53   O  BGC C   4      19.635  -5.703 -19.1270  0.00  0.00     0.000 O
ATOM     55  HD  BGC C   4      19.563  -4.858 -19.3000  0.00  0.00     0.000 HD
ATOM     55   C  BGC C   4      18.980  -8.930 -15.5360  0.00  0.00     0.000 C
ATOM     56   O  BGC C   4      17.570  -8.678 -15.5570  0.00  0.00     0.000 O
ATOM     58  HD  BGC C   4      17.498  -7.832 -15.7300  0.00  0.00     0.000 HD
BRANCH 45 58
ATOM     58  O4  BGC C   5      19.142 -10.344 -19.8430  0.00  0.00     0.000 O
BRANCH 58 62
ATOM     59  C1  BGC C   5      19.284 -13.383 -19.5310  0.00  0.00     0.000 C
ATOM     60  C2  BGC C   5      20.541 -12.862 -19.0390  0.00  0.00     0.000 C
ATOM     61  C3  BGC C   5      21.155 -11.792 -19.9380  0.00  0.00     0.000 C
ATOM     62  C4  BGC C   5      20.040 -11.091 -20.7010  0.00  0.00     0.000 C
ATOM     63  C5  BGC C   5      19.110 -12.162 -21.2210  0.00  0.00     0.000 C
ATOM     64  O5  BGC C   5      19.213 -13.473 -20.6700  0.00  0.00     0.000 O
ATOM     65   O  BGC C   5      20.445 -12.702 -23.1610  0.00  0.00     0.000 O
ATOM     67  HD  BGC C   5      19.789 -12.237 -22.8380  0.00  0.00     0.000 HD
ATOM     67   O  BGC C   5      20.445 -12.702 -23.1610  0.00  0.00     0.000 O
ATOM     69  HD  BGC C   5      19.789 -12.237 -22.8380  0.00  0.00     0.000 HD
ENDBRANCH 58 62
ENDBRANCH 45 58
ENDBRANCH 44 48
ENDBRANCH 31 44
ENDBRANCH 30 34
ENDBRANCH 17 30
ENDBRANCH 16 20
ENDBRANCH 1 16
TORSDOF 8
ENDMDL
MODEL 22
REMARK VINA RESULT:      -6.8     22.357     24.834
ROOT
ATOM      1  C1  BGC C   1       1.843 -17.202 -27.4390  0.00  0.00     0.000 C
ATOM      2  C2  BGC C   1       1.585 -15.752 -27.0320  0.00  0.00     0.000 C
ATOM      3  C3  BGC C   1       1.027 -14.969 -28.2140  0.00  0.00     0.000 C
ATOM      4  C4  BGC C   1       1.867 -15.147 -29.4690  0.00  0.00     0.000 C
ATOM      5  C5  BGC C   1       2.190 -16.623 -29.6830  0.00  0.00     0.000 C
ATOM      6  O5  BGC C   1       2.662 -17.266 -28.5430  0.00  0.00     0.000 O
ATOM      7   O  BGC C   1       0.656 -15.769 -25.9740  0.00  0.00     0.000 O
ATOM      9  HD  BGC C   1       1.183 -15.115 -26.1840  0.00  0.00     0.000 HD
ATOM      9   O  BGC C   1       0.924 -13.592 -27.8270  0.00  0.00     0.000 O
ATOM     11  HD  BGC C   1       1.452 -12.939 -28.0380  0.00  0.00     0.000 HD
ATOM     11   O  BGC C   1       1.103 -14.627 -30.5520  0.00  0.00     0.000 O
ATOM     13  HD  BGC C   1       1.630 -13.973 -30.7620  0.00  0.00     0.000 HD
ATOM     13   O  BGC C   1       4.540 -16.192 -30.3370  0.00  0.00     0.000 O
ATOM     15  HD  BGC C   1       5.068 -15.538 -30.5470  0.00  0.00     0.000 HD
ATOM     15   C  BGC C   1       3.262 -16.723 -30.7840  0.00  0.00     0.000 C
ENDROOT
BRANCH 1 16
ATOM     16  O4  BGC C   2       2.518 -17.852 -26.3870  0.00  0.00     0.000 O
BRANCH 16 20
ATOM     17  C1  BGC C   2       2.496 -21.550 -24.6550  0.00  0.00     0.000 C
ATOM     18  C2  BGC C   2       3.470 -21.362 -25.8080  0.00  0.00     0.000 C
ATOM     19  C3  BGC C   2       3.653 -19.884 -26.1240  0.00  0.00     0.000 C
ATOM     20  C4  BGC C   2       2.318 -19.243 -26.3070  0.00  0.00     0.000 C
ATOM     21  C5  BGC C   2       1.394 -19.556 -25.1340  0.00  0.00     0.000 C
ATOM     22  O5  BGC C   2       1.275 -20.935 -24.9480  0.00  0.00     0.000 O
ATOM     23   O  BGC C   2       4.727 -21.959 -25.4560  0.00  0.00     0.000 O
ATOM     25  HD  BGC C   2       5.380 -21.456 -25.7220  0.00  0.00     0.000 HD
ATOM     25   O  BGC C   2       4.418 -19.753 -27.3160  0.00  0.00     0.000 O
ATOM     27  HD  BGC C   2       5.071 -19.250 -27.5830  0.00  0.00     0.000 HD
ATOM     27   C  BGC C   2      -0.020 -18.950 -25.2460  0.00  0.00     0.000 C
ATOM     28   O  BGC C   2      -0.650 -19.322 -26.4820  0.00  0.00     0.000 O
ATOM     30  HD  BGC C   2       0.003 -18.820 -26.7480  0.00  0.00     0.000 HD
BRANCH 17 30
ATOM     30  O4  BGC C   3       2.269 -22.929 -24.4580  0.00  0.00     0.000 O
BRANCH 30 34
ATOM     31  C1  BGC C   3       1.453 -25.528 -21.4720  0.00  0.00     0.000 C
ATOM     32  C2  BGC C   3       0.224 -24.958 -22.2200  0.00  0.00     0.000 C
ATOM     33  C3  BGC C   3       0.626 -24.303 -23.4950  0.00  0.00     0.000 C
ATOM     34  C4  BGC C   3       1.746 -23.304 -23.1930  0.00  0.00     0.000 C
ATOM     35  C5  BGC C   3       2.894 -23.894 -22.3340  0.00  0.00     0.000 C
ATOM     36  O5  BGC C   3       2.372 -24.504 -21.1810  0.00  0.00     0.000 O
ATOM     37   O  BGC C   3      -0.837 -25.839 -22.5380  0.00  0.00     0.000 O
ATOM     39  HD  BGC C   3      -0.358 -25.166 -22.7970  0.00  0.00     0.000 HD
ATOM     39   O  BGC C   3      -0.521 -23.639 -24.1040  0.00  0.00     0.000 O
ATOM     41  HD  BGC C   3      -0.041 -22.966 -24.3630  0.00  0.00     0.000 HD
ATOM     41   C  BGC C   3       3.949 -22.869 -21.8570  0.00  0.00     0.000 C
ATOM     42   O  BGC C   3       3.446 -21.831 -20.9420  0.00  0.00     0.000 O
ATOM     44  HD  BGC C   3       3.926 -21.158 -21.2010  0.00  0.00     0.000 HD
BRANCH 31 44
ATOM     44  O4  BGC C   4       1.074 -26.140 -20.2840  0.00  0.00     0.000 O
BRANCH 44 48
ATOM     45  C1  BGC C   4       2.437 -28.582 -17.2950  0.00  0.00     0.000 C
ATOM     46  C2  BGC C   4       2.541 -27.077 -16.8910  0.00  0.00     0.000 C
ATOM     47  C3  BGC C   4       1.711 -26.396 -17.9880  0.00  0.00     0.000 C
ATOM     48  C4  BGC C   4       2.022 -26.718 -19.4370  0.00  0.00     0.000 C
ATOM     49  C5  BGC C   4       1.865 -28.241 -19.5790  0.00  0.00     0.000 C
ATOM     50  O5  BGC C   4       2.670 -28.911 -18.6730  0.00  0.00     0.000 O
ATOM     51   O  BGC C   4       2.050 -26.537 -15.5360  0.00  0.00     0.000 O
ATOM     53  HD  BGC C   4       2.070 -25.672 -15.5120  0.00  0.00     0.000 HD
ATOM     53   O  BGC C   4       2.177 -24.976 -17.8170  0.00  0.00     0.000 O
ATOM     55  HD  BGC C   4       2.197 -24.110 -17.7930  0.00  0.00     0.000 HD
ATOM     55   C  BGC C   4       2.308 -28.713 -20.9400  0.00  0.00     0.000 C
ATOM     56   O  BGC C   4       3.647 -28.365 -21.3110  0.00  0.00     0.000 O
ATOM     58  HD  BGC C   4       3.666 -27.500 -21.2880  0.00  0.00     0.000 HD
BRANCH 45 58
ATOM     58  O4  BGC C   5       3.321 -29.384 -16.5700  0.00  0.00     0.000 O
BRANCH 58 62
ATOM     59  C1  BGC C   5       4.649 -31.848 -15.3370  0.00  0.00     0.000 C
ATOM     60  C2  BGC C   5       5.694 -30.861 -15.5040  0.00  0.00     0.000 C
ATOM     61  C3  BGC C   5       5.661 -30.157 -16.8580  0.00  0.00     0.000 C
ATOM     62  C4  BGC C   5       4.233 -30.164 -17.3830  0.00  0.00     0.000 C
ATOM     63  C5  BGC C   5       3.683 -31.555 -17.1700  0.00  0.00     0.000 C
ATOM     64  O5  BGC C   5       4.381 -32.430 -16.2860  0.00  0.00     0.000 O
ATOM     65   O  BGC C   5       4.686 -32.505 -19.1520  0.00  0.00     0.000 O
ATOM     67  HD  BGC C   5       3.987 -32.134 -18.7990  0.00  0.00     0.000 HD
ATOM     67   O  BGC C   5       4.686 -32.505 -19.1520  0.00  0.00     0.000 O
ATOM     69  HD  BGC C   5       3.987 -32.134 -18.7990  0.00  0.00     0.000 HD
ENDBRANCH 58 62
ENDBRANCH 45 58
ENDBRANCH 44 48
ENDBRANCH 31 44
ENDBRANCH 30 34
ENDBRANCH 17 30
ENDBRANCH 16 20
ENDBRANCH 1 16
TORSDOF 8
ENDMDL
MODEL 23
REMARK VINA RESULT:      -6.7      2.865      5.908
ROOT
ATOM      1  C1  BGC C   1      20.389  -4.406 -16.5370  0.00  0.00     0.000 C
ATOM      2  C2  BGC C   1      20.340  -3.097 -17.3240  0.00  0.00     0.000 C
ATOM      3  C3  BGC C   1      20.765  -1.936 -16.4330  0.00  0.00     0.000 C
ATOM      4  C4  BGC C   1      20.015  -1.921 -15.1110  0.00  0.00     0.000 C
ATOM      5  C5  BGC C   1      20.000  -3.318 -14.4980  0.00  0.00     0.000 C
ATOM      6  O5  BGC C   1      19.632  -4.320 -15.3910  0.00  0.00     0.000 O
ATOM      7   O  BGC C   1      21.222  -3.226 -18.4140  0.00  0.00     0.000 O
ATOM      9  HD  BGC C   1      20.581  -2.648 -18.3370  0.00  0.00     0.000 HD
ATOM      9   O  BGC C   1      20.578  -0.719 -17.1690  0.00  0.00     0.000 O
ATOM     11  HD  BGC C   1      19.937  -0.142 -17.0920  0.00  0.00     0.000 HD
ATOM     11   O  BGC C   1      20.691  -0.997 -14.2650  0.00  0.00     0.000 O
ATOM     13  HD  BGC C   1      20.050  -0.420 -14.1880  0.00  0.00     0.000 HD
ATOM     13   O  BGC C   1      17.631  -3.170 -13.7870  0.00  0.00     0.000 O
ATOM     15  HD  BGC C   1      16.990  -2.593 -13.7100  0.00  0.00     0.000 HD
ATOM     15   C  BGC C   1      19.003  -3.315 -13.3250  0.00  0.00     0.000 C
ENDROOT
BRANCH 1 16
ATOM     16  O4  BGC C   2      19.826  -5.427 -17.3270  0.00  0.00     0.000 O
BRANCH 16 20
ATOM     17  C1  BGC C   2      19.579  -9.501 -17.2010  0.00  0.00     0.000 C
ATOM     18  C2  BGC C   2      18.440  -8.745 -16.5350  0.00  0.00     0.000 C
ATOM     19  C3  BGC C   2      18.445  -7.282 -16.9540  0.00  0.00     0.000 C
ATOM     20  C4  BGC C   2      19.804  -6.706 -16.7370  0.00  0.00     0.000 C
ATOM     21  C5  BGC C   2      20.879  -7.579 -17.3780  0.00  0.00     0.000 C
ATOM     22  O5  BGC C   2      20.802  -8.890 -16.9070  0.00  0.00     0.000 O
ATOM     23   O  BGC C   2      17.197  -9.367 -16.8970  0.00  0.00     0.000 O
ATOM     25  HD  BGC C   2      16.597  -8.762 -17.0530  0.00  0.00     0.000 HD
ATOM     25   O  BGC C   2      17.490  -6.570 -16.1770  0.00  0.00     0.000 O
ATOM     27  HD  BGC C   2      16.890  -5.965 -16.3320  0.00  0.00     0.000 HD
ATOM     27   C  BGC C   2      22.323  -7.070 -17.1890  0.00  0.00     0.000 C
ATOM     28   O  BGC C   2      22.623  -6.861 -15.7990  0.00  0.00     0.000 O
ATOM     30  HD  BGC C   2      22.022  -6.257 -15.9540  0.00  0.00     0.000 HD
BRANCH 17 30
ATOM     30  O4  BGC C   3      19.608 -10.825 -16.7110  0.00  0.00     0.000 O
BRANCH 30 34
ATOM     31  C1  BGC C   3      20.324 -14.626 -17.8850  0.00  0.00     0.000 C
ATOM     32  C2  BGC C   3      21.527 -13.657 -17.9800  0.00  0.00     0.000 C
ATOM     33  C3  BGC C   3      21.271 -12.405 -17.2150  0.00  0.00     0.000 C
ATOM     34  C4  BGC C   3      19.920 -11.837 -17.6560  0.00  0.00     0.000 C
ATOM     35  C5  BGC C   3      18.775 -12.882 -17.6630  0.00  0.00     0.000 C
ATOM     36  O5  BGC C   3      19.162 -14.019 -18.3930  0.00  0.00     0.000 O
ATOM     37   O  BGC C   3      22.800 -14.123 -17.5720  0.00  0.00     0.000 O
ATOM     39  HD  BGC C   3      22.250 -13.454 -17.5900  0.00  0.00     0.000 HD
ATOM     39   O  BGC C   3      22.345 -11.445 -17.4450  0.00  0.00     0.000 O
ATOM     41  HD  BGC C   3      21.795 -10.777 -17.4620  0.00  0.00     0.000 HD
ATOM     41   C  BGC C   3      17.442 -12.392 -18.2750  0.00  0.00     0.000 C
ATOM     42   O  BGC C   3      17.497 -12.056 -19.7080  0.00  0.00     0.000 O
ATOM     44  HD  BGC C   3      16.947 -11.387 -19.7250  0.00  0.00     0.000 HD
BRANCH 31 44
ATOM     44  O4  BGC C   4      20.568 -15.793 -18.5980  0.00  0.00     0.000 O
BRANCH 44 48
ATOM     45  C1  BGC C   4      19.943 -19.837 -18.6930  0.00  0.00     0.000 C
ATOM     46  C2  BGC C   4      18.594 -19.051 -18.7580  0.00  0.00     0.000 C
ATOM     47  C3  BGC C   4      19.074 -17.618 -19.0220  0.00  0.00     0.000 C
ATOM     48  C4  BGC C   4      20.140 -17.033 -18.1180  0.00  0.00     0.000 C
ATOM     49  C5  BGC C   4      21.349 -17.978 -18.2130  0.00  0.00     0.000 C
ATOM     50  O5  BGC C   4      20.991 -19.277 -17.8880  0.00  0.00     0.000 O
ATOM     51   O  BGC C   4      17.489 -19.368 -19.7830  0.00  0.00     0.000 O
ATOM     53  HD  BGC C   4      16.861 -18.772 -19.7660  0.00  0.00     0.000 HD
ATOM     53   O  BGC C   4      17.826 -16.860 -18.6620  0.00  0.00     0.000 O
ATOM     55  HD  BGC C   4      17.197 -16.265 -18.6450  0.00  0.00     0.000 HD
ATOM     55   C  BGC C   4      22.424 -17.596 -17.2290  0.00  0.00     0.000 C
ATOM     56   O  BGC C   4      22.015 -17.532 -15.8580  0.00  0.00     0.000 O
ATOM     58  HD  BGC C   4      21.386 -16.937 -15.8410  0.00  0.00     0.000 HD
BRANCH 45 58
ATOM     58  O4  BGC C   5      19.771 -21.140 -18.2190  0.00  0.00     0.000 O
BRANCH 58 62
ATOM     59  C1  BGC C   5      19.705 -23.825 -19.6830  0.00  0.00     0.000 C
ATOM     60  C2  BGC C   5      19.787 -24.130 -18.2710  0.00  0.00     0.000 C
ATOM     61  C3  BGC C   5      20.809 -23.282 -17.5180  0.00  0.00     0.000 C
ATOM     62  C4  BGC C   5      20.971 -21.952 -18.2390  0.00  0.00     0.000 C
ATOM     63  C5  BGC C   5      21.085 -22.252 -19.7150  0.00  0.00     0.000 C
ATOM     64  O5  BGC C   5      20.702 -23.547 -20.1740  0.00  0.00     0.000 O
ATOM     65   O  BGC C   5      23.438 -22.799 -19.6570  0.00  0.00     0.000 O
ATOM     67  HD  BGC C   5      22.838 -22.188 -19.7900  0.00  0.00     0.000 HD
ATOM     67   O  BGC C   5      23.438 -22.799 -19.6570  0.00  0.00     0.000 O
ATOM     69  HD  BGC C   5      22.838 -22.188 -19.7900  0.00  0.00     0.000 HD
ENDBRANCH 58 62
ENDBRANCH 45 58
ENDBRANCH 44 48
ENDBRANCH 31 44
ENDBRANCH 30 34
ENDBRANCH 17 30
ENDBRANCH 16 20
ENDBRANCH 1 16
TORSDOF 8
ENDMDL
MODEL 24
REMARK VINA RESULT:      -6.6      5.863     15.555
ROOT
ATOM      1  C1  BGC C   1      15.237 -15.970 -28.4210  0.00  0.00     0.000 C
ATOM      2  C2  BGC C   1      14.234 -17.123 -28.4330  0.00  0.00     0.000 C
ATOM      3  C3  BGC C   1      14.094 -17.678 -29.8450  0.00  0.00     0.000 C
ATOM      4  C4  BGC C   1      13.833 -16.586 -30.8700  0.00  0.00     0.000 C
ATOM      5  C5  BGC C   1      14.797 -15.423 -30.6570  0.00  0.00     0.000 C
ATOM      6  O5  BGC C   1      14.887 -15.002 -29.3330  0.00  0.00     0.000 O
ATOM      7   O  BGC C   1      14.720 -18.116 -27.5620  0.00  0.00     0.000 O
ATOM      9  HD  BGC C   1      13.905 -18.034 -27.8440  0.00  0.00     0.000 HD
ATOM      9   O  BGC C   1      13.051 -18.663 -29.8340  0.00  0.00     0.000 O
ATOM     11  HD  BGC C   1      12.237 -18.581 -30.1160  0.00  0.00     0.000 HD
ATOM     11   O  BGC C   1      14.016 -17.174 -32.1530  0.00  0.00     0.000 O
ATOM     13  HD  BGC C   1      13.201 -17.092 -32.4350  0.00  0.00     0.000 HD
ATOM     13   O  BGC C   1      13.063 -13.692 -31.0240  0.00  0.00     0.000 O
ATOM     15  HD  BGC C   1      12.248 -13.609 -31.3060  0.00  0.00     0.000 HD
ATOM     15   C  BGC C   1      14.317 -14.239 -31.5170  0.00  0.00     0.000 C
ENDROOT
BRANCH 1 16
ATOM     16  O4  BGC C   2      15.214 -15.366 -27.1490  0.00  0.00     0.000 O
BRANCH 16 20
ATOM     17  C1  BGC C   2      17.813 -13.396 -24.6920  0.00  0.00     0.000 C
ATOM     18  C2  BGC C   2      17.133 -12.549 -25.7560  0.00  0.00     0.000 C
ATOM     19  C3  BGC C   2      15.944 -13.287 -26.3550  0.00  0.00     0.000 C
ATOM     20  C4  BGC C   2      16.372 -14.645 -26.8000  0.00  0.00     0.000 C
ATOM     21  C5  BGC C   2      17.110 -15.380 -25.6850  0.00  0.00     0.000 C
ATOM     22  O5  BGC C   2      18.195 -14.631 -25.2270  0.00  0.00     0.000 O
ATOM     23   O  BGC C   2      16.709 -11.313 -25.1620  0.00  0.00     0.000 O
ATOM     25  HD  BGC C   2      15.927 -11.092 -25.4620  0.00  0.00     0.000 HD
ATOM     25   O  BGC C   2      15.448 -12.550 -27.4650  0.00  0.00     0.000 O
ATOM     27  HD  BGC C   2      14.665 -12.330 -27.7650  0.00  0.00     0.000 HD
ATOM     27   C  BGC C   2      17.609 -16.791 -26.0620  0.00  0.00     0.000 C
ATOM     28   O  BGC C   2      18.418 -16.757 -27.2490  0.00  0.00     0.000 O
ATOM     30  HD  BGC C   2      17.636 -16.537 -27.5480  0.00  0.00     0.000 HD
BRANCH 17 30
ATOM     30  O4  BGC C   3      18.969 -12.728 -24.2340  0.00  0.00     0.000 O
BRANCH 30 34
ATOM     31  C1  BGC C   3      19.740 -11.196 -20.5740  0.00  0.00     0.000 C
ATOM     32  C2  BGC C   3      20.878 -12.033 -21.2040  0.00  0.00     0.000 C
ATOM     33  C3  BGC C   3      20.644 -12.253 -22.6580  0.00  0.00     0.000 C
ATOM     34  C4  BGC C   3      19.229 -12.806 -22.8400  0.00  0.00     0.000 C
ATOM     35  C5  BGC C   3      18.140 -12.001 -22.0850  0.00  0.00     0.000 C
ATOM     36  O5  BGC C   3      18.503 -11.845 -20.7360  0.00  0.00     0.000 O
ATOM     37   O  BGC C   3      22.207 -11.563 -21.0780  0.00  0.00     0.000 O
ATOM     39  HD  BGC C   3      21.627 -11.953 -21.5890  0.00  0.00     0.000 HD
ATOM     39   O  BGC C   3      21.641 -13.171 -23.1960  0.00  0.00     0.000 O
ATOM     41  HD  BGC C   3      21.061 -13.562 -23.7060  0.00  0.00     0.000 HD
ATOM     41   C  BGC C   3      16.730 -12.634 -22.0970  0.00  0.00     0.000 C
ATOM     42   O  BGC C   3      16.618 -13.931 -21.4090  0.00  0.00     0.000 O
ATOM     44  HD  BGC C   3      16.038 -14.322 -21.9200  0.00  0.00     0.000 HD
BRANCH 31 44
ATOM     44  O4  BGC C   4      19.963 -10.991 -19.2180  0.00  0.00     0.000 O
BRANCH 44 48
ATOM     45  C1  BGC C   4      20.210  -8.118 -16.3130  0.00  0.00     0.000 C
ATOM     46  C2  BGC C   4      18.747  -8.645 -16.4690  0.00  0.00     0.000 C
ATOM     47  C3  BGC C   4      18.949  -9.886 -17.3490  0.00  0.00     0.000 C
ATOM     48  C4  BGC C   4      19.744  -9.743 -18.6320  0.00  0.00     0.000 C
ATOM     49  C5  BGC C   4      21.124  -9.204 -18.2220  0.00  0.00     0.000 C
ATOM     50  O5  BGC C   4      21.005  -8.026 -17.5040  0.00  0.00     0.000 O
ATOM     51   O  BGC C   4      17.875  -9.063 -15.2710  0.00  0.00     0.000 O
ATOM     53  HD  BGC C   4      17.140  -9.440 -15.5300  0.00  0.00     0.000 HD
ATOM     53   O  BGC C   4      17.535 -10.103 -17.8120  0.00  0.00     0.000 O
ATOM     55  HD  BGC C   4      16.799 -10.481 -18.0710  0.00  0.00     0.000 HD
ATOM     55   C  BGC C   4      21.960  -8.861 -19.4280  0.00  0.00     0.000 C
ATOM     56   O  BGC C   4      21.372  -7.930 -20.3450  0.00  0.00     0.000 O
ATOM     58  HD  BGC C   4      20.636  -8.307 -20.6040  0.00  0.00     0.000 HD
BRANCH 45 58
ATOM     58  O4  BGC C   5      20.252  -6.844 -15.7410  0.00  0.00     0.000 O
BRANCH 58 62
ATOM     59  C1  BGC C   5      22.370  -4.791 -14.9340  0.00  0.00     0.000 C
ATOM     60  C2  BGC C   5      23.016  -6.084 -14.8890  0.00  0.00     0.000 C
ATOM     61  C3  BGC C   5      22.179  -7.165 -14.2110  0.00  0.00     0.000 C
ATOM     62  C4  BGC C   5      20.705  -6.816 -14.3650  0.00  0.00     0.000 C
ATOM     63  C5  BGC C   5      20.557  -5.346 -14.0480  0.00  0.00     0.000 C
ATOM     64  O5  BGC C   5      21.732  -4.539 -14.0160  0.00  0.00     0.000 O
ATOM     65   O  BGC C   5      20.500  -5.633 -11.6500  0.00  0.00     0.000 O
ATOM     67  HD  BGC C   5      20.044  -5.559 -12.3830  0.00  0.00     0.000 HD
ATOM     67   O  BGC C   5      20.500  -5.633 -11.6500  0.00  0.00     0.000 O
ATOM     69  HD  BGC C   5      20.044  -5.559 -12.3830  0.00  0.00     0.000 HD
ENDBRANCH 58 62
ENDBRANCH 45 58
ENDBRANCH 44 48
ENDBRANCH 31 44
ENDBRANCH 30 34
ENDBRANCH 17 30
ENDBRANCH 16 20
ENDBRANCH 1 16
TORSDOF 8
ENDMDL
MODEL 25
REMARK VINA RESULT:      -6.5     14.259     20.649
ROOT
ATOM      1  C1  BGC C   1       4.606  -6.940 -30.6760  0.00  0.00     0.000 C
ATOM      2  C2  BGC C   1       3.509  -6.690 -31.7100  0.00  0.00     0.000 C
ATOM      3  C3  BGC C   1       2.638  -7.932 -31.8580  0.00  0.00     0.000 C
ATOM      4  C4  BGC C   1       3.463  -9.188 -32.0850  0.00  0.00     0.000 C
ATOM      5  C5  BGC C   1       4.620  -9.247 -31.0920  0.00  0.00     0.000 C
ATOM      6  O5  BGC C   1       5.340  -8.059 -30.9970  0.00  0.00     0.000 O
ATOM      7   O  BGC C   1       2.738  -5.604 -31.2540  0.00  0.00     0.000 O
ATOM      9  HD  BGC C   1       2.771  -5.906 -32.0650  0.00  0.00     0.000 HD
ATOM      9   O  BGC C   1       1.710  -7.700 -32.9260  0.00  0.00     0.000 O
ATOM     11  HD  BGC C   1       1.743  -8.002 -33.7370  0.00  0.00     0.000 HD
ATOM     11   O  BGC C   1       2.584 -10.294 -31.9130  0.00  0.00     0.000 O
ATOM     13  HD  BGC C   1       2.617 -10.596 -32.7240  0.00  0.00     0.000 HD
ATOM     13   O  BGC C   1       6.258 -10.030 -32.7780  0.00  0.00     0.000 O
ATOM     15  HD  BGC C   1       6.291 -10.332 -33.5890  0.00  0.00     0.000 HD
ATOM     15   C  BGC C   1       5.578 -10.367 -31.5370  0.00  0.00     0.000 C
ENDROOT
BRANCH 1 16
ATOM     16  O4  BGC C   2       5.494  -5.847 -30.6890  0.00  0.00     0.000 O
BRANCH 16 20
ATOM     17  C1  BGC C   2       7.705  -3.666 -28.0370  0.00  0.00     0.000 C
ATOM     18  C2  BGC C   2       8.065  -5.139 -28.1500  0.00  0.00     0.000 C
ATOM     19  C3  BGC C   2       7.446  -5.753 -29.3980  0.00  0.00     0.000 C
ATOM     20  C4  BGC C   2       5.985  -5.450 -29.4310  0.00  0.00     0.000 C
ATOM     21  C5  BGC C   2       5.729  -3.959 -29.2340  0.00  0.00     0.000 C
ATOM     22  O5  BGC C   2       6.315  -3.505 -28.0500  0.00  0.00     0.000 O
ATOM     23   O  BGC C   2       9.494  -5.265 -28.1850  0.00  0.00     0.000 O
ATOM     25  HD  BGC C   2       9.725  -5.869 -28.7610  0.00  0.00     0.000 HD
ATOM     25   O  BGC C   2       7.646  -7.161 -29.3750  0.00  0.00     0.000 O
ATOM     27  HD  BGC C   2       7.877  -7.765 -29.9510  0.00  0.00     0.000 HD
ATOM     27   C  BGC C   2       4.241  -3.554 -29.2340  0.00  0.00     0.000 C
ATOM     28   O  BGC C   2       3.494  -4.313 -28.2690  0.00  0.00     0.000 O
ATOM     30  HD  BGC C   2       3.725  -4.917 -28.8460  0.00  0.00     0.000 HD
BRANCH 17 30
ATOM     30  O4  BGC C   3       8.205  -3.156 -26.8200  0.00  0.00     0.000 O
BRANCH 30 34
ATOM     31  C1  BGC C   3      10.307  -0.029 -25.3590  0.00  0.00     0.000 C
ATOM     32  C2  BGC C   3       8.789   0.209 -25.5400  0.00  0.00     0.000 C
ATOM     33  C3  BGC C   3       8.063  -1.075 -25.7430  0.00  0.00     0.000 C
ATOM     34  C4  BGC C   3       8.756  -1.849 -26.8660  0.00  0.00     0.000 C
ATOM     35  C5  BGC C   3      10.294  -1.951 -26.6990  0.00  0.00     0.000 C
ATOM     36  O5  BGC C   3      10.843  -0.674 -26.4870  0.00  0.00     0.000 O
ATOM     37   O  BGC C   3       8.093   0.909 -24.5250  0.00  0.00     0.000 O
ATOM     39  HD  BGC C   3       8.068   0.263 -25.1010  0.00  0.00     0.000 HD
ATOM     39   O  BGC C   3       6.665  -0.817 -26.0660  0.00  0.00     0.000 O
ATOM     41  HD  BGC C   3       6.640  -1.463 -26.6420  0.00  0.00     0.000 HD
ATOM     41   C  BGC C   3      11.045  -2.565 -27.9030  0.00  0.00     0.000 C
ATOM     42   O  BGC C   3      10.970  -1.788 -29.1520  0.00  0.00     0.000 O
ATOM     44  HD  BGC C   3      10.945  -2.434 -29.7280  0.00  0.00     0.000 HD
BRANCH 31 44
ATOM     44  O4  BGC C   4      10.981   1.171 -25.1680  0.00  0.00     0.000 O
BRANCH 44 48
ATOM     45  C1  BGC C   4      14.190   2.821 -23.2360  0.00  0.00     0.000 C
ATOM     46  C2  BGC C   4      14.523   2.513 -24.7300  0.00  0.00     0.000 C
ATOM     47  C3  BGC C   4      13.135   2.213 -25.3100  0.00  0.00     0.000 C
ATOM     48  C4  BGC C   4      12.257   1.199 -24.6020  0.00  0.00     0.000 C
ATOM     49  C5  BGC C   4      12.086   1.712 -23.1630  0.00  0.00     0.000 C
ATOM     50  O5  BGC C   4      13.315   1.908 -22.5550  0.00  0.00     0.000 O
ATOM     51   O  BGC C   4      15.206   3.529 -25.6630  0.00  0.00     0.000 O
ATOM     53  HD  BGC C   4      15.214   3.251 -26.4840  0.00  0.00     0.000 HD
ATOM     53   O  BGC C   4      13.534   1.528 -26.5890  0.00  0.00     0.000 O
ATOM     55  HD  BGC C   4      13.542   1.251 -27.4090  0.00  0.00     0.000 HD
ATOM     55   C  BGC C   4      11.366   0.705 -22.3040  0.00  0.00     0.000 C
ATOM     56   O  BGC C   4      11.959  -0.597 -22.2450  0.00  0.00     0.000 O
ATOM     58  HD  BGC C   4      11.967  -0.875 -23.0660  0.00  0.00     0.000 HD
BRANCH 45 58
ATOM     58  O4  BGC C   5      15.339   2.891 -22.4430  0.00  0.00     0.000 O
BRANCH 58 62
ATOM     59  C1  BGC C   5      16.596   5.643 -22.8840  0.00  0.00     0.000 C
ATOM     60  C2  BGC C   5      17.430   4.963 -21.9170  0.00  0.00     0.000 C
ATOM     61  C3  BGC C   5      16.641   4.246 -20.8240  0.00  0.00     0.000 C
ATOM     62  C4  BGC C   5      15.274   3.865 -21.3730  0.00  0.00     0.000 C
ATOM     63  C5  BGC C   5      14.737   5.066 -22.1150  0.00  0.00     0.000 C
ATOM     64  O5  BGC C   5      15.645   6.113 -22.4530  0.00  0.00     0.000 O
ATOM     65   O  BGC C   5      13.914   6.203 -20.1490  0.00  0.00     0.000 O
ATOM     67  HD  BGC C   5      13.734   5.669 -20.8070  0.00  0.00     0.000 HD
ATOM     67   O  BGC C   5      13.914   6.203 -20.1490  0.00  0.00     0.000 O
ATOM     69  HD  BGC C   5      13.734   5.669 -20.8070  0.00  0.00     0.000 HD
ENDBRANCH 58 62
ENDBRANCH 45 58
ENDBRANCH 44 48
ENDBRANCH 31 44
ENDBRANCH 30 34
ENDBRANCH 17 30
ENDBRANCH 16 20
ENDBRANCH 1 16
TORSDOF 8
ENDMDL
MODEL 26
REMARK VINA RESULT:      -6.5     21.455     26.596
ROOT
ATOM      1  C1  BGC C   1       0.635 -27.994 -17.8500  0.00  0.00     0.000 C
ATOM      2  C2  BGC C   1       0.686 -29.496 -18.1260  0.00  0.00     0.000 C
ATOM      3  C3  BGC C   1      -0.112 -30.248 -17.0670  0.00  0.00     0.000 C
ATOM      4  C4  BGC C   1       0.274 -29.838 -15.6560  0.00  0.00     0.000 C
ATOM      5  C5  BGC C   1       0.341 -28.317 -15.5480  0.00  0.00     0.000 C
ATOM      6  O5  BGC C   1       1.062 -27.711 -16.5730  0.00  0.00     0.000 O
ATOM      7   O  BGC C   1       0.132 -29.711 -19.4010  0.00  0.00     0.000 O
ATOM      9  HD  BGC C   1       0.642 -30.257 -18.9640  0.00  0.00     0.000 HD
ATOM      9   O  BGC C   1       0.071 -31.653 -17.2870  0.00  0.00     0.000 O
ATOM     11  HD  BGC C   1       0.581 -32.199 -16.8500  0.00  0.00     0.000 HD
ATOM     11   O  BGC C   1      -0.718 -30.370 -14.7860  0.00  0.00     0.000 O
ATOM     13  HD  BGC C   1      -0.208 -30.917 -14.3490  0.00  0.00     0.000 HD
ATOM     13   O  BGC C   1       2.410 -28.330 -14.1860  0.00  0.00     0.000 O
ATOM     15  HD  BGC C   1       2.920 -28.876 -13.7480  0.00  0.00     0.000 HD
ATOM     15   C  BGC C   1       1.003 -27.961 -14.2040  0.00  0.00     0.000 C
ENDROOT
BRANCH 1 16
ATOM     16  O4  BGC C   2       1.519 -27.344 -18.7330  0.00  0.00     0.000 O
BRANCH 16 20
ATOM     17  C1  BGC C   2       1.720 -23.836 -20.8130  0.00  0.00     0.000 C
ATOM     18  C2  BGC C   2       2.012 -23.743 -19.3240  0.00  0.00     0.000 C
ATOM     19  C3  BGC C   2       2.266 -25.124 -18.7370  0.00  0.00     0.000 C
ATOM     20  C4  BGC C   2       1.149 -26.039 -19.1100  0.00  0.00     0.000 C
ATOM     21  C5  BGC C   2       0.887 -26.000 -20.6130  0.00  0.00     0.000 C
ATOM     22  O5  BGC C   2       0.640 -24.695 -21.0420  0.00  0.00     0.000 O
ATOM     23   O  BGC C   2       3.154 -22.896 -19.1280  0.00  0.00     0.000 O
ATOM     25  HD  BGC C   2       3.666 -23.225 -18.5110  0.00  0.00     0.000 HD
ATOM     25   O  BGC C   2       2.352 -25.021 -17.3200  0.00  0.00     0.000 O
ATOM     27  HD  BGC C   2       2.863 -25.350 -16.7040  0.00  0.00     0.000 HD
ATOM     27   C  BGC C   2      -0.268 -26.903 -21.0910  0.00  0.00     0.000 C
ATOM     28   O  BGC C   2      -1.481 -26.622 -20.3730  0.00  0.00     0.000 O
ATOM     30  HD  BGC C   2      -0.969 -26.951 -19.7560  0.00  0.00     0.000 HD
BRANCH 17 30
ATOM     30  O4  BGC C   3       1.386 -22.554 -21.3030  0.00  0.00     0.000 O
BRANCH 30 34
ATOM     31  C1  BGC C   3       1.110 -20.594 -24.8270  0.00  0.00     0.000 C
ATOM     32  C2  BGC C   3      -0.213 -21.184 -24.2820  0.00  0.00     0.000 C
ATOM     33  C3  BGC C   3      -0.081 -21.569 -22.8490  0.00  0.00     0.000 C
ATOM     34  C4  BGC C   3       1.157 -22.457 -22.7010  0.00  0.00     0.000 C
ATOM     35  C5  BGC C   3       2.428 -21.876 -23.3740  0.00  0.00     0.000 C
ATOM     36  O5  BGC C   3       2.153 -21.530 -24.7080  0.00  0.00     0.000 O
ATOM     37   O  BGC C   3      -1.388 -20.401 -24.3810  0.00  0.00     0.000 O
ATOM     39  HD  BGC C   3      -0.932 -20.959 -23.8990  0.00  0.00     0.000 HD
ATOM     39   O  BGC C   3      -1.282 -22.263 -22.4010  0.00  0.00     0.000 O
ATOM     41  HD  BGC C   3      -0.827 -22.820 -21.9200  0.00  0.00     0.000 HD
ATOM     41   C  BGC C   3       3.647 -22.826 -23.4010  0.00  0.00     0.000 C
ATOM     42   O  BGC C   3       3.469 -24.053 -24.1960  0.00  0.00     0.000 O
ATOM     44  HD  BGC C   3       3.924 -24.610 -23.7150  0.00  0.00     0.000 HD
BRANCH 31 44
ATOM     44  O4  BGC C   4       0.982 -20.235 -26.1620  0.00  0.00     0.000 O
BRANCH 44 48
ATOM     45  C1  BGC C   4       2.244 -17.540 -28.9740  0.00  0.00     0.000 C
ATOM     46  C2  BGC C   4       3.437 -18.064 -28.1130  0.00  0.00     0.000 C
ATOM     47  C3  BGC C   4       2.800 -19.249 -27.3740  0.00  0.00     0.000 C
ATOM     48  C4  BGC C   4       1.495 -19.025 -26.6350  0.00  0.00     0.000 C
ATOM     49  C5  BGC C   4       0.495 -18.505 -27.6810  0.00  0.00     0.000 C
ATOM     50  O5  BGC C   4       0.981 -17.372 -28.3130  0.00  0.00     0.000 O
ATOM     51   O  BGC C   4       4.760 -18.557 -28.7260  0.00  0.00     0.000 O
ATOM     53  HD  BGC C   4       5.271 -18.922 -28.1290  0.00  0.00     0.000 HD
ATOM     53   O  BGC C   4       3.815 -19.445 -26.2820  0.00  0.00     0.000 O
ATOM     55  HD  BGC C   4       4.326 -19.810 -25.6850  0.00  0.00     0.000 HD
ATOM     55   C  BGC C   4      -0.801 -18.085 -27.0380  0.00  0.00     0.000 C
ATOM     56   O  BGC C   4      -0.690 -17.104 -26.0010  0.00  0.00     0.000 O
ATOM     58  HD  BGC C   4      -0.180 -17.469 -25.4040  0.00  0.00     0.000 HD
BRANCH 45 58
ATOM     58  O4  BGC C   5       2.521 -16.303 -29.5600  0.00  0.00     0.000 O
BRANCH 58 62
ATOM     59  C1  BGC C   5       2.556 -13.362 -30.3980  0.00  0.00     0.000 C
ATOM     60  C2  BGC C   5       3.927 -13.820 -30.4570  0.00  0.00     0.000 C
ATOM     61  C3  BGC C   5       4.347 -14.653 -29.2480  0.00  0.00     0.000 C
ATOM     62  C4  BGC C   5       3.116 -15.331 -28.6650  0.00  0.00     0.000 C
ATOM     63  C5  BGC C   5       2.019 -14.294 -28.6040  0.00  0.00     0.000 C
ATOM     64  O5  BGC C   5       2.184 -13.090 -29.3500  0.00  0.00     0.000 O
ATOM     65   O  BGC C   5       2.763 -13.296 -26.5330  0.00  0.00     0.000 O
ATOM     67  HD  BGC C   5       2.244 -13.876 -26.9140  0.00  0.00     0.000 HD
ATOM     67   O  BGC C   5       2.763 -13.296 -26.5330  0.00  0.00     0.000 O
ATOM     69  HD  BGC C   5       2.244 -13.876 -26.9140  0.00  0.00     0.000 HD
ENDBRANCH 58 62
ENDBRANCH 45 58
ENDBRANCH 44 48
ENDBRANCH 31 44
ENDBRANCH 30 34
ENDBRANCH 17 30
ENDBRANCH 16 20
ENDBRANCH 1 16
TORSDOF 8
ENDMDL
MODEL 27
REMARK VINA RESULT:      -6.5     21.450     25.747
ROOT
ATOM      1  C1  BGC C   1       9.593 -24.985 -26.5950  0.00  0.00     0.000 C
ATOM      2  C2  BGC C   1       9.746 -26.500 -26.7250  0.00  0.00     0.000 C
ATOM      3  C3  BGC C   1      11.141 -26.923 -26.2790  0.00  0.00     0.000 C
ATOM      4  C4  BGC C   1      12.232 -26.105 -26.9490  0.00  0.00     0.000 C
ATOM      5  C5  BGC C   1      11.889 -24.619 -26.8910  0.00  0.00     0.000 C
ATOM      6  O5  BGC C   1      10.586 -24.327 -27.2840  0.00  0.00     0.000 O
ATOM      7   O  BGC C   1       8.769 -27.096 -25.9070  0.00  0.00     0.000 O
ATOM      9  HD  BGC C   1       9.196 -27.476 -26.5570  0.00  0.00     0.000 HD
ATOM      9   O  BGC C   1      11.285 -28.326 -26.5410  0.00  0.00     0.000 O
ATOM     11  HD  BGC C   1      11.712 -28.706 -27.1910  0.00  0.00     0.000 HD
ATOM     11   O  BGC C   1      13.441 -26.379 -26.2480  0.00  0.00     0.000 O
ATOM     13  HD  BGC C   1      13.868 -26.759 -26.8990  0.00  0.00     0.000 HD
ATOM     13   O  BGC C   1      12.622 -24.180 -29.2160  0.00  0.00     0.000 O
ATOM     15  HD  BGC C   1      13.050 -24.560 -29.8660  0.00  0.00     0.000 HD
ATOM     15   C  BGC C   1      12.862 -23.866 -27.8160  0.00  0.00     0.000 C
ENDROOT
BRANCH 1 16
ATOM     16  O4  BGC C   2       8.368 -24.605 -27.1760  0.00  0.00     0.000 O
BRANCH 16 20
ATOM     17  C1  BGC C   2       5.419 -21.845 -26.5750  0.00  0.00     0.000 C
ATOM     18  C2  BGC C   2       6.767 -21.293 -27.0100  0.00  0.00     0.000 C
ATOM     19  C3  BGC C   2       7.657 -22.404 -27.5480  0.00  0.00     0.000 C
ATOM     20  C4  BGC C   2       7.716 -23.520 -26.5600  0.00  0.00     0.000 C
ATOM     21  C5  BGC C   2       6.315 -23.947 -26.1320  0.00  0.00     0.000 C
ATOM     22  O5  BGC C   2       5.594 -22.861 -25.6300  0.00  0.00     0.000 O
ATOM     23   O  BGC C   2       6.555 -20.289 -28.0150  0.00  0.00     0.000 O
ATOM     25  HD  BGC C   2       7.153 -20.361 -28.6370  0.00  0.00     0.000 HD
ATOM     25   O  BGC C   2       8.964 -21.889 -27.7710  0.00  0.00     0.000 O
ATOM     27  HD  BGC C   2       9.562 -21.961 -28.3940  0.00  0.00     0.000 HD
ATOM     27   C  BGC C   2       6.276 -25.086 -25.0930  0.00  0.00     0.000 C
ATOM     28   O  BGC C   2       7.067 -24.764 -23.9370  0.00  0.00     0.000 O
ATOM     30  HD  BGC C   2       7.665 -24.836 -24.5590  0.00  0.00     0.000 HD
BRANCH 17 30
ATOM     30  O4  BGC C   3       4.660 -20.810 -25.9860  0.00  0.00     0.000 O
BRANCH 30 34
ATOM     31  C1  BGC C   3       0.943 -19.225 -26.0530  0.00  0.00     0.000 C
ATOM     32  C2  BGC C   3       1.141 -20.431 -25.1050  0.00  0.00     0.000 C
ATOM     33  C3  BGC C   3       2.586 -20.715 -24.8890  0.00  0.00     0.000 C
ATOM     34  C4  BGC C   3       3.267 -20.822 -26.2560  0.00  0.00     0.000 C
ATOM     35  C5  BGC C   3       2.934 -19.649 -27.2130  0.00  0.00     0.000 C
ATOM     36  O5  BGC C   3       1.542 -19.475 -27.3010  0.00  0.00     0.000 O
ATOM     37   O  BGC C   3       0.545 -20.382 -23.8220  0.00  0.00     0.000 O
ATOM     39  HD  BGC C   3       1.234 -20.625 -24.2870  0.00  0.00     0.000 HD
ATOM     39   O  BGC C   3       2.750 -21.945 -24.1230  0.00  0.00     0.000 O
ATOM     41  HD  BGC C   3       3.438 -22.188 -24.5880  0.00  0.00     0.000 HD
ATOM     41   C  BGC C   3       3.455 -19.814 -28.6600  0.00  0.00     0.000 C
ATOM     42   O  BGC C   3       2.870 -20.937 -29.4120  0.00  0.00     0.000 O
ATOM     44  HD  BGC C   3       3.559 -21.181 -29.8770  0.00  0.00     0.000 HD
BRANCH 31 44
ATOM     44  O4  BGC C   4      -0.407 -18.962 -26.2510  0.00  0.00     0.000 O
BRANCH 44 48
ATOM     45  C1  BGC C   4      -3.170 -16.004 -26.8610  0.00  0.00     0.000 C
ATOM     46  C2  BGC C   4      -2.065 -15.988 -27.9660  0.00  0.00     0.000 C
ATOM     47  C3  BGC C   4      -1.353 -17.325 -27.7230  0.00  0.00     0.000 C
ATOM     48  C4  BGC C   4      -0.884 -17.651 -26.3190  0.00  0.00     0.000 C
ATOM     49  C5  BGC C   4      -2.133 -17.593 -25.4260  0.00  0.00     0.000 C
ATOM     50  O5  BGC C   4      -2.764 -16.365 -25.5320  0.00  0.00     0.000 O
ATOM     51   O  BGC C   4      -2.385 -15.898 -29.4690  0.00  0.00     0.000 O
ATOM     53  HD  BGC C   4      -1.677 -16.018 -29.9520  0.00  0.00     0.000 HD
ATOM     53   O  BGC C   4      -0.083 -17.081 -28.4910  0.00  0.00     0.000 O
ATOM     55  HD  BGC C   4       0.626 -17.201 -28.9740  0.00  0.00     0.000 HD
ATOM     55   C  BGC C   4      -1.774 -17.739 -23.9700  0.00  0.00     0.000 C
ATOM     56   O  BGC C   4      -0.823 -16.792 -23.4680  0.00  0.00     0.000 O
ATOM     58  HD  BGC C   4      -0.114 -16.912 -23.9510  0.00  0.00     0.000 HD
BRANCH 45 58
ATOM     58  O4  BGC C   5      -3.803 -14.766 -26.7300  0.00  0.00     0.000 O
BRANCH 58 62
ATOM     59  C1  BGC C   5      -4.846 -12.044 -25.8040  0.00  0.00     0.000 C
ATOM     60  C2  BGC C   5      -4.685 -11.954 -27.2390  0.00  0.00     0.000 C
ATOM     61  C3  BGC C   5      -3.372 -12.544 -27.7470  0.00  0.00     0.000 C
ATOM     62  C4  BGC C   5      -2.911 -13.625 -26.7800  0.00  0.00     0.000 C
ATOM     63  C5  BGC C   5      -3.075 -13.076 -25.3820  0.00  0.00     0.000 C
ATOM     64  O5  BGC C   5      -3.881 -11.913 -25.2020  0.00  0.00     0.000 O
ATOM     65   O  BGC C   5      -1.004 -11.832 -25.3790  0.00  0.00     0.000 O
ATOM     67  HD  BGC C   5      -1.406 -12.572 -25.1760  0.00  0.00     0.000 HD
ATOM     67   O  BGC C   5      -1.004 -11.832 -25.3790  0.00  0.00     0.000 O
ATOM     69  HD  BGC C   5      -1.406 -12.572 -25.1760  0.00  0.00     0.000 HD
ENDBRANCH 58 62
ENDBRANCH 45 58
ENDBRANCH 44 48
ENDBRANCH 31 44
ENDBRANCH 30 34
ENDBRANCH 17 30
ENDBRANCH 16 20
ENDBRANCH 1 16
TORSDOF 8
ENDMDL
MODEL 28
REMARK VINA RESULT:      -6.3     24.001     27.032
ROOT
ATOM      1  C1  BGC C   1       1.130   2.732   3.0720  0.00  0.00     0.000 C
ATOM      2  C2  BGC C   1       0.425   1.789   2.0970  0.00  0.00     0.000 C
ATOM      3  C3  BGC C   1      -0.865   2.425   1.5950  0.00  0.00     0.000 C
ATOM      4  C4  BGC C   1      -1.732   2.942   2.7320  0.00  0.00     0.000 C
ATOM      5  C5  BGC C   1      -0.885   3.738   3.7210  0.00  0.00     0.000 C
ATOM      6  O5  BGC C   1       0.290   3.095   4.1000  0.00  0.00     0.000 O
ATOM      7   O  BGC C   1       1.306   1.556   1.0230  0.00  0.00     0.000 O
ATOM      9  HD  BGC C   1       0.621   1.072   1.2410  0.00  0.00     0.000 HD
ATOM      9   O  BGC C   1      -1.555   1.459   0.7910  0.00  0.00     0.000 O
ATOM     11  HD  BGC C   1      -2.239   0.975   1.0090  0.00  0.00     0.000 HD
ATOM     11   O  BGC C   1      -2.737   3.760   2.1440  0.00  0.00     0.000 O
ATOM     13  HD  BGC C   1      -3.422   3.276   2.3610  0.00  0.00     0.000 HD
ATOM     13   O  BGC C   1      -1.986   2.763   5.7150  0.00  0.00     0.000 O
ATOM     15  HD  BGC C   1      -2.670   2.279   5.9330  0.00  0.00     0.000 HD
ATOM     15   C  BGC C   1      -1.733   3.993   4.9810  0.00  0.00     0.000 C
ENDROOT
BRANCH 1 16
ATOM     16  O4  BGC C   2       2.218   2.051   3.6500  0.00  0.00     0.000 O
BRANCH 16 20
ATOM     17  C1  BGC C   2       6.102   2.862   4.6150  0.00  0.00     0.000 C
ATOM     18  C2  BGC C   2       5.068   3.210   5.6740  0.00  0.00     0.000 C
ATOM     19  C3  BGC C   2       3.735   2.542   5.3660  0.00  0.00     0.000 C
ATOM     20  C4  BGC C   2       3.335   2.848   3.9610  0.00  0.00     0.000 C
ATOM     21  C5  BGC C   2       4.469   2.536   2.9890  0.00  0.00     0.000 C
ATOM     22  O5  BGC C   2       5.634   3.217   3.3450  0.00  0.00     0.000 O
ATOM     23   O  BGC C   2       5.557   2.787   6.9560  0.00  0.00     0.000 O
ATOM     25  HD  BGC C   2       4.912   2.441   7.4200  0.00  0.00     0.000 HD
ATOM     25   O  BGC C   2       2.748   3.033   6.2650  0.00  0.00     0.000 O
ATOM     27  HD  BGC C   2       2.104   2.687   6.7290  0.00  0.00     0.000 HD
ATOM     27   C  BGC C   2       4.153   2.840   1.5100  0.00  0.00     0.000 C
ATOM     28   O  BGC C   2       3.719   4.199   1.3390  0.00  0.00     0.000 O
ATOM     30  HD  BGC C   2       3.075   3.853   1.8030  0.00  0.00     0.000 HD
BRANCH 17 30
ATOM     30  O4  BGC C   3       7.291   3.578   4.8720  0.00  0.00     0.000 O
BRANCH 30 34
ATOM     31  C1  BGC C   3      11.238   2.723   4.7190  0.00  0.00     0.000 C
ATOM     32  C2  BGC C   3      10.747   3.803   3.7250  0.00  0.00     0.000 C
ATOM     33  C3  BGC C   3       9.387   4.290   4.0880  0.00  0.00     0.000 C
ATOM     34  C4  BGC C   3       8.471   3.076   4.2630  0.00  0.00     0.000 C
ATOM     35  C5  BGC C   3       9.066   1.968   5.1690  0.00  0.00     0.000 C
ATOM     36  O5  BGC C   3      10.358   1.627   4.7310  0.00  0.00     0.000 O
ATOM     37   O  BGC C   3      11.547   4.954   3.5330  0.00  0.00     0.000 O
ATOM     39  HD  BGC C   3      10.743   4.639   3.6010  0.00  0.00     0.000 HD
ATOM     39   O  BGC C   3       8.881   5.187   3.0560  0.00  0.00     0.000 O
ATOM     41  HD  BGC C   3       8.077   4.872   3.1240  0.00  0.00     0.000 HD
ATOM     41   C  BGC C   3       8.252   0.655   5.2210  0.00  0.00     0.000 C
ATOM     42   O  BGC C   3       8.157  -0.075   3.9450  0.00  0.00     0.000 O
ATOM     44  HD  BGC C   3       7.353  -0.390   4.0130  0.00  0.00     0.000 HD
BRANCH 31 44
ATOM     44  O4  BGC C   4      12.507   2.273   4.3770  0.00  0.00     0.000 O
BRANCH 44 48
ATOM     45  C1  BGC C   4      15.941   0.575   5.8220  0.00  0.00     0.000 C
ATOM     46  C2  BGC C   4      14.701  -0.338   6.0830  0.00  0.00     0.000 C
ATOM     47  C3  BGC C   4      13.628   0.325   5.2100  0.00  0.00     0.000 C
ATOM     48  C4  BGC C   4      13.397   1.816   5.3530  0.00  0.00     0.000 C
ATOM     49  C5  BGC C   4      14.748   2.489   5.0620  0.00  0.00     0.000 C
ATOM     50  O5  BGC C   4      15.739   1.995   5.8950  0.00  0.00     0.000 O
ATOM     51   O  BGC C   4      14.689  -1.845   5.7700  0.00  0.00     0.000 O
ATOM     53  HD  BGC C   4      13.897  -2.182   5.8610  0.00  0.00     0.000 HD
ATOM     53   O  BGC C   4      12.394  -0.299   5.8020  0.00  0.00     0.000 O
ATOM     55  HD  BGC C   4      11.602  -0.636   5.8930  0.00  0.00     0.000 HD
ATOM     55   C  BGC C   4      14.693   3.970   5.3330  0.00  0.00     0.000 C
ATOM     56   O  BGC C   4      14.284   4.344   6.6540  0.00  0.00     0.000 O
ATOM     58  HD  BGC C   4      13.492   4.007   6.7450  0.00  0.00     0.000 HD
BRANCH 45 58
ATOM     58  O4  BGC C   5      16.989   0.306   6.7050  0.00  0.00     0.000 O
BRANCH 58 62
ATOM     59  C1  BGC C   5      19.734   1.522   7.2900  0.00  0.00     0.000 C
ATOM     60  C2  BGC C   5      19.436   1.832   5.9090  0.00  0.00     0.000 C
ATOM     61  C3  BGC C   5      18.870   0.651   5.1240  0.00  0.00     0.000 C
ATOM     62  C4  BGC C   5      18.159  -0.287   6.0880  0.00  0.00     0.000 C
ATOM     63  C5  BGC C   5      19.056  -0.458   7.2920  0.00  0.00     0.000 C
ATOM     64  O5  BGC C   5      20.131   0.463   7.4710  0.00  0.00     0.000 O
ATOM     65   O  BGC C   5      20.465  -2.146   6.2900  0.00  0.00     0.000 O
ATOM     67  HD  BGC C   5      19.773  -1.978   6.7830  0.00  0.00     0.000 HD
ATOM     67   O  BGC C   5      20.465  -2.146   6.2900  0.00  0.00     0.000 O
ATOM     69  HD  BGC C   5      19.773  -1.978   6.7830  0.00  0.00     0.000 HD
ENDBRANCH 58 62
ENDBRANCH 45 58
ENDBRANCH 44 48
ENDBRANCH 31 44
ENDBRANCH 30 34
ENDBRANCH 17 30
ENDBRANCH 16 20
ENDBRANCH 1 16
TORSDOF 8
ENDMDL
MODEL 29
REMARK VINA RESULT:      -6.3     14.101     15.772
ROOT
ATOM      1  C1  BGC C   1       9.270   3.904 -22.1710  0.00  0.00     0.000 C
ATOM      2  C2  BGC C   1       8.374   4.362 -21.0210  0.00  0.00     0.000 C
ATOM      3  C3  BGC C   1       8.662   5.821 -20.6840  0.00  0.00     0.000 C
ATOM      4  C4  BGC C   1      10.146   6.083 -20.4880  0.00  0.00     0.000 C
ATOM      5  C5  BGC C   1      10.949   5.443 -21.6180  0.00  0.00     0.000 C
ATOM      6  O5  BGC C   1      10.597   4.122 -21.8790  0.00  0.00     0.000 O
ATOM      7   O  BGC C   1       7.038   4.212 -21.4400  0.00  0.00     0.000 O
ATOM      9  HD  BGC C   1       7.315   4.289 -20.6230  0.00  0.00     0.000 HD
ATOM      9   O  BGC C   1       7.898   6.168 -19.5210  0.00  0.00     0.000 O
ATOM     11  HD  BGC C   1       8.175   6.244 -18.7040  0.00  0.00     0.000 HD
ATOM     11   O  BGC C   1      10.316   7.496 -20.4760  0.00  0.00     0.000 O
ATOM     13  HD  BGC C   1      10.593   7.572 -19.6590  0.00  0.00     0.000 HD
ATOM     13   O  BGC C   1      12.730   4.605 -20.1130  0.00  0.00     0.000 O
ATOM     15  HD  BGC C   1      13.006   4.681 -19.2960  0.00  0.00     0.000 HD
ATOM     15   C  BGC C   1      12.439   5.488 -21.2320  0.00  0.00     0.000 C
ENDROOT
BRANCH 1 16
ATOM     16  O4  BGC C   2       9.108   2.515 -22.3410  0.00  0.00     0.000 O
BRANCH 16 20
ATOM     17  C1  BGC C   2       9.818  -0.255 -25.2570  0.00  0.00     0.000 C
ATOM     18  C2  BGC C   2      10.974   0.024 -24.3090  0.00  0.00     0.000 C
ATOM     19  C3  BGC C   2      10.492   0.774 -23.0750  0.00  0.00     0.000 C
ATOM     20  C4  BGC C   2       9.709   1.972 -23.4930  0.00  0.00     0.000 C
ATOM     21  C5  BGC C   2       8.626   1.596 -24.5000  0.00  0.00     0.000 C
ATOM     22  O5  BGC C   2       9.176   0.940 -25.6020  0.00  0.00     0.000 O
ATOM     23   O  BGC C   2      11.577  -1.223 -23.9350  0.00  0.00     0.000 O
ATOM     25  HD  BGC C   2      11.783  -1.213 -23.0930  0.00  0.00     0.000 HD
ATOM     25   O  BGC C   2      11.617   1.178 -22.3050  0.00  0.00     0.000 O
ATOM     27  HD  BGC C   2      11.823   1.188 -21.4640  0.00  0.00     0.000 HD
ATOM     27   C  BGC C   2       7.775   2.779 -25.0060  0.00  0.00     0.000 C
ATOM     28   O  BGC C   2       8.602   3.825 -25.5410  0.00  0.00     0.000 O
ATOM     30  HD  BGC C   2       8.808   3.835 -24.7000  0.00  0.00     0.000 HD
BRANCH 17 30
ATOM     30  O4  BGC C   3      10.315  -0.855 -26.4340  0.00  0.00     0.000 O
BRANCH 30 34
ATOM     31  C1  BGC C   3       8.448  -3.766 -28.5260  0.00  0.00     0.000 C
ATOM     32  C2  BGC C   3       9.220  -2.723 -29.3700  0.00  0.00     0.000 C
ATOM     33  C3  BGC C   3      10.141  -1.918 -28.5200  0.00  0.00     0.000 C
ATOM     34  C4  BGC C   3       9.344  -1.363 -27.3370  0.00  0.00     0.000 C
ATOM     35  C5  BGC C   3       8.490  -2.428 -26.6030  0.00  0.00     0.000 C
ATOM     36  O5  BGC C   3       7.694  -3.129 -27.5250  0.00  0.00     0.000 O
ATOM     37   O  BGC C   3       9.985  -3.181 -30.4690  0.00  0.00     0.000 O
ATOM     39  HD  BGC C   3       9.935  -2.622 -29.8090  0.00  0.00     0.000 HD
ATOM     39   O  BGC C   3      10.738  -0.843 -29.3030  0.00  0.00     0.000 O
ATOM     41  HD  BGC C   3      10.689  -0.284 -28.6430  0.00  0.00     0.000 HD
ATOM     41   C  BGC C   3       7.536  -1.872 -25.5210  0.00  0.00     0.000 C
ATOM     42   O  BGC C   3       6.472  -0.984 -26.0200  0.00  0.00     0.000 O
ATOM     44  HD  BGC C   3       6.422  -0.425 -25.3610  0.00  0.00     0.000 HD
BRANCH 31 44
ATOM     44  O4  BGC C   4       7.592  -4.515 -29.3220  0.00  0.00     0.000 O
BRANCH 44 48
ATOM     45  C1  BGC C   4       5.845  -8.216 -29.4490  0.00  0.00     0.000 C
ATOM     46  C2  BGC C   4       6.187  -7.798 -27.9830  0.00  0.00     0.000 C
ATOM     47  C3  BGC C   4       6.523  -6.309 -28.1470  0.00  0.00     0.000 C
ATOM     48  C4  BGC C   4       7.530  -5.906 -29.2050  0.00  0.00     0.000 C
ATOM     49  C5  BGC C   4       6.983  -6.434 -30.5410  0.00  0.00     0.000 C
ATOM     50  O5  BGC C   4       6.753  -7.798 -30.4800  0.00  0.00     0.000 O
ATOM     51   O  BGC C   4       5.186  -7.923 -26.8210  0.00  0.00     0.000 O
ATOM     53  HD  BGC C   4       5.484  -7.543 -26.1020  0.00  0.00     0.000 HD
ATOM     53   O  BGC C   4       7.234  -6.063 -26.8450  0.00  0.00     0.000 O
ATOM     55  HD  BGC C   4       7.533  -5.683 -26.1260  0.00  0.00     0.000 HD
ATOM     55   C  BGC C   4       7.977  -6.240 -31.6560  0.00  0.00     0.000 C
ATOM     56   O  BGC C   4       9.269  -6.821 -31.4430  0.00  0.00     0.000 O
ATOM     58  HD  BGC C   4       9.567  -6.442 -30.7240  0.00  0.00     0.000 HD
BRANCH 45 58
ATOM     58  O4  BGC C   5       5.738  -9.601 -29.5900  0.00  0.00     0.000 O
BRANCH 58 62
ATOM     59  C1  BGC C   5       5.151 -12.511 -30.3260  0.00  0.00     0.000 C
ATOM     60  C2  BGC C   5       6.564 -12.443 -30.0240  0.00  0.00     0.000 C
ATOM     61  C3  BGC C   5       7.268 -11.242 -30.6510  0.00  0.00     0.000 C
ATOM     62  C4  BGC C   5       6.256 -10.121 -30.8400  0.00  0.00     0.000 C
ATOM     63  C5  BGC C   5       5.008 -10.738 -31.4280  0.00  0.00     0.000 C
ATOM     64  O5  BGC C   5       4.865 -12.156 -31.3770  0.00  0.00     0.000 O
ATOM     65   O  BGC C   5       5.808 -10.744 -33.7080  0.00  0.00     0.000 O
ATOM     67  HD  BGC C   5       5.358 -10.325 -33.0980  0.00  0.00     0.000 HD
ATOM     67   O  BGC C   5       5.808 -10.744 -33.7080  0.00  0.00     0.000 O
ATOM     69  HD  BGC C   5       5.358 -10.325 -33.0980  0.00  0.00     0.000 HD
ENDBRANCH 58 62
ENDBRANCH 45 58
ENDBRANCH 44 48
ENDBRANCH 31 44
ENDBRANCH 30 34
ENDBRANCH 17 30
ENDBRANCH 16 20
ENDBRANCH 1 16
TORSDOF 8
ENDMDL
MODEL 30
REMARK VINA RESULT:      -6.3     11.669     14.418
ROOT
ATOM      1  C1  BGC C   1      16.524 -10.199 -29.7130  0.00  0.00     0.000 C
ATOM      2  C2  BGC C   1      17.303  -9.775 -30.9580  0.00  0.00     0.000 C
ATOM      3  C3  BGC C   1      16.863  -8.385 -31.4010  0.00  0.00     0.000 C
ATOM      4  C4  BGC C   1      15.353  -8.269 -31.5160  0.00  0.00     0.000 C
ATOM      5  C5  BGC C   1      14.682  -8.867 -30.2830  0.00  0.00     0.000 C
ATOM      6  O5  BGC C   1      15.167 -10.123 -29.9320  0.00  0.00     0.000 O
ATOM      7   O  BGC C   1      18.670  -9.771 -30.6200  0.00  0.00     0.000 O
ATOM      9  HD  BGC C   1      18.338  -9.795 -31.4200  0.00  0.00     0.000 HD
ATOM      9   O  BGC C   1      17.521  -8.084 -32.6390  0.00  0.00     0.000 O
ATOM     11  HD  BGC C   1      17.189  -8.108 -33.4390  0.00  0.00     0.000 HD
ATOM     11   O  BGC C   1      15.054  -6.883 -31.6410  0.00  0.00     0.000 O
ATOM     13  HD  BGC C   1      14.722  -6.907 -32.4400  0.00  0.00     0.000 HD
ATOM     13   O  BGC C   1      12.897  -9.990 -31.5830  0.00  0.00     0.000 O
ATOM     15  HD  BGC C   1      12.565 -10.014 -32.3820  0.00  0.00     0.000 HD
ATOM     15   C  BGC C   1      13.173  -8.986 -30.5680  0.00  0.00     0.000 C
ENDROOT
BRANCH 1 16
ATOM     16  O4  BGC C   2      16.821 -11.547 -29.4330  0.00  0.00     0.000 O
BRANCH 16 20
ATOM     17  C1  BGC C   2      16.661 -14.025 -26.1920  0.00  0.00     0.000 C
ATOM     18  C2  BGC C   2      15.420 -13.997 -27.0690  0.00  0.00     0.000 C
ATOM     19  C3  BGC C   2      15.721 -13.343 -28.4100  0.00  0.00     0.000 C
ATOM     20  C4  BGC C   2      16.372 -12.020 -28.1860  0.00  0.00     0.000 C
ATOM     21  C5  BGC C   2      17.557 -12.146 -27.2340  0.00  0.00     0.000 C
ATOM     22  O5  BGC C   2      17.167 -12.731 -26.0280  0.00  0.00     0.000 O
ATOM     23   O  BGC C   2      14.956 -15.342 -27.2590  0.00  0.00     0.000 O
ATOM     25  HD  BGC C   2      14.696 -15.454 -28.0770  0.00  0.00     0.000 HD
ATOM     25   O  BGC C   2      14.505 -13.167 -29.1280  0.00  0.00     0.000 O
ATOM     27  HD  BGC C   2      14.245 -13.279 -29.9460  0.00  0.00     0.000 HD
ATOM     27   C  BGC C   2      18.283 -10.820 -26.9260  0.00  0.00     0.000 C
ATOM     28   O  BGC C   2      17.366  -9.825 -26.4420  0.00  0.00     0.000 O
ATOM     30  HD  BGC C   2      17.106  -9.937 -27.2610  0.00  0.00     0.000 HD
BRANCH 17 30
ATOM     30  O4  BGC C   3      16.323 -14.539 -24.9220  0.00  0.00     0.000 O
BRANCH 30 34
ATOM     31  C1  BGC C   3      17.994 -17.369 -22.5690  0.00  0.00     0.000 C
ATOM     32  C2  BGC C   3      17.836 -15.970 -21.9270  0.00  0.00     0.000 C
ATOM     33  C3  BGC C   3      16.915 -15.112 -22.7230  0.00  0.00     0.000 C
ATOM     34  C4  BGC C   3      17.380 -15.130 -24.1810  0.00  0.00     0.000 C
ATOM     35  C5  BGC C   3      17.643 -16.553 -24.7370  0.00  0.00     0.000 C
ATOM     36  O5  BGC C   3      18.502 -17.258 -23.8750  0.00  0.00     0.000 O
ATOM     37   O  BGC C   3      17.396 -15.893 -20.5840  0.00  0.00     0.000 O
ATOM     39  HD  BGC C   3      17.360 -15.542 -21.3750  0.00  0.00     0.000 HD
ATOM     39   O  BGC C   3      16.904 -13.755 -22.1900  0.00  0.00     0.000 O
ATOM     41  HD  BGC C   3      16.867 -13.405 -22.9810  0.00  0.00     0.000 HD
ATOM     41   C  BGC C   3      18.286 -16.599 -26.1420  0.00  0.00     0.000 C
ATOM     42   O  BGC C   3      19.642 -16.030 -26.2310  0.00  0.00     0.000 O
ATOM     44  HD  BGC C   3      19.605 -15.680 -27.0220  0.00  0.00     0.000 HD
BRANCH 31 44
ATOM     44  O4  BGC C   4      18.852 -18.166 -21.8220  0.00  0.00     0.000 O
BRANCH 44 48
ATOM     45  C1  BGC C   4      19.388 -21.899 -20.2300  0.00  0.00     0.000 C
ATOM     46  C2  BGC C   4      19.746 -21.872 -21.7510  0.00  0.00     0.000 C
ATOM     47  C3  BGC C   4      19.776 -20.367 -22.0440  0.00  0.00     0.000 C
ATOM     48  C4  BGC C   4      18.587 -19.524 -21.6260  0.00  0.00     0.000 C
ATOM     49  C5  BGC C   4      18.432 -19.724 -20.1100  0.00  0.00     0.000 C
ATOM     50  O5  BGC C   4      18.302 -21.067 -19.7960  0.00  0.00     0.000 O
ATOM     51   O  BGC C   4      21.041 -22.481 -22.3170  0.00  0.00     0.000 O
ATOM     53  HD  BGC C   4      21.146 -22.283 -23.1540  0.00  0.00     0.000 HD
ATOM     53   O  BGC C   4      19.699 -20.397 -23.5460  0.00  0.00     0.000 O
ATOM     55  HD  BGC C   4      19.803 -20.198 -24.3820  0.00  0.00     0.000 HD
ATOM     55   C  BGC C   4      17.179 -19.065 -19.5940  0.00  0.00     0.000 C
ATOM     56   O  BGC C   4      15.959 -19.474 -20.2250  0.00  0.00     0.000 O
ATOM     58  HD  BGC C   4      16.064 -19.275 -21.0610  0.00  0.00     0.000 HD
BRANCH 45 58
ATOM     58  O4  BGC C   5      19.068 -23.185 -19.7870  0.00  0.00     0.000 O
BRANCH 58 62
ATOM     59  C1  BGC C   5      18.332 -26.069 -20.4890  0.00  0.00     0.000 C
ATOM     60  C2  BGC C   5      18.011 -25.270 -21.6520  0.00  0.00     0.000 C
ATOM     61  C3  BGC C   5      17.283 -23.970 -21.3210  0.00  0.00     0.000 C
ATOM     62  C4  BGC C   5      17.667 -23.534 -19.9150  0.00  0.00     0.000 C
ATOM     63  C5  BGC C   5      17.600 -24.759 -19.0310  0.00  0.00     0.000 C
ATOM     64  O5  BGC C   5      17.549 -26.040 -19.6550  0.00  0.00     0.000 O
ATOM     65   O  BGC C   5      15.211 -24.659 -18.6840  0.00  0.00     0.000 O
ATOM     67  HD  BGC C   5      15.997 -24.444 -18.3890  0.00  0.00     0.000 HD
ATOM     67   O  BGC C   5      15.211 -24.659 -18.6840  0.00  0.00     0.000 O
ATOM     69  HD  BGC C   5      15.997 -24.444 -18.3890  0.00  0.00     0.000 HD
ENDBRANCH 58 62
ENDBRANCH 45 58
ENDBRANCH 44 48
ENDBRANCH 31 44
ENDBRANCH 30 34
ENDBRANCH 17 30
ENDBRANCH 16 20
ENDBRANCH 1 16
TORSDOF 8
ENDMDL
MODEL 31
REMARK VINA RESULT:      -6.3     22.845     26.314
ROOT
ATOM      1  C1  BGC C   1       5.089 -21.449   3.5260  0.00  0.00     0.000 C
ATOM      2  C2  BGC C   1       3.841 -20.815   4.1390  0.00  0.00     0.000 C
ATOM      3  C3  BGC C   1       2.752 -21.867   4.3130  0.00  0.00     0.000 C
ATOM      4  C4  BGC C   1       2.512 -22.662   3.0390  0.00  0.00     0.000 C
ATOM      5  C5  BGC C   1       3.841 -23.108   2.4370  0.00  0.00     0.000 C
ATOM      6  O5  BGC C   1       4.787 -22.090   2.3460  0.00  0.00     0.000 O
ATOM      7   O  BGC C   1       4.209 -20.281   5.3890  0.00  0.00     0.000 O
ATOM      9  HD  BGC C   1       3.506 -20.073   4.9280  0.00  0.00     0.000 HD
ATOM      9   O  BGC C   1       1.563 -21.207   4.7650  0.00  0.00     0.000 O
ATOM     11  HD  BGC C   1       0.860 -20.999   4.3040  0.00  0.00     0.000 HD
ATOM     11   O  BGC C   1       1.711 -23.782   3.3980  0.00  0.00     0.000 O
ATOM     13  HD  BGC C   1       1.008 -23.574   2.9370  0.00  0.00     0.000 HD
ATOM     13   O  BGC C   1       3.159 -22.594   0.1110  0.00  0.00     0.000 O
ATOM     15  HD  BGC C   1       2.456 -22.386  -0.3500  0.00  0.00     0.000 HD
ATOM     15   C  BGC C   1       3.568 -23.651   1.0230  0.00  0.00     0.000 C
ENDROOT
BRANCH 1 16
ATOM     16  O4  BGC C   2       6.007 -20.427   3.2160  0.00  0.00     0.000 O
BRANCH 16 20
ATOM     17  C1  BGC C   2      10.055 -19.909   3.0750  0.00  0.00     0.000 C
ATOM     18  C2  BGC C   2       9.440 -20.662   1.9060  0.00  0.00     0.000 C
ATOM     19  C3  BGC C   2       7.930 -20.477   1.8790  0.00  0.00     0.000 C
ATOM     20  C4  BGC C   2       7.362 -20.808   3.2180  0.00  0.00     0.000 C
ATOM     21  C5  BGC C   2       8.098 -20.060   4.3260  0.00  0.00     0.000 C
ATOM     22  O5  BGC C   2       9.468 -20.319   4.2770  0.00  0.00     0.000 O
ATOM     23   O  BGC C   2      10.027 -20.183   0.6870  0.00  0.00     0.000 O
ATOM     25  HD  BGC C   2       9.420 -20.112   0.0730  0.00  0.00     0.000 HD
ATOM     25   O  BGC C   2       7.371 -21.337   0.8930  0.00  0.00     0.000 O
ATOM     27  HD  BGC C   2       6.764 -21.267   0.2800  0.00  0.00     0.000 HD
ATOM     27   C  BGC C   2       7.590 -20.355   5.7530  0.00  0.00     0.000 C
ATOM     28   O  BGC C   2       7.595 -21.766   6.0250  0.00  0.00     0.000 O
ATOM     30  HD  BGC C   2       6.988 -21.696   5.4110  0.00  0.00     0.000 HD
BRANCH 17 30
ATOM     30  O4  BGC C   3      11.438 -20.186   3.1330  0.00  0.00     0.000 O
BRANCH 30 34
ATOM     31  C1  BGC C   3      14.938 -18.483   4.2230  0.00  0.00     0.000 C
ATOM     32  C2  BGC C   3      14.126 -19.139   5.3660  0.00  0.00     0.000 C
ATOM     33  C3  BGC C   3      13.055 -20.023   4.8270  0.00  0.00     0.000 C
ATOM     34  C4  BGC C   3      12.243 -19.228   3.8020  0.00  0.00     0.000 C
ATOM     35  C5  BGC C   3      13.112 -18.488   2.7540  0.00  0.00     0.000 C
ATOM     36  O5  BGC C   3      14.096 -17.717   3.3980  0.00  0.00     0.000 O
ATOM     37   O  BGC C   3      14.823 -19.899   6.3350  0.00  0.00     0.000 O
ATOM     39  HD  BGC C   3      14.106 -19.828   5.8560  0.00  0.00     0.000 HD
ATOM     39   O  BGC C   3      12.207 -20.506   5.9110  0.00  0.00     0.000 O
ATOM     41  HD  BGC C   3      11.490 -20.435   5.4310  0.00  0.00     0.000 HD
ATOM     41   C  BGC C   3      12.338 -17.531   1.8180  0.00  0.00     0.000 C
ATOM     42   O  BGC C   3      11.700 -16.383   2.4840  0.00  0.00     0.000 O
ATOM     44  HD  BGC C   3      10.982 -16.313   2.0040  0.00  0.00     0.000 HD
BRANCH 31 44
ATOM     44  O4  BGC C   4      15.936 -17.662   4.7300  0.00  0.00     0.000 O
BRANCH 44 48
ATOM     45  C1  BGC C   4      19.828 -16.475   4.2830  0.00  0.00     0.000 C
ATOM     46  C2  BGC C   4      18.909 -15.831   3.1960  0.00  0.00     0.000 C
ATOM     47  C3  BGC C   4      17.508 -16.151   3.7350  0.00  0.00     0.000 C
ATOM     48  C4  BGC C   4      17.187 -17.583   4.1140  0.00  0.00     0.000 C
ATOM     49  C5  BGC C   4      18.223 -17.988   5.1740  0.00  0.00     0.000 C
ATOM     50  O5  BGC C   4      19.513 -17.811   4.7030  0.00  0.00     0.000 O
ATOM     51   O  BGC C   4      18.943 -14.331   2.8510  0.00  0.00     0.000 O
ATOM     53  HD  BGC C   4      18.297 -14.114   2.3170  0.00  0.00     0.000 HD
ATOM     53   O  BGC C   4      16.695 -15.905   2.4940  0.00  0.00     0.000 O
ATOM     55  HD  BGC C   4      16.049 -15.687   1.9600  0.00  0.00     0.000 HD
ATOM     55   C  BGC C   4      18.115 -19.451   5.5170  0.00  0.00     0.000 C
ATOM     56   O  BGC C   4      18.230 -20.357   4.4130  0.00  0.00     0.000 O
ATOM     58  HD  BGC C   4      17.584 -20.139   3.8780  0.00  0.00     0.000 HD
BRANCH 45 58
ATOM     58  O4  BGC C   5      21.166 -16.519   3.8830  0.00  0.00     0.000 O
BRANCH 58 62
ATOM     59  C1  BGC C   5      23.960 -17.201   2.8430  0.00  0.00     0.000 C
ATOM     60  C2  BGC C   5      23.703 -15.831   2.4580  0.00  0.00     0.000 C
ATOM     61  C3  BGC C   5      22.309 -15.607   1.8790  0.00  0.00     0.000 C
ATOM     62  C4  BGC C   5      21.363 -16.652   2.4530  0.00  0.00     0.000 C
ATOM     63  C5  BGC C   5      22.073 -17.984   2.3880  0.00  0.00     0.000 C
ATOM     64  O5  BGC C   5      23.481 -17.990   2.1630  0.00  0.00     0.000 O
ATOM     65   O  BGC C   5      21.545 -18.412   0.0700  0.00  0.00     0.000 O
ATOM     67  HD  BGC C   5      21.321 -18.529   0.8980  0.00  0.00     0.000 HD
ATOM     67   O  BGC C   5      21.545 -18.412   0.0700  0.00  0.00     0.000 O
ATOM     69  HD  BGC C   5      21.321 -18.529   0.8980  0.00  0.00     0.000 HD
ENDBRANCH 58 62
ENDBRANCH 45 58
ENDBRANCH 44 48
ENDBRANCH 31 44
ENDBRANCH 30 34
ENDBRANCH 17 30
ENDBRANCH 16 20
ENDBRANCH 1 16
TORSDOF 8
ENDMDL
MODEL 32
REMARK VINA RESULT:      -6.3     19.957     22.323
ROOT
ATOM      1  C1  BGC C   1      -1.527 -11.127 -29.3330  0.00  0.00     0.000 C
ATOM      2  C2  BGC C   1      -2.430 -10.753 -30.5080  0.00  0.00     0.000 C
ATOM      3  C3  BGC C   1      -3.116  -9.420 -30.2350  0.00  0.00     0.000 C
ATOM      4  C4  BGC C   1      -3.786  -9.387 -28.8710  0.00  0.00     0.000 C
ATOM      5  C5  BGC C   1      -2.840  -9.930 -27.8040  0.00  0.00     0.000 C
ATOM      6  O5  BGC C   1      -2.232 -11.134 -28.1520  0.00  0.00     0.000 O
ATOM      7   O  BGC C   1      -1.616 -10.658 -31.6530  0.00  0.00     0.000 O
ATOM      9  HD  BGC C   1      -2.477 -10.754 -31.6410  0.00  0.00     0.000 HD
ATOM      9   O  BGC C   1      -4.048  -9.174 -31.2970  0.00  0.00     0.000 O
ATOM     11  HD  BGC C   1      -4.909  -9.270 -31.2840  0.00  0.00     0.000 HD
ATOM     11   O  BGC C   1      -4.126  -8.030 -28.6120  0.00  0.00     0.000 O
ATOM     13  HD  BGC C   1      -4.986  -8.125 -28.5990  0.00  0.00     0.000 HD
ATOM     13   O  BGC C   1      -4.605 -11.228 -26.6490  0.00  0.00     0.000 O
ATOM     15  HD  BGC C   1      -5.466 -11.324 -26.6360  0.00  0.00     0.000 HD
ATOM     15   C  BGC C   1      -3.647 -10.143 -26.5110  0.00  0.00     0.000 C
ENDROOT
BRANCH 1 16
ATOM     16  O4  BGC C   2      -1.047 -12.436 -29.5340  0.00  0.00     0.000 O
BRANCH 16 20
ATOM     17  C1  BGC C   2       2.382 -14.567 -28.9200  0.00  0.00     0.000 C
ATOM     18  C2  BGC C   2       1.698 -14.035 -27.6710  0.00  0.00     0.000 C
ATOM     19  C3  BGC C   2       0.276 -13.589 -27.9820  0.00  0.00     0.000 C
ATOM     20  C4  BGC C   2       0.289 -12.657 -29.1470  0.00  0.00     0.000 C
ATOM     21  C5  BGC C   2       1.064 -13.253 -30.3180  0.00  0.00     0.000 C
ATOM     22  O5  BGC C   2       2.359 -13.602 -29.9330  0.00  0.00     0.000 O
ATOM     23   O  BGC C   2       1.693 -15.065 -26.6710  0.00  0.00     0.000 O
ATOM     25  HD  BGC C   2       0.934 -15.070 -26.2530  0.00  0.00     0.000 HD
ATOM     25   O  BGC C   2      -0.268 -12.931 -26.8440  0.00  0.00     0.000 O
ATOM     27  HD  BGC C   2      -1.026 -12.936 -26.4270  0.00  0.00     0.000 HD
ATOM     27   C  BGC C   2       1.147 -12.349 -31.5650  0.00  0.00     0.000 C
ATOM     28   O  BGC C   2       1.675 -11.054 -31.2350  0.00  0.00     0.000 O
ATOM     30  HD  BGC C   2       0.916 -11.059 -30.8170  0.00  0.00     0.000 HD
BRANCH 17 30
ATOM     30  O4  BGC C   3       3.727 -14.872 -28.6200  0.00  0.00     0.000 O
BRANCH 30 34
ATOM     31  C1  BGC C   3       6.472 -17.716 -29.4650  0.00  0.00     0.000 C
ATOM     32  C2  BGC C   3       6.560 -16.425 -30.3140  0.00  0.00     0.000 C
ATOM     33  C3  BGC C   3       5.757 -15.326 -29.7090  0.00  0.00     0.000 C
ATOM     34  C4  BGC C   3       4.346 -15.853 -29.4380  0.00  0.00     0.000 C
ATOM     35  C5  BGC C   3       4.317 -17.213 -28.6940  0.00  0.00     0.000 C
ATOM     36  O5  BGC C   3       5.137 -18.143 -29.3560  0.00  0.00     0.000 O
ATOM     37   O  BGC C   3       7.840 -15.884 -30.5850  0.00  0.00     0.000 O
ATOM     39  HD  BGC C   3       7.012 -15.715 -30.3990  0.00  0.00     0.000 HD
ATOM     39   O  BGC C   3       5.727 -14.174 -30.6010  0.00  0.00     0.000 O
ATOM     41  HD  BGC C   3       4.898 -14.004 -30.4150  0.00  0.00     0.000 HD
ATOM     41   C  BGC C   3       2.920 -17.862 -28.5670  0.00  0.00     0.000 C
ATOM     42   O  BGC C   3       2.289 -18.248 -29.8400  0.00  0.00     0.000 O
ATOM     44  HD  BGC C   3       1.461 -18.078 -29.6540  0.00  0.00     0.000 HD
BRANCH 31 44
ATOM     44  O4  BGC C   4       7.224 -18.737 -30.0320  0.00  0.00     0.000 O
BRANCH 44 48
ATOM     45  C1  BGC C   4       9.216 -22.232 -29.2770  0.00  0.00     0.000 C
ATOM     46  C2  BGC C   4       7.685 -22.379 -29.0030  0.00  0.00     0.000 C
ATOM     47  C3  BGC C   4       7.125 -21.098 -29.6340  0.00  0.00     0.000 C
ATOM     48  C4  BGC C   4       7.744 -19.769 -29.2480  0.00  0.00     0.000 C
ATOM     49  C5  BGC C   4       9.237 -19.875 -29.6000  0.00  0.00     0.000 C
ATOM     50  O5  BGC C   4       9.819 -20.965 -28.9750  0.00  0.00     0.000 O
ATOM     51   O  BGC C   4       6.850 -23.560 -29.5280  0.00  0.00     0.000 O
ATOM     53  HD  BGC C   4       6.004 -23.436 -29.3920  0.00  0.00     0.000 HD
ATOM     53   O  BGC C   4       5.764 -21.072 -28.9940  0.00  0.00     0.000 O
ATOM     55  HD  BGC C   4       4.918 -20.947 -28.8570  0.00  0.00     0.000 HD
ATOM     55   C  BGC C   4      10.002 -18.672 -29.1120  0.00  0.00     0.000 C
ATOM     56   O  BGC C   4       9.893 -18.394 -27.7110  0.00  0.00     0.000 O
ATOM     58  HD  BGC C   4       9.046 -18.270 -27.5750  0.00  0.00     0.000 HD
BRANCH 45 58
ATOM     58  O4  BGC C   5       9.970 -23.176 -28.5760  0.00  0.00     0.000 O
BRANCH 58 62
ATOM     59  C1  BGC C   5      11.737 -24.364 -26.3810  0.00  0.00     0.000 C
ATOM     60  C2  BGC C   5      11.004 -25.469 -26.9580  0.00  0.00     0.000 C
ATOM     61  C3  BGC C   5       9.522 -25.175 -27.1760  0.00  0.00     0.000 C
ATOM     62  C4  BGC C   5       9.341 -23.677 -27.3710  0.00  0.00     0.000 C
ATOM     63  C5  BGC C   5      10.166 -22.983 -26.3120  0.00  0.00     0.000 C
ATOM     64  O5  BGC C   5      11.151 -23.745 -25.6160  0.00  0.00     0.000 O
ATOM     65   O  BGC C   5       8.524 -23.212 -24.5550  0.00  0.00     0.000 O
ATOM     67  HD  BGC C   5       8.847 -22.714 -25.1860  0.00  0.00     0.000 HD
ATOM     67   O  BGC C   5       8.524 -23.212 -24.5550  0.00  0.00     0.000 O
ATOM     69  HD  BGC C   5       8.847 -22.714 -25.1860  0.00  0.00     0.000 HD
ENDBRANCH 58 62
ENDBRANCH 45 58
ENDBRANCH 44 48
ENDBRANCH 31 44
ENDBRANCH 30 34
ENDBRANCH 17 30
ENDBRANCH 16 20
ENDBRANCH 1 16
TORSDOF 8
ENDMDL
MODEL 33
REMARK VINA RESULT:      -6.2      5.367     15.174
ROOT
ATOM      1  C1  BGC C   1      21.615  -7.619 -23.5110  0.00  0.00     0.000 C
ATOM      2  C2  BGC C   1      22.823  -8.506 -23.8070  0.00  0.00     0.000 C
ATOM      3  C3  BGC C   1      23.064  -8.575 -25.3100  0.00  0.00     0.000 C
ATOM      4  C4  BGC C   1      21.802  -8.928 -26.0790  0.00  0.00     0.000 C
ATOM      5  C5  BGC C   1      20.630  -8.084 -25.5860  0.00  0.00     0.000 C
ATOM      6  O5  BGC C   1      20.505  -8.051 -24.2000  0.00  0.00     0.000 O
ATOM      7   O  BGC C   1      23.935  -7.935 -23.1590  0.00  0.00     0.000 O
ATOM      9  HD  BGC C   1      23.868  -8.751 -23.4430  0.00  0.00     0.000 HD
ATOM      9   O  BGC C   1      24.119  -9.517 -25.5490  0.00  0.00     0.000 O
ATOM     11  HD  BGC C   1      24.052 -10.332 -25.8320  0.00  0.00     0.000 HD
ATOM     11   O  BGC C   1      22.073  -8.675 -27.4540  0.00  0.00     0.000 O
ATOM     13  HD  BGC C   1      22.006  -9.491 -27.7370  0.00  0.00     0.000 HD
ATOM     13   O  BGC C   1      19.028  -9.974 -25.6220  0.00  0.00     0.000 O
ATOM     15  HD  BGC C   1      18.961 -10.790 -25.9060  0.00  0.00     0.000 HD
ATOM     15   C  BGC C   1      19.336  -8.667 -26.1820  0.00  0.00     0.000 C
ENDROOT
BRANCH 1 16
ATOM     16  O4  BGC C   2      21.311  -7.715 -22.1390  0.00  0.00     0.000 O
BRANCH 16 20
ATOM     17  C1  BGC C   2      20.108  -5.064 -19.2750  0.00  0.00     0.000 C
ATOM     18  C2  BGC C   2      19.038  -6.009 -19.7980  0.00  0.00     0.000 C
ATOM     19  C3  BGC C   2      19.665  -7.164 -20.5660  0.00  0.00     0.000 C
ATOM     20  C4  BGC C   2      20.599  -6.628 -21.5980  0.00  0.00     0.000 C
ATOM     21  C5  BGC C   2      21.581  -5.633 -20.9860  0.00  0.00     0.000 C
ATOM     22  O5  BGC C   2      20.904  -4.604 -20.3300  0.00  0.00     0.000 O
ATOM     23   O  BGC C   2      18.273  -6.502 -18.6870  0.00  0.00     0.000 O
ATOM     25  HD  BGC C   2      18.100  -7.344 -18.7960  0.00  0.00     0.000 HD
ATOM     25   O  BGC C   2      18.637  -7.921 -21.1930  0.00  0.00     0.000 O
ATOM     27  HD  BGC C   2      18.464  -8.762 -21.3020  0.00  0.00     0.000 HD
ATOM     27   C  BGC C   2      22.577  -5.009 -21.9850  0.00  0.00     0.000 C
ATOM     28   O  BGC C   2      21.892  -4.405 -23.0940  0.00  0.00     0.000 O
ATOM     30  HD  BGC C   2      21.719  -5.246 -23.2030  0.00  0.00     0.000 HD
BRANCH 17 30
ATOM     30  O4  BGC C   3      19.490  -3.954 -18.6610  0.00  0.00     0.000 O
BRANCH 30 34
ATOM     31  C1  BGC C   3      20.050  -1.241 -15.7180  0.00  0.00     0.000 C
ATOM     32  C2  BGC C   3      21.101  -1.225 -16.8540  0.00  0.00     0.000 C
ATOM     33  C3  BGC C   3      20.628  -1.997 -18.0360  0.00  0.00     0.000 C
ATOM     34  C4  BGC C   3      20.180  -3.381 -17.5600  0.00  0.00     0.000 C
ATOM     35  C5  BGC C   3      19.225  -3.344 -16.3390  0.00  0.00     0.000 C
ATOM     36  O5  BGC C   3      19.782  -2.560 -15.3140  0.00  0.00     0.000 O
ATOM     37   O  BGC C   3      21.543   0.027 -17.3430  0.00  0.00     0.000 O
ATOM     39  HD  BGC C   3      21.330  -0.789 -17.5410  0.00  0.00     0.000 HD
ATOM     39   O  BGC C   3      21.691  -2.101 -19.0290  0.00  0.00     0.000 O
ATOM     41  HD  BGC C   3      21.478  -2.917 -19.2260  0.00  0.00     0.000 HD
ATOM     41   C  BGC C   3      18.898  -4.722 -15.7200  0.00  0.00     0.000 C
ATOM     42   O  BGC C   3      20.046  -5.433 -15.1310  0.00  0.00     0.000 O
ATOM     44  HD  BGC C   3      19.833  -6.249 -15.3290  0.00  0.00     0.000 HD
BRANCH 31 44
ATOM     44  O4  BGC C   4      20.495  -0.518 -14.6190  0.00  0.00     0.000 O
BRANCH 44 48
ATOM     45  C1  BGC C   4      19.336   2.618 -12.2560  0.00  0.00     0.000 C
ATOM     46  C2  BGC C   4      19.333   1.274 -11.4590  0.00  0.00     0.000 C
ATOM     47  C3  BGC C   4      20.077   0.335 -12.4180  0.00  0.00     0.000 C
ATOM     48  C4  BGC C   4      19.613   0.254 -13.8590  0.00  0.00     0.000 C
ATOM     49  C5  BGC C   4      19.693   1.685 -14.4150  0.00  0.00     0.000 C
ATOM     50  O5  BGC C   4      18.955   2.563 -13.6390  0.00  0.00     0.000 O
ATOM     51   O  BGC C   4      19.976   1.123 -10.0690  0.00  0.00     0.000 O
ATOM     53  HD  BGC C   4      19.994   0.296  -9.8150  0.00  0.00     0.000 HD
ATOM     53   O  BGC C   4      19.687  -0.993 -11.8280  0.00  0.00     0.000 O
ATOM     55  HD  BGC C   4      19.705  -1.821 -11.5750  0.00  0.00     0.000 HD
ATOM     55   C  BGC C   4      19.100   1.770 -15.7980  0.00  0.00     0.000 C
ATOM     56   O  BGC C   4      17.746   1.320 -15.9200  0.00  0.00     0.000 O
ATOM     58  HD  BGC C   4      17.763   0.492 -15.6670  0.00  0.00     0.000 HD
BRANCH 45 58
ATOM     58  O4  BGC C   5      18.496   3.574 -11.6800  0.00  0.00     0.000 O
BRANCH 58 62
ATOM     59  C1  BGC C   5      19.314   6.376 -10.7680  0.00  0.00     0.000 C
ATOM     60  C2  BGC C   5      17.871   6.326 -10.6900  0.00  0.00     0.000 C
ATOM     61  C3  BGC C   5      17.212   5.685 -11.9090  0.00  0.00     0.000 C
ATOM     62  C4  BGC C   5      18.190   4.702 -12.5370  0.00  0.00     0.000 C
ATOM     63  C5  BGC C   5      19.536   5.385 -12.5980  0.00  0.00     0.000 C
ATOM     64  O5  BGC C   5      19.733   6.562 -11.8180  0.00  0.00     0.000 O
ATOM     65   O  BGC C   5      19.077   6.616 -14.6250  0.00  0.00     0.000 O
ATOM     67  HD  BGC C   5      19.414   5.901 -14.2710  0.00  0.00     0.000 HD
ATOM     67   O  BGC C   5      19.077   6.616 -14.6250  0.00  0.00     0.000 O
ATOM     69  HD  BGC C   5      19.414   5.901 -14.2710  0.00  0.00     0.000 HD
ENDBRANCH 58 62
ENDBRANCH 45 58
ENDBRANCH 44 48
ENDBRANCH 31 44
ENDBRANCH 30 34
ENDBRANCH 17 30
ENDBRANCH 16 20
ENDBRANCH 1 16
TORSDOF 8
ENDMDL
MODEL 34
REMARK VINA RESULT:      -6.2      3.554      7.496
ROOT
ATOM      1  C1  BGC C   1      20.837  -6.336 -16.8560  0.00  0.00     0.000 C
ATOM      2  C2  BGC C   1      20.872  -4.940 -17.4740  0.00  0.00     0.000 C
ATOM      3  C3  BGC C   1      21.366  -3.927 -16.4490  0.00  0.00     0.000 C
ATOM      4  C4  BGC C   1      20.616  -4.029 -15.1310  0.00  0.00     0.000 C
ATOM      5  C5  BGC C   1      20.512  -5.488 -14.6950  0.00  0.00     0.000 C
ATOM      6  O5  BGC C   1      20.084  -6.347 -15.7040  0.00  0.00     0.000 O
ATOM      7   O  BGC C   1      21.747  -4.987 -18.5760  0.00  0.00     0.000 O
ATOM      9  HD  BGC C   1      21.143  -4.385 -18.4250  0.00  0.00     0.000 HD
ATOM      9   O  BGC C   1      21.259  -2.619 -17.0270  0.00  0.00     0.000 O
ATOM     11  HD  BGC C   1      20.655  -2.017 -16.8760  0.00  0.00     0.000 HD
ATOM     11   O  BGC C   1      21.346  -3.261 -14.1810  0.00  0.00     0.000 O
ATOM     13  HD  BGC C   1      20.742  -2.659 -14.0300  0.00  0.00     0.000 HD
ATOM     13   O  BGC C   1      18.155  -5.282 -13.9590  0.00  0.00     0.000 O
ATOM     15  HD  BGC C   1      17.551  -4.679 -13.8080  0.00  0.00     0.000 HD
ATOM     15   C  BGC C   1      19.514  -5.568 -13.5260  0.00  0.00     0.000 C
ENDROOT
BRANCH 1 16
ATOM     16  O4  BGC C   2      20.214  -7.215 -17.7630  0.00  0.00     0.000 O
BRANCH 16 20
ATOM     17  C1  BGC C   2      19.684 -11.254 -18.0450  0.00  0.00     0.000 C
ATOM     18  C2  BGC C   2      18.521 -10.471 -17.4590  0.00  0.00     0.000 C
ATOM     19  C3  BGC C   2      18.677  -8.983 -17.7370  0.00  0.00     0.000 C
ATOM     20  C4  BGC C   2      20.031  -8.533 -17.3010  0.00  0.00     0.000 C
ATOM     21  C5  BGC C   2      21.120  -9.430 -17.8830  0.00  0.00     0.000 C
ATOM     22  O5  BGC C   2      20.897 -10.766 -17.5470  0.00  0.00     0.000 O
ATOM     23   O  BGC C   2      17.298 -10.962 -18.0280  0.00  0.00     0.000 O
ATOM     25  HD  BGC C   2      16.764 -10.302 -18.1990  0.00  0.00     0.000 HD
ATOM     25   O  BGC C   2      17.678  -8.266 -17.0220  0.00  0.00     0.000 O
ATOM     27  HD  BGC C   2      17.144  -7.606 -17.1930  0.00  0.00     0.000 HD
ATOM     27   C  BGC C   2      22.558  -9.051 -17.4690  0.00  0.00     0.000 C
ATOM     28   O  BGC C   2      22.687  -8.983 -16.0400  0.00  0.00     0.000 O
ATOM     30  HD  BGC C   2      22.154  -8.323 -16.2120  0.00  0.00     0.000 HD
BRANCH 17 30
ATOM     30  O4  BGC C   3      19.562 -12.612 -17.6800  0.00  0.00     0.000 O
BRANCH 30 34
ATOM     31  C1  BGC C   3      21.015 -16.266 -18.6170  0.00  0.00     0.000 C
ATOM     32  C2  BGC C   3      21.903 -15.411 -17.6820  0.00  0.00     0.000 C
ATOM     33  C3  BGC C   3      21.143 -14.257 -17.1250  0.00  0.00     0.000 C
ATOM     34  C4  BGC C   3      20.481 -13.510 -18.2850  0.00  0.00     0.000 C
ATOM     35  C5  BGC C   3      19.708 -14.431 -19.2620  0.00  0.00     0.000 C
ATOM     36  O5  BGC C   3      20.532 -15.489 -19.6850  0.00  0.00     0.000 O
ATOM     37   O  BGC C   3      22.530 -16.047 -16.5840  0.00  0.00     0.000 O
ATOM     39  HD  BGC C   3      22.133 -15.333 -16.8720  0.00  0.00     0.000 HD
ATOM     39   O  BGC C   3      22.036 -13.381 -16.3750  0.00  0.00     0.000 O
ATOM     41  HD  BGC C   3      21.639 -12.668 -16.6630  0.00  0.00     0.000 HD
ATOM     41   C  BGC C   3      19.182 -13.738 -20.5400  0.00  0.00     0.000 C
ATOM     42   O  BGC C   3      20.222 -13.215 -21.4430  0.00  0.00     0.000 O
ATOM     44  HD  BGC C   3      19.825 -12.501 -21.7300  0.00  0.00     0.000 HD
BRANCH 31 44
ATOM     44  O4  BGC C   4      21.726 -17.341 -19.1330  0.00  0.00     0.000 O
BRANCH 44 48
ATOM     45  C1  BGC C   4      21.566 -21.332 -20.0320  0.00  0.00     0.000 C
ATOM     46  C2  BGC C   4      20.598 -20.505 -20.9380  0.00  0.00     0.000 C
ATOM     47  C3  BGC C   4      21.047 -19.066 -20.6520  0.00  0.00     0.000 C
ATOM     48  C4  BGC C   4      21.155 -18.614 -19.2090  0.00  0.00     0.000 C
ATOM     49  C5  BGC C   4      22.142 -19.577 -18.5310  0.00  0.00     0.000 C
ATOM     50  O5  BGC C   4      21.732 -20.892 -18.6750  0.00  0.00     0.000 O
ATOM     51   O  BGC C   4      20.530 -20.677 -22.4660  0.00  0.00     0.000 O
ATOM     53  HD  BGC C   4      20.034 -20.069 -22.8320  0.00  0.00     0.000 HD
ATOM     53   O  BGC C   4      19.857 -18.317 -21.1870  0.00  0.00     0.000 O
ATOM     55  HD  BGC C   4      19.361 -17.709 -21.5530  0.00  0.00     0.000 HD
ATOM     55   C  BGC C   4      22.213 -19.336 -17.0460  0.00  0.00     0.000 C
ATOM     56   O  BGC C   4      20.966 -19.410 -16.3460  0.00  0.00     0.000 O
ATOM     58  HD  BGC C   4      20.469 -18.802 -16.7120  0.00  0.00     0.000 HD
BRANCH 45 58
ATOM     58  O4  BGC C   5      21.186 -22.673 -19.9410  0.00  0.00     0.000 O
BRANCH 58 62
ATOM     59  C1  BGC C   5      20.056 -25.453 -19.3470  0.00  0.00     0.000 C
ATOM     60  C2  BGC C   5      20.055 -25.310 -20.7870  0.00  0.00     0.000 C
ATOM     61  C3  BGC C   5      19.531 -23.959 -21.2690  0.00  0.00     0.000 C
ATOM     62  C4  BGC C   5      19.779 -22.919 -20.1850  0.00  0.00     0.000 C
ATOM     63  C5  BGC C   5      19.367 -23.536 -18.8690  0.00  0.00     0.000 C
ATOM     64  O5  BGC C   5      19.178 -24.948 -18.8130  0.00  0.00     0.000 O
ATOM     65   O  BGC C   5      17.010 -23.074 -19.1280  0.00  0.00     0.000 O
ATOM     67  HD  BGC C   5      17.770 -22.809 -18.8080  0.00  0.00     0.000 HD
ATOM     67   O  BGC C   5      17.010 -23.074 -19.1280  0.00  0.00     0.000 O
ATOM     69  HD  BGC C   5      17.770 -22.809 -18.8080  0.00  0.00     0.000 HD
ENDBRANCH 58 62
ENDBRANCH 45 58
ENDBRANCH 44 48
ENDBRANCH 31 44
ENDBRANCH 30 34
ENDBRANCH 17 30
ENDBRANCH 16 20
ENDBRANCH 1 16
TORSDOF 8
ENDMDL
MODEL 35
REMARK VINA RESULT:      -6.2     26.141     28.068
ROOT
ATOM      1  C1  BGC C   1       7.023 -26.443  -1.0560  0.00  0.00     0.000 C
ATOM      2  C2  BGC C   1       8.404 -25.962  -0.6120  0.00  0.00     0.000 C
ATOM      3  C3  BGC C   1       8.408 -25.699   0.8890  0.00  0.00     0.000 C
ATOM      4  C4  BGC C   1       7.249 -24.816   1.3210  0.00  0.00     0.000 C
ATOM      5  C5  BGC C   1       5.949 -25.305   0.6890  0.00  0.00     0.000 C
ATOM      6  O5  BGC C   1       6.045 -25.551  -0.6780  0.00  0.00     0.000 O
ATOM      7   O  BGC C   1       9.327 -26.975  -0.9330  0.00  0.00     0.000 O
ATOM      9  HD  BGC C   1       9.511 -26.145  -0.7690  0.00  0.00     0.000 HD
ATOM      9   O  BGC C   1       9.676 -25.128   1.2370  0.00  0.00     0.000 O
ATOM     11  HD  BGC C   1       9.861 -24.298   1.4010  0.00  0.00     0.000 HD
ATOM     11   O  BGC C   1       7.186 -24.884   2.7410  0.00  0.00     0.000 O
ATOM     13  HD  BGC C   1       7.370 -24.054   2.9050  0.00  0.00     0.000 HD
ATOM     13   O  BGC C   1       5.145 -23.023   0.1560  0.00  0.00     0.000 O
ATOM     15  HD  BGC C   1       5.329 -22.193   0.3210  0.00  0.00     0.000 HD
ATOM     15   C  BGC C   1       4.870 -24.230   0.9190  0.00  0.00     0.000 C
ENDROOT
BRANCH 1 16
ATOM     16  O4  BGC C   2       6.999 -26.509  -2.4620  0.00  0.00     0.000 O
BRANCH 16 20
ATOM     17  C1  BGC C   2       5.311 -28.836  -5.3620  0.00  0.00     0.000 C
ATOM     18  C2  BGC C   2       4.413 -27.764  -4.7640  0.00  0.00     0.000 C
ATOM     19  C3  BGC C   2       5.234 -26.747  -3.9840  0.00  0.00     0.000 C
ATOM     20  C4  BGC C   2       6.113 -27.456  -3.0100  0.00  0.00     0.000 C
ATOM     21  C5  BGC C   2       6.912 -28.560  -3.6950  0.00  0.00     0.000 C
ATOM     22  O5  BGC C   2       6.065 -29.451  -4.3570  0.00  0.00     0.000 O
ATOM     23   O  BGC C   2       3.692 -27.119  -5.8250  0.00  0.00     0.000 O
ATOM     25  HD  BGC C   2       3.651 -26.266  -5.6810  0.00  0.00     0.000 HD
ATOM     25   O  BGC C   2       4.354 -25.871  -3.2890  0.00  0.00     0.000 O
ATOM     27  HD  BGC C   2       4.313 -25.018  -3.1450  0.00  0.00     0.000 HD
ATOM     27   C  BGC C   2       7.838 -29.364  -2.7590  0.00  0.00     0.000 C
ATOM     28   O  BGC C   2       7.111 -29.904  -1.6440  0.00  0.00     0.000 O
ATOM     30  HD  BGC C   2       7.070 -29.051  -1.5000  0.00  0.00     0.000 HD
BRANCH 17 30
ATOM     30  O4  BGC C   3       4.511 -29.817  -5.9880  0.00  0.00     0.000 O
BRANCH 30 34
ATOM     31  C1  BGC C   3       4.417 -32.039  -9.3630  0.00  0.00     0.000 C
ATOM     32  C2  BGC C   3       5.114 -32.695  -8.1470  0.00  0.00     0.000 C
ATOM     33  C3  BGC C   3       4.797 -31.967  -6.8870  0.00  0.00     0.000 C
ATOM     34  C4  BGC C   3       5.089 -30.480  -7.1020  0.00  0.00     0.000 C
ATOM     35  C5  BGC C   3       4.471 -29.903  -8.4010  0.00  0.00     0.000 C
ATOM     36  O5  BGC C   3       4.827 -30.701  -9.5020  0.00  0.00     0.000 O
ATOM     37   O  BGC C   3       4.869 -34.066  -7.8910  0.00  0.00     0.000 O
ATOM     39  HD  BGC C   3       4.994 -33.280  -7.5480  0.00  0.00     0.000 HD
ATOM     39   O  BGC C   3       5.583 -32.504  -5.7830  0.00  0.00     0.000 O
ATOM     41  HD  BGC C   3       5.707 -31.719  -5.4400  0.00  0.00     0.000 HD
ATOM     41   C  BGC C   3       4.897 -28.456  -8.7430  0.00  0.00     0.000 C
ATOM     42   O  BGC C   3       6.329 -28.276  -9.0330  0.00  0.00     0.000 O
ATOM     44  HD  BGC C   3       6.454 -27.491  -8.6900  0.00  0.00     0.000 HD
BRANCH 31 44
ATOM     44  O4  BGC C   4       4.715 -32.722 -10.5350  0.00  0.00     0.000 O
BRANCH 44 48
ATOM     45  C1  BGC C   4       3.804 -32.997 -14.5170  0.00  0.00     0.000 C
ATOM     46  C2  BGC C   4       4.065 -31.516 -14.0940  0.00  0.00     0.000 C
ATOM     47  C3  BGC C   4       4.676 -31.687 -12.6970  0.00  0.00     0.000 C
ATOM     48  C4  BGC C   4       3.943 -32.547 -11.6860  0.00  0.00     0.000 C
ATOM     49  C5  BGC C   4       3.799 -33.935 -12.3300  0.00  0.00     0.000 C
ATOM     50  O5  BGC C   4       3.162 -33.851 -13.5580  0.00  0.00     0.000 O
ATOM     51   O  BGC C   4       4.982 -30.567 -14.8880  0.00  0.00     0.000 O
ATOM     53  HD  BGC C   4       5.114 -29.824 -14.4630  0.00  0.00     0.000 HD
ATOM     53   O  BGC C   4       4.517 -30.285 -12.1750  0.00  0.00     0.000 O
ATOM     55  HD  BGC C   4       4.649 -29.543 -11.7490  0.00  0.00     0.000 HD
ATOM     55   C  BGC C   4       2.938 -34.844 -11.4910  0.00  0.00     0.000 C
ATOM     56   O  BGC C   4       1.626 -34.352 -11.1910  0.00  0.00     0.000 O
ATOM     58  HD  BGC C   4       1.759 -33.609 -10.7660  0.00  0.00     0.000 HD
BRANCH 45 58
ATOM     58  O4  BGC C   5       3.023 -33.085 -15.6710  0.00  0.00     0.000 O
BRANCH 58 62
ATOM     59  C1  BGC C   5       2.656 -31.749 -18.3970  0.00  0.00     0.000 C
ATOM     60  C2  BGC C   5       1.962 -33.016 -18.4660  0.00  0.00     0.000 C
ATOM     61  C3  BGC C   5       2.753 -34.182 -17.8800  0.00  0.00     0.000 C
ATOM     62  C4  BGC C   5       3.705 -33.648 -16.8190  0.00  0.00     0.000 C
ATOM     63  C5  BGC C   5       4.365 -32.414 -17.3890  0.00  0.00     0.000 C
ATOM     64  O5  BGC C   5       3.790 -31.813 -18.5470  0.00  0.00     0.000 O
ATOM     65   O  BGC C   5       6.040 -33.612 -18.6510  0.00  0.00     0.000 O
ATOM     67  HD  BGC C   5       5.840 -33.209 -17.9110  0.00  0.00     0.000 HD
ATOM     67   O  BGC C   5       6.040 -33.612 -18.6510  0.00  0.00     0.000 O
ATOM     69  HD  BGC C   5       5.840 -33.209 -17.9110  0.00  0.00     0.000 HD
ENDBRANCH 58 62
ENDBRANCH 45 58
ENDBRANCH 44 48
ENDBRANCH 31 44
ENDBRANCH 30 34
ENDBRANCH 17 30
ENDBRANCH 16 20
ENDBRANCH 1 16
TORSDOF 8
ENDMDL
MODEL 36
REMARK VINA RESULT:      -6.2     21.608     26.122
ROOT
ATOM      1  C1  BGC C   1       8.531 -26.403 -26.4190  0.00  0.00     0.000 C
ATOM      2  C2  BGC C   1       8.431 -27.600 -27.3630  0.00  0.00     0.000 C
ATOM      3  C3  BGC C   1       9.630 -28.521 -27.1670  0.00  0.00     0.000 C
ATOM      4  C4  BGC C   1      10.948 -27.767 -27.2190  0.00  0.00     0.000 C
ATOM      5  C5  BGC C   1      10.872 -26.509 -26.3590  0.00  0.00     0.000 C
ATOM      6  O5  BGC C   1       9.729 -25.745 -26.5810  0.00  0.00     0.000 O
ATOM      7   O  BGC C   1       7.237 -28.281 -27.0580  0.00  0.00     0.000 O
ATOM      9  HD  BGC C   1       7.694 -28.348 -27.7900  0.00  0.00     0.000 HD
ATOM      9   O  BGC C   1       9.563 -29.555 -28.1580  0.00  0.00     0.000 O
ATOM     11  HD  BGC C   1      10.021 -29.623 -28.8900  0.00  0.00     0.000 HD
ATOM     11   O  BGC C   1      11.950 -28.656 -26.7370  0.00  0.00     0.000 O
ATOM     13  HD  BGC C   1      12.407 -28.724 -27.4700  0.00  0.00     0.000 HD
ATOM     13   O  BGC C   1      12.059 -25.096 -28.0120  0.00  0.00     0.000 O
ATOM     15  HD  BGC C   1      12.516 -25.163 -28.7450  0.00  0.00     0.000 HD
ATOM     15   C  BGC C   1      12.107 -25.643 -26.6650  0.00  0.00     0.000 C
ENDROOT
BRANCH 1 16
ATOM     16  O4  BGC C   2       7.511 -25.488 -26.7430  0.00  0.00     0.000 O
BRANCH 16 20
ATOM     17  C1  BGC C   2       4.954 -22.949 -24.8210  0.00  0.00     0.000 C
ATOM     18  C2  BGC C   2       6.416 -22.530 -24.8420  0.00  0.00     0.000 C
ATOM     19  C3  BGC C   2       7.194 -23.336 -25.8730  0.00  0.00     0.000 C
ATOM     20  C4  BGC C   2       6.952 -24.792 -25.6540  0.00  0.00     0.000 C
ATOM     21  C5  BGC C   2       5.459 -25.094 -25.5720  0.00  0.00     0.000 C
ATOM     22  O5  BGC C   2       4.848 -24.323 -24.5820  0.00  0.00     0.000 O
ATOM     23   O  BGC C   2       6.492 -21.128 -25.1410  0.00  0.00     0.000 O
ATOM     25  HD  BGC C   2       7.150 -20.975 -25.6820  0.00  0.00     0.000 HD
ATOM     25   O  BGC C   2       8.581 -23.052 -25.7380  0.00  0.00     0.000 O
ATOM     27  HD  BGC C   2       9.239 -22.899 -26.2800  0.00  0.00     0.000 HD
ATOM     27   C  BGC C   2       5.112 -26.577 -25.3270  0.00  0.00     0.000 C
ATOM     28   O  BGC C   2       5.781 -27.082 -24.1600  0.00  0.00     0.000 O
ATOM     30  HD  BGC C   2       6.439 -26.929 -24.7020  0.00  0.00     0.000 HD
BRANCH 17 30
ATOM     30  O4  BGC C   3       4.287 -22.260 -23.7860  0.00  0.00     0.000 O
BRANCH 30 34
ATOM     31  C1  BGC C   3       0.646 -20.747 -22.8960  0.00  0.00     0.000 C
ATOM     32  C2  BGC C   3       0.876 -22.223 -22.4930  0.00  0.00     0.000 C
ATOM     33  C3  BGC C   3       2.322 -22.575 -22.5390  0.00  0.00     0.000 C
ATOM     34  C4  BGC C   3       2.876 -22.162 -23.9050  0.00  0.00     0.000 C
ATOM     35  C5  BGC C   3       2.510 -20.712 -24.3160  0.00  0.00     0.000 C
ATOM     36  O5  BGC C   3       1.124 -20.511 -24.1970  0.00  0.00     0.000 O
ATOM     37   O  BGC C   3       0.397 -22.658 -21.2340  0.00  0.00     0.000 O
ATOM     39  HD  BGC C   3       1.032 -22.712 -21.8200  0.00  0.00     0.000 HD
ATOM     39   O  BGC C   3       2.501 -24.004 -22.3100  0.00  0.00     0.000 O
ATOM     41  HD  BGC C   3       3.136 -24.057 -22.8960  0.00  0.00     0.000 HD
ATOM     41   C  BGC C   3       2.895 -20.323 -25.7620  0.00  0.00     0.000 C
ATOM     42   O  BGC C   3       2.201 -21.076 -26.8200  0.00  0.00     0.000 O
ATOM     44  HD  BGC C   3       2.836 -21.130 -27.4060  0.00  0.00     0.000 HD
BRANCH 31 44
ATOM     44  O4  BGC C   4      -0.703 -20.422 -22.8490  0.00  0.00     0.000 O
BRANCH 44 48
ATOM     45  C1  BGC C   4      -3.403 -17.554 -21.7340  0.00  0.00     0.000 C
ATOM     46  C2  BGC C   4      -2.365 -16.991 -22.7560  0.00  0.00     0.000 C
ATOM     47  C3  BGC C   4      -1.682 -18.272 -23.2530  0.00  0.00     0.000 C
ATOM     48  C4  BGC C   4      -1.142 -19.250 -22.2290  0.00  0.00     0.000 C
ATOM     49  C5  BGC C   4      -2.335 -19.644 -21.3430  0.00  0.00     0.000 C
ATOM     50  O5  BGC C   4      -2.933 -18.525 -20.7870  0.00  0.00     0.000 O
ATOM     51   O  BGC C   4      -2.769 -16.169 -23.9940  0.00  0.00     0.000 O
ATOM     53  HD  BGC C   4      -2.093 -16.033 -24.5180  0.00  0.00     0.000 HD
ATOM     53   O  BGC C   4      -0.451 -17.678 -23.8820  0.00  0.00     0.000 O
ATOM     55  HD  BGC C   4       0.224 -17.541 -24.4070  0.00  0.00     0.000 HD
ATOM     55   C  BGC C   4      -1.897 -20.491 -20.1770  0.00  0.00     0.000 C
ATOM     56   O  BGC C   4      -0.889 -19.916 -19.3370  0.00  0.00     0.000 O
ATOM     58  HD  BGC C   4      -0.214 -19.779 -19.8620  0.00  0.00     0.000 HD
BRANCH 45 58
ATOM     58  O4  BGC C   5      -3.988 -16.544 -20.9660  0.00  0.00     0.000 O
BRANCH 58 62
ATOM     59  C1  BGC C   5      -4.852 -14.113 -19.3240  0.00  0.00     0.000 C
ATOM     60  C2  BGC C   5      -3.530 -13.816 -19.8290  0.00  0.00     0.000 C
ATOM     61  C3  BGC C   5      -2.547 -14.976 -19.6930  0.00  0.00     0.000 C
ATOM     62  C4  BGC C   5      -3.324 -16.285 -19.7050  0.00  0.00     0.000 C
ATOM     63  C5  BGC C   5      -4.513 -16.108 -18.7900  0.00  0.00     0.000 C
ATOM     64  O5  BGC C   5      -4.874 -14.785 -18.3970  0.00  0.00     0.000 O
ATOM     65   O  BGC C   5      -3.300 -16.551 -16.7480  0.00  0.00     0.000 O
ATOM     67  HD  BGC C   5      -3.791 -16.874 -17.3850  0.00  0.00     0.000 HD
ATOM     67   O  BGC C   5      -3.300 -16.551 -16.7480  0.00  0.00     0.000 O
ATOM     69  HD  BGC C   5      -3.791 -16.874 -17.3850  0.00  0.00     0.000 HD
ENDBRANCH 58 62
ENDBRANCH 45 58
ENDBRANCH 44 48
ENDBRANCH 31 44
ENDBRANCH 30 34
ENDBRANCH 17 30
ENDBRANCH 16 20
ENDBRANCH 1 16
TORSDOF 8
ENDMDL
MODEL 37
REMARK VINA RESULT:      -6.2     13.004     19.446
ROOT
ATOM      1  C1  BGC C   1       7.553  -4.015 -28.4920  0.00  0.00     0.000 C
ATOM      2  C2  BGC C   1       7.714  -5.530 -28.6000  0.00  0.00     0.000 C
ATOM      3  C3  BGC C   1       6.990  -6.046 -29.8370  0.00  0.00     0.000 C
ATOM      4  C4  BGC C   1       5.558  -5.543 -29.9170  0.00  0.00     0.000 C
ATOM      5  C5  BGC C   1       5.509  -4.043 -29.6390  0.00  0.00     0.000 C
ATOM      6  O5  BGC C   1       6.224  -3.658 -28.5080  0.00  0.00     0.000 O
ATOM      7   O  BGC C   1       9.092  -5.804 -28.6900  0.00  0.00     0.000 O
ATOM      9  HD  BGC C   1       8.471  -6.365 -28.4700  0.00  0.00     0.000 HD
ATOM      9   O  BGC C   1       7.055  -7.478 -29.8270  0.00  0.00     0.000 O
ATOM     11  HD  BGC C   1       6.434  -8.039 -29.6060  0.00  0.00     0.000 HD
ATOM     11   O  BGC C   1       5.091  -5.836 -31.2290  0.00  0.00     0.000 O
ATOM     13  HD  BGC C   1       4.469  -6.397 -31.0080  0.00  0.00     0.000 HD
ATOM     13   O  BGC C   1       3.480  -4.194 -28.2250  0.00  0.00     0.000 O
ATOM     15  HD  BGC C   1       2.858  -4.755 -28.0050  0.00  0.00     0.000 HD
ATOM     15   C  BGC C   1       4.036  -3.639 -29.4490  0.00  0.00     0.000 C
ENDROOT
BRANCH 1 16
ATOM     16  O4  BGC C   2       8.078  -3.593 -27.2560  0.00  0.00     0.000 O
BRANCH 16 20
ATOM     17  C1  BGC C   2      10.250  -0.434 -25.8490  0.00  0.00     0.000 C
ATOM     18  C2  BGC C   2       8.738  -0.266 -25.8210  0.00  0.00     0.000 C
ATOM     19  C3  BGC C   2       8.043  -1.607 -26.0140  0.00  0.00     0.000 C
ATOM     20  C4  BGC C   2       8.587  -2.280 -27.2290  0.00  0.00     0.000 C
ATOM     21  C5  BGC C   2      10.111  -2.328 -27.1940  0.00  0.00     0.000 C
ATOM     22  O5  BGC C   2      10.647  -1.048 -27.0410  0.00  0.00     0.000 O
ATOM     23   O  BGC C   2       8.360   0.319 -24.5660  0.00  0.00     0.000 O
ATOM     25  HD  BGC C   2       7.637  -0.056 -24.2690  0.00  0.00     0.000 HD
ATOM     25   O  BGC C   2       6.646  -1.391 -26.1680  0.00  0.00     0.000 O
ATOM     27  HD  BGC C   2       5.923  -1.765 -25.8710  0.00  0.00     0.000 HD
ATOM     27   C  BGC C   2      10.766  -2.992 -28.4240  0.00  0.00     0.000 C
ATOM     28   O  BGC C   2      10.320  -2.379 -29.6450  0.00  0.00     0.000 O
ATOM     30  HD  BGC C   2       9.598  -2.753 -29.3480  0.00  0.00     0.000 HD
BRANCH 17 30
ATOM     30  O4  BGC C   3      10.860   0.837 -25.7720  0.00  0.00     0.000 O
BRANCH 30 34
ATOM     31  C1  BGC C   3      14.323   2.620 -24.6940  0.00  0.00     0.000 C
ATOM     32  C2  BGC C   3      14.344   1.880 -26.0530  0.00  0.00     0.000 C
ATOM     33  C3  BGC C   3      12.965   1.566 -26.5160  0.00  0.00     0.000 C
ATOM     34  C4  BGC C   3      12.224   0.855 -25.3810  0.00  0.00     0.000 C
ATOM     35  C5  BGC C   3      12.340   1.575 -24.0120  0.00  0.00     0.000 C
ATOM     36  O5  BGC C   3      13.689   1.835 -23.7150  0.00  0.00     0.000 O
ATOM     37   O  BGC C   3      15.004   2.496 -27.1430  0.00  0.00     0.000 O
ATOM     39  HD  BGC C   3      14.327   2.021 -26.8870  0.00  0.00     0.000 HD
ATOM     39   O  BGC C   3      13.012   0.735 -27.7140  0.00  0.00     0.000 O
ATOM     41  HD  BGC C   3      12.335   0.260 -27.4570  0.00  0.00     0.000 HD
ATOM     41   C  BGC C   3      11.761   0.794 -22.8100  0.00  0.00     0.000 C
ATOM     42   O  BGC C   3      12.444  -0.473 -22.4970  0.00  0.00     0.000 O
ATOM     44  HD  BGC C   3      11.768  -0.948 -22.2400  0.00  0.00     0.000 HD
BRANCH 31 44
ATOM     44  O4  BGC C   4      15.612   2.913 -24.2660  0.00  0.00     0.000 O
BRANCH 44 48
ATOM     45  C1  BGC C   4      17.641   5.634 -21.9780  0.00  0.00     0.000 C
ATOM     46  C2  BGC C   4      17.598   4.232 -21.2900  0.00  0.00     0.000 C
ATOM     47  C3  BGC C   4      17.090   3.336 -22.4270  0.00  0.00     0.000 C
ATOM     48  C4  BGC C   4      15.835   3.750 -23.1710  0.00  0.00     0.000 C
ATOM     49  C5  BGC C   4      16.117   5.150 -23.7400  0.00  0.00     0.000 C
ATOM     50  O5  BGC C   4      16.487   6.030 -22.7360  0.00  0.00     0.000 O
ATOM     51   O  BGC C   4      18.843   3.556 -20.6880  0.00  0.00     0.000 O
ATOM     53  HD  BGC C   4      18.678   2.740 -20.4520  0.00  0.00     0.000 HD
ATOM     53   O  BGC C   4      16.669   2.130 -21.6340  0.00  0.00     0.000 O
ATOM     55  HD  BGC C   4      16.504   1.313 -21.3980  0.00  0.00     0.000 HD
ATOM     55   C  BGC C   4      14.883   5.747 -24.3650  0.00  0.00     0.000 C
ATOM     56   O  BGC C   4      13.736   5.835 -23.5120  0.00  0.00     0.000 O
ATOM     58  HD  BGC C   4      13.571   5.018 -23.2760  0.00  0.00     0.000 HD
BRANCH 45 58
ATOM     58  O4  BGC C   5      17.849   6.666 -21.0590  0.00  0.00     0.000 O
BRANCH 58 62
ATOM     59  C1  BGC C   5      18.069   8.885 -18.9670  0.00  0.00     0.000 C
ATOM     60  C2  BGC C   5      18.724   7.725 -18.4030  0.00  0.00     0.000 C
ATOM     61  C3  BGC C   5      17.942   6.428 -18.5910  0.00  0.00     0.000 C
ATOM     62  C4  BGC C   5      17.078   6.550 -19.8380  0.00  0.00     0.000 C
ATOM     63  C5  BGC C   5      16.414   7.906 -19.7930  0.00  0.00     0.000 C
ATOM     64  O5  BGC C   5      16.927   8.880 -18.8860  0.00  0.00     0.000 O
ATOM     65   O  BGC C   5      14.628   7.238 -18.3100  0.00  0.00     0.000 O
ATOM     67  HD  BGC C   5      14.887   7.351 -19.1280  0.00  0.00     0.000 HD
ATOM     67   O  BGC C   5      14.628   7.238 -18.3100  0.00  0.00     0.000 O
ATOM     69  HD  BGC C   5      14.887   7.351 -19.1280  0.00  0.00     0.000 HD
ENDBRANCH 58 62
ENDBRANCH 45 58
ENDBRANCH 44 48
ENDBRANCH 31 44
ENDBRANCH 30 34
ENDBRANCH 17 30
ENDBRANCH 16 20
ENDBRANCH 1 16
TORSDOF 8
ENDMDL
MODEL 38
REMARK VINA RESULT:      -6.2     11.000     17.405
ROOT
ATOM      1  C1  BGC C   1      17.872 -15.019 -23.7580  0.00  0.00     0.000 C
ATOM      2  C2  BGC C   1      18.824 -13.838 -23.5710  0.00  0.00     0.000 C
ATOM      3  C3  BGC C   1      18.068 -12.526 -23.7370  0.00  0.00     0.000 C
ATOM      4  C4  BGC C   1      17.245 -12.494 -25.0150  0.00  0.00     0.000 C
ATOM      5  C5  BGC C   1      16.457 -13.792 -25.1680  0.00  0.00     0.000 C
ATOM      6  O5  BGC C   1      17.220 -14.939 -24.9670  0.00  0.00     0.000 O
ATOM      7   O  BGC C   1      19.363 -13.931 -22.2740  0.00  0.00     0.000 O
ATOM      9  HD  BGC C   1      19.687 -13.473 -22.9330  0.00  0.00     0.000 HD
ATOM      9   O  BGC C   1      19.019 -11.454 -23.6850  0.00  0.00     0.000 O
ATOM     11  HD  BGC C   1      19.343 -10.995 -24.3440  0.00  0.00     0.000 HD
ATOM     11   O  BGC C   1      16.372 -11.374 -24.9150  0.00  0.00     0.000 O
ATOM     13  HD  BGC C   1      16.696 -10.915 -25.5740  0.00  0.00     0.000 HD
ATOM     13   O  BGC C   1      16.915 -13.988 -27.5950  0.00  0.00     0.000 O
ATOM     15  HD  BGC C   1      17.239 -13.529 -28.2540  0.00  0.00     0.000 HD
ATOM     15   C  BGC C   1      15.873 -13.833 -26.5920  0.00  0.00     0.000 C
ENDROOT
BRANCH 1 16
ATOM     16  O4  BGC C   2      18.626 -16.208 -23.7750  0.00  0.00     0.000 O
BRANCH 16 20
ATOM     17  C1  BGC C   2      18.050 -20.207 -23.1840  0.00  0.00     0.000 C
ATOM     18  C2  BGC C   2      17.433 -19.626 -24.4460  0.00  0.00     0.000 C
ATOM     19  C3  BGC C   2      18.008 -18.249 -24.7440  0.00  0.00     0.000 C
ATOM     20  C4  BGC C   2      17.901 -17.389 -23.5300  0.00  0.00     0.000 C
ATOM     21  C5  BGC C   2      18.479 -18.094 -22.3060  0.00  0.00     0.000 C
ATOM     22  O5  BGC C   2      17.865 -19.332 -22.1080  0.00  0.00     0.000 O
ATOM     23   O  BGC C   2      17.683 -20.522 -25.5400  0.00  0.00     0.000 O
ATOM     25  HD  BGC C   2      17.883 -20.072 -26.2520  0.00  0.00     0.000 HD
ATOM     25   O  BGC C   2      17.282 -17.660 -25.8160  0.00  0.00     0.000 O
ATOM     27  HD  BGC C   2      17.482 -17.211 -26.5290  0.00  0.00     0.000 HD
ATOM     27   C  BGC C   2      18.394 -17.286 -20.9950  0.00  0.00     0.000 C
ATOM     28   O  BGC C   2      17.046 -16.865 -20.7290  0.00  0.00     0.000 O
ATOM     30  HD  BGC C   2      17.246 -16.416 -21.4420  0.00  0.00     0.000 HD
BRANCH 17 30
ATOM     30  O4  BGC C   3      17.420 -21.433 -22.8800  0.00  0.00     0.000 O
BRANCH 30 34
ATOM     31  C1  BGC C   3      18.276 -25.177 -21.6210  0.00  0.00     0.000 C
ATOM     32  C2  BGC C   3      18.155 -24.107 -20.5100  0.00  0.00     0.000 C
ATOM     33  C3  BGC C   3      17.508 -22.868 -21.0230  0.00  0.00     0.000 C
ATOM     34  C4  BGC C   3      18.242 -22.432 -22.2940  0.00  0.00     0.000 C
ATOM     35  C5  BGC C   3      18.446 -23.574 -23.3220  0.00  0.00     0.000 C
ATOM     36  O5  BGC C   3      19.037 -24.687 -22.6970  0.00  0.00     0.000 O
ATOM     37   O  BGC C   3      17.475 -24.451 -19.3170  0.00  0.00     0.000 O
ATOM     39  HD  BGC C   3      17.632 -23.834 -19.9050  0.00  0.00     0.000 HD
ATOM     39   O  BGC C   3      17.546 -21.822 -20.0080  0.00  0.00     0.000 O
ATOM     41  HD  BGC C   3      17.703 -21.205 -20.5960  0.00  0.00     0.000 HD
ATOM     41   C  BGC C   3      19.340 -23.216 -24.5320  0.00  0.00     0.000 C
ATOM     42   O  BGC C   3      20.742 -22.904 -24.2060  0.00  0.00     0.000 O
ATOM     44  HD  BGC C   3      20.898 -22.288 -24.7930  0.00  0.00     0.000 HD
BRANCH 31 44
ATOM     44  O4  BGC C   4      18.879 -26.332 -21.1380  0.00  0.00     0.000 O
BRANCH 44 48
ATOM     45  C1  BGC C   4      18.894 -30.421 -21.3260  0.00  0.00     0.000 C
ATOM     46  C2  BGC C   4      19.492 -29.790 -22.6230  0.00  0.00     0.000 C
ATOM     47  C3  BGC C   4      19.672 -28.323 -22.2100  0.00  0.00     0.000 C
ATOM     48  C4  BGC C   4      18.493 -27.593 -21.5980  0.00  0.00     0.000 C
ATOM     49  C5  BGC C   4      18.083 -28.404 -20.3580  0.00  0.00     0.000 C
ATOM     50  O5  BGC C   4      17.813 -29.721 -20.6920  0.00  0.00     0.000 O
ATOM     51   O  BGC C   4      20.816 -30.261 -23.2510  0.00  0.00     0.000 O
ATOM     53  HD  BGC C   4      21.067 -29.738 -23.8940  0.00  0.00     0.000 HD
ATOM     53   O  BGC C   4      19.834 -27.693 -23.5660  0.00  0.00     0.000 O
ATOM     55  HD  BGC C   4      20.085 -27.169 -24.2080  0.00  0.00     0.000 HD
ATOM     55   C  BGC C   4      16.812 -27.872 -19.7490  0.00  0.00     0.000 C
ATOM     56   O  BGC C   4      15.684 -27.803 -20.6290  0.00  0.00     0.000 O
ATOM     58  HD  BGC C   4      15.935 -27.279 -21.2720  0.00  0.00     0.000 HD
BRANCH 45 58
ATOM     58  O4  BGC C   5      18.419 -31.717 -21.5400  0.00  0.00     0.000 O
BRANCH 58 62
ATOM     59  C1  BGC C   5      17.371 -34.495 -22.2750  0.00  0.00     0.000 C
ATOM     60  C2  BGC C   5      18.221 -34.076 -23.3680  0.00  0.00     0.000 C
ATOM     61  C3  BGC C   5      17.989 -32.632 -23.8060  0.00  0.00     0.000 C
ATOM     62  C4  BGC C   5      17.461 -31.836 -22.6210  0.00  0.00     0.000 C
ATOM     63  C5  BGC C   5      16.391 -32.673 -21.9590  0.00  0.00     0.000 C
ATOM     64  O5  BGC C   5      16.313 -34.058 -22.2920  0.00  0.00     0.000 O
ATOM     65   O  BGC C   5      14.630 -32.046 -23.4900  0.00  0.00     0.000 O
ATOM     67  HD  BGC C   5      15.026 -31.889 -22.7360  0.00  0.00     0.000 HD
ATOM     67   O  BGC C   5      14.630 -32.046 -23.4900  0.00  0.00     0.000 O
ATOM     69  HD  BGC C   5      15.026 -31.889 -22.7360  0.00  0.00     0.000 HD
ENDBRANCH 58 62
ENDBRANCH 45 58
ENDBRANCH 44 48
ENDBRANCH 31 44
ENDBRANCH 30 34
ENDBRANCH 17 30
ENDBRANCH 16 20
ENDBRANCH 1 16
TORSDOF 8
ENDMDL
MODEL 39
REMARK VINA RESULT:      -6.1     20.857     22.822
ROOT
ATOM      1  C1  BGC C   1       0.791 -20.150 -24.4720  0.00  0.00     0.000 C
ATOM      2  C2  BGC C   1      -0.423 -19.999 -25.3870  0.00  0.00     0.000 C
ATOM      3  C3  BGC C   1      -1.402 -18.992 -24.7930  0.00  0.00     0.000 C
ATOM      4  C4  BGC C   1      -1.724 -19.293 -23.3390  0.00  0.00     0.000 C
ATOM      5  C5  BGC C   1      -0.442 -19.579 -22.5620  0.00  0.00     0.000 C
ATOM      6  O5  BGC C   1       0.407 -20.484 -23.1930  0.00  0.00     0.000 O
ATOM      7   O  BGC C   1       0.043 -19.549 -26.6370  0.00  0.00     0.000 O
ATOM      9  HD  BGC C   1      -0.722 -19.923 -26.4780  0.00  0.00     0.000 HD
ATOM      9   O  BGC C   1      -2.579 -18.980 -25.6120  0.00  0.00     0.000 O
ATOM     11  HD  BGC C   1      -3.343 -19.354 -25.4530  0.00  0.00     0.000 HD
ATOM     11   O  BGC C   1      -2.391 -18.148 -22.8200  0.00  0.00     0.000 O
ATOM     13  HD  BGC C   1      -3.156 -18.522 -22.6610  0.00  0.00     0.000 HD
ATOM     13   O  BGC C   1      -1.422 -21.475 -21.3030  0.00  0.00     0.000 O
ATOM     15  HD  BGC C   1      -2.186 -21.849 -21.1440  0.00  0.00     0.000 HD
ATOM     15   C  BGC C   1      -0.832 -20.150 -21.1860  0.00  0.00     0.000 C
ENDROOT
BRANCH 1 16
ATOM     16  O4  BGC C   2       1.588 -21.208 -24.9520  0.00  0.00     0.000 O
BRANCH 16 20
ATOM     17  C1  BGC C   2       5.546 -22.168 -25.2470  0.00  0.00     0.000 C
ATOM     18  C2  BGC C   2       4.960 -22.186 -23.8430  0.00  0.00     0.000 C
ATOM     19  C3  BGC C   2       3.439 -22.177 -23.8930  0.00  0.00     0.000 C
ATOM     20  C4  BGC C   2       2.974 -21.057 -24.7620  0.00  0.00     0.000 C
ATOM     21  C5  BGC C   2       3.678 -21.085 -26.1160  0.00  0.00     0.000 C
ATOM     22  O5  BGC C   2       5.065 -21.064 -25.9580  0.00  0.00     0.000 O
ATOM     23   O  BGC C   2       5.433 -23.356 -23.1590  0.00  0.00     0.000 O
ATOM     25  HD  BGC C   2       4.793 -23.705 -22.6910  0.00  0.00     0.000 HD
ATOM     25   O  BGC C   2       2.929 -22.007 -22.5760  0.00  0.00     0.000 O
ATOM     27  HD  BGC C   2       2.289 -22.356 -22.1080  0.00  0.00     0.000 HD
ATOM     27   C  BGC C   2       3.274 -19.949 -27.0780  0.00  0.00     0.000 C
ATOM     28   O  BGC C   2       3.443 -18.661 -26.4630  0.00  0.00     0.000 O
ATOM     30  HD  BGC C   2       2.803 -19.010 -25.9950  0.00  0.00     0.000 HD
BRANCH 17 30
ATOM     30  O4  BGC C   3       6.952 -22.071 -25.1630  0.00  0.00     0.000 O
BRANCH 30 34
ATOM     31  C1  BGC C   3      10.180 -23.752 -26.9210  0.00  0.00     0.000 C
ATOM     32  C2  BGC C   3       9.842 -22.312 -27.3750  0.00  0.00     0.000 C
ATOM     33  C3  BGC C   3       8.878 -21.665 -26.4430  0.00  0.00     0.000 C
ATOM     34  C4  BGC C   3       7.683 -22.604 -26.2570  0.00  0.00     0.000 C
ATOM     35  C5  BGC C   3       8.082 -24.065 -25.9250  0.00  0.00     0.000 C
ATOM     36  O5  BGC C   3       9.015 -24.537 -26.8650  0.00  0.00     0.000 O
ATOM     37   O  BGC C   3      10.907 -21.396 -27.5510  0.00  0.00     0.000 O
ATOM     39  HD  BGC C   3      10.092 -21.509 -27.2810  0.00  0.00     0.000 HD
ATOM     39   O  BGC C   3       8.455 -20.374 -26.9720  0.00  0.00     0.000 O
ATOM     41  HD  BGC C   3       7.640 -20.488 -26.7020  0.00  0.00     0.000 HD
ATOM     41   C  BGC C   3       6.913 -25.076 -25.9100  0.00  0.00     0.000 C
ATOM     42   O  BGC C   3       6.241 -25.277 -27.2050  0.00  0.00     0.000 O
ATOM     44  HD  BGC C   3       5.426 -25.391 -26.9340  0.00  0.00     0.000 HD
BRANCH 31 44
ATOM     44  O4  BGC C   4      11.081 -24.351 -27.7920  0.00  0.00     0.000 O
BRANCH 44 48
ATOM     45  C1  BGC C   4      14.214 -26.983 -27.9150  0.00  0.00     0.000 C
ATOM     46  C2  BGC C   4      13.129 -27.437 -26.8860  0.00  0.00     0.000 C
ATOM     47  C3  BGC C   4      11.956 -26.511 -27.2310  0.00  0.00     0.000 C
ATOM     48  C4  BGC C   4      12.211 -25.018 -27.3130  0.00  0.00     0.000 C
ATOM     49  C5  BGC C   4      13.311 -24.829 -28.3700  0.00  0.00     0.000 C
ATOM     50  O5  BGC C   4      14.437 -25.572 -28.0550  0.00  0.00     0.000 O
ATOM     51   O  BGC C   4      12.583 -28.875 -26.8240  0.00  0.00     0.000 O
ATOM     53  HD  BGC C   4      11.910 -28.936 -26.2830  0.00  0.00     0.000 HD
ATOM     53   O  BGC C   4      11.125 -26.677 -25.9890  0.00  0.00     0.000 O
ATOM     55  HD  BGC C   4      10.451 -26.737 -25.4480  0.00  0.00     0.000 HD
ATOM     55   C  BGC C   4      13.774 -23.397 -28.4300  0.00  0.00     0.000 C
ATOM     56   O  BGC C   4      14.244 -22.845 -27.1950  0.00  0.00     0.000 O
ATOM     58  HD  BGC C   4      13.570 -22.906 -26.6540  0.00  0.00     0.000 HD
BRANCH 45 58
ATOM     58  O4  BGC C   5      15.469 -27.528 -27.6340  0.00  0.00     0.000 O
BRANCH 58 62
ATOM     59  C1  BGC C   5      18.213 -28.407 -26.6100  0.00  0.00     0.000 C
ATOM     60  C2  BGC C   5      17.518 -29.613 -27.0040  0.00  0.00     0.000 C
ATOM     61  C3  BGC C   5      16.068 -29.668 -26.5300  0.00  0.00     0.000 C
ATOM     62  C4  BGC C   5      15.546 -28.247 -26.3780  0.00  0.00     0.000 C
ATOM     63  C5  BGC C   5      16.612 -27.451 -25.6620  0.00  0.00     0.000 C
ATOM     64  O5  BGC C   5      17.925 -28.000 -25.5790  0.00  0.00     0.000 O
ATOM     65   O  BGC C   5      15.997 -28.186 -23.4440  0.00  0.00     0.000 O
ATOM     67  HD  BGC C   5      15.907 -27.583 -24.0590  0.00  0.00     0.000 HD
ATOM     67   O  BGC C   5      15.997 -28.186 -23.4440  0.00  0.00     0.000 O
ATOM     69  HD  BGC C   5      15.907 -27.583 -24.0590  0.00  0.00     0.000 HD
ENDBRANCH 58 62
ENDBRANCH 45 58
ENDBRANCH 44 48
ENDBRANCH 31 44
ENDBRANCH 30 34
ENDBRANCH 17 30
ENDBRANCH 16 20
ENDBRANCH 1 16
TORSDOF 8
ENDMDL
MODEL 40
REMARK VINA RESULT:      -6.1     22.539     26.085
ROOT
ATOM      1  C1  BGC C   1       0.230 -18.977 -25.6150  0.00  0.00     0.000 C
ATOM      2  C2  BGC C   1      -0.724 -17.786 -25.6990  0.00  0.00     0.000 C
ATOM      3  C3  BGC C   1      -0.719 -17.211 -27.1110  0.00  0.00     0.000 C
ATOM      4  C4  BGC C   1       0.689 -16.946 -27.6190  0.00  0.00     0.000 C
ATOM      5  C5  BGC C   1       1.586 -18.148 -27.3380  0.00  0.00     0.000 C
ATOM      6  O5  BGC C   1       1.493 -18.627 -26.0340  0.00  0.00     0.000 O
ATOM      7   O  BGC C   1      -2.010 -18.250 -25.3650  0.00  0.00     0.000 O
ATOM      9  HD  BGC C   1      -1.744 -17.426 -25.3590  0.00  0.00     0.000 HD
ATOM      9   O  BGC C   1      -1.521 -16.023 -27.1100  0.00  0.00     0.000 O
ATOM     11  HD  BGC C   1      -1.255 -15.199 -27.1040  0.00  0.00     0.000 HD
ATOM     11   O  BGC C   1       0.583 -16.702 -29.0170  0.00  0.00     0.000 O
ATOM     13  HD  BGC C   1       0.849 -15.878 -29.0110  0.00  0.00     0.000 HD
ATOM     13   O  BGC C   1       3.513 -16.764 -26.6250  0.00  0.00     0.000 O
ATOM     15  HD  BGC C   1       3.780 -15.940 -26.6190  0.00  0.00     0.000 HD
ATOM     15   C  BGC C   1       3.044 -17.731 -27.6050  0.00  0.00     0.000 C
ENDROOT
BRANCH 1 16
ATOM     16  O4  BGC C   2       0.338 -19.373 -24.2680  0.00  0.00     0.000 O
BRANCH 16 20
ATOM     17  C1  BGC C   2       0.948 -22.793 -22.1220  0.00  0.00     0.000 C
ATOM     18  C2  BGC C   2       2.100 -22.351 -23.0090  0.00  0.00     0.000 C
ATOM     19  C3  BGC C   2       1.911 -20.910 -23.4630  0.00  0.00     0.000 C
ATOM     20  C4  BGC C   2       0.552 -20.748 -24.0570  0.00  0.00     0.000 C
ATOM     21  C5  BGC C   2      -0.524 -21.291 -23.1210  0.00  0.00     0.000 C
ATOM     22  O5  BGC C   2      -0.270 -22.623 -22.7890  0.00  0.00     0.000 O
ATOM     23   O  BGC C   2       3.328 -22.489 -22.2780  0.00  0.00     0.000 O
ATOM     25  HD  BGC C   2       3.846 -21.814 -22.4370  0.00  0.00     0.000 HD
ATOM     25   O  BGC C   2       2.902 -20.591 -24.4320  0.00  0.00     0.000 O
ATOM     27  HD  BGC C   2       3.420 -19.916 -24.5910  0.00  0.00     0.000 HD
ATOM     27   C  BGC C   2      -1.965 -21.184 -23.6620  0.00  0.00     0.000 C
ATOM     28   O  BGC C   2      -2.082 -21.798 -24.9550  0.00  0.00     0.000 O
ATOM     30  HD  BGC C   2      -1.564 -21.123 -25.1150  0.00  0.00     0.000 HD
BRANCH 17 30
ATOM     30  O4  BGC C   3       1.101 -24.160 -21.8060  0.00  0.00     0.000 O
BRANCH 30 34
ATOM     31  C1  BGC C   3       0.496 -26.713 -18.7310  0.00  0.00     0.000 C
ATOM     32  C2  BGC C   3      -0.676 -26.578 -19.7320  0.00  0.00     0.000 C
ATOM     33  C3  BGC C   3      -0.239 -25.906 -20.9860  0.00  0.00     0.000 C
ATOM     34  C4  BGC C   3       0.472 -24.603 -20.6130  0.00  0.00     0.000 C
ATOM     35  C5  BGC C   3       1.553 -24.774 -19.5150  0.00  0.00     0.000 C
ATOM     36  O5  BGC C   3       1.014 -25.447 -18.4050  0.00  0.00     0.000 O
ATOM     37   O  BGC C   3      -1.363 -27.752 -20.1240  0.00  0.00     0.000 O
ATOM     39  HD  BGC C   3      -1.053 -26.983 -20.3720  0.00  0.00     0.000 HD
ATOM     39   O  BGC C   3      -1.388 -25.649 -21.8470  0.00  0.00     0.000 O
ATOM     41  HD  BGC C   3      -1.078 -24.880 -22.0950  0.00  0.00     0.000 HD
ATOM     41   C  BGC C   3       2.163 -23.456 -18.9840  0.00  0.00     0.000 C
ATOM     42   O  BGC C   3       1.220 -22.566 -18.2850  0.00  0.00     0.000 O
ATOM     44  HD  BGC C   3       1.530 -21.796 -18.5330  0.00  0.00     0.000 HD
BRANCH 31 44
ATOM     44  O4  BGC C   4       0.085 -27.342 -17.5630  0.00  0.00     0.000 O
BRANCH 44 48
ATOM     45  C1  BGC C   4       1.180 -30.124 -14.7670  0.00  0.00     0.000 C
ATOM     46  C2  BGC C   4       1.630 -28.688 -14.3470  0.00  0.00     0.000 C
ATOM     47  C3  BGC C   4       0.863 -27.811 -15.3450  0.00  0.00     0.000 C
ATOM     48  C4  BGC C   4       0.966 -28.134 -16.8230  0.00  0.00     0.000 C
ATOM     49  C5  BGC C   4       0.484 -29.586 -16.9780  0.00  0.00     0.000 C
ATOM     50  O5  BGC C   4       1.212 -30.441 -16.1670  0.00  0.00     0.000 O
ATOM     51   O  BGC C   4       1.388 -28.112 -12.9410  0.00  0.00     0.000 O
ATOM     53  HD  BGC C   4       1.589 -27.271 -12.9030  0.00  0.00     0.000 HD
ATOM     53   O  BGC C   4       1.628 -26.524 -15.1940  0.00  0.00     0.000 O
ATOM     55  HD  BGC C   4       1.829 -25.683 -15.1570  0.00  0.00     0.000 HD
ATOM     55   C  BGC C   4       0.693 -30.086 -18.3830  0.00  0.00     0.000 C
ATOM     56   O  BGC C   4       2.035 -30.007 -18.8770  0.00  0.00     0.000 O
ATOM     58  HD  BGC C   4       2.236 -29.165 -18.8400  0.00  0.00     0.000 HD
BRANCH 45 58
ATOM     58  O4  BGC C   5       1.941 -31.118 -14.1460  0.00  0.00     0.000 O
BRANCH 58 62
ATOM     59  C1  BGC C   5       3.867 -33.448 -13.6850  0.00  0.00     0.000 C
ATOM     60  C2  BGC C   5       3.897 -32.647 -12.4800  0.00  0.00     0.000 C
ATOM     61  C3  BGC C   5       3.987 -31.147 -12.7440  0.00  0.00     0.000 C
ATOM     62  C4  BGC C   5       3.363 -30.846 -14.0990  0.00  0.00     0.000 C
ATOM     63  C5  BGC C   5       3.881 -31.881 -15.0710  0.00  0.00     0.000 C
ATOM     64  O5  BGC C   5       4.508 -33.049 -14.5450  0.00  0.00     0.000 O
ATOM     65   O  BGC C   5       5.977 -30.760 -15.5030  0.00  0.00     0.000 O
ATOM     67  HD  BGC C   5       5.157 -30.884 -15.7500  0.00  0.00     0.000 HD
ATOM     67   O  BGC C   5       5.977 -30.760 -15.5030  0.00  0.00     0.000 O
ATOM     69  HD  BGC C   5       5.157 -30.884 -15.7500  0.00  0.00     0.000 HD
ENDBRANCH 58 62
ENDBRANCH 45 58
ENDBRANCH 44 48
ENDBRANCH 31 44
ENDBRANCH 30 34
ENDBRANCH 17 30
ENDBRANCH 16 20
ENDBRANCH 1 16
TORSDOF 8
ENDMDL
MODEL 41
REMARK VINA RESULT:      -6.1     24.955     27.482
ROOT
ATOM      1  C1  BGC C   1       8.972 -25.373   0.9240  0.00  0.00     0.000 C
ATOM      2  C2  BGC C   1      10.301 -25.341   1.6770  0.00  0.00     0.000 C
ATOM      3  C3  BGC C   1      10.109 -24.702   3.0470  0.00  0.00     0.000 C
ATOM      4  C4  BGC C   1       9.383 -23.369   2.9630  0.00  0.00     0.000 C
ATOM      5  C5  BGC C   1       8.160 -23.490   2.0580  0.00  0.00     0.000 C
ATOM      6  O5  BGC C   1       8.421 -24.115   0.8420  0.00  0.00     0.000 O
ATOM      7   O  BGC C   1      10.741 -26.671   1.8160  0.00  0.00     0.000 O
ATOM      9  HD  BGC C   1      11.227 -25.958   1.8920  0.00  0.00     0.000 HD
ATOM      9   O  BGC C   1      11.398 -24.573   3.6630  0.00  0.00     0.000 O
ATOM     11  HD  BGC C   1      11.884 -23.860   3.7390  0.00  0.00     0.000 HD
ATOM     11   O  BGC C   1       9.005 -23.022   4.2910  0.00  0.00     0.000 O
ATOM     13  HD  BGC C   1       9.491 -22.309   4.3670  0.00  0.00     0.000 HD
ATOM     13   O  BGC C   1       8.549 -21.309   0.9480  0.00  0.00     0.000 O
ATOM     15  HD  BGC C   1       9.035 -20.597   1.0250  0.00  0.00     0.000 HD
ATOM     15   C  BGC C   1       7.629 -22.072   1.7780  0.00  0.00     0.000 C
ENDROOT
BRANCH 1 16
ATOM     16  O4  BGC C   2       9.213 -25.803  -0.3960  0.00  0.00     0.000 O
BRANCH 16 20
ATOM     17  C1  BGC C   2       7.260 -27.990  -3.2380  0.00  0.00     0.000 C
ATOM     18  C2  BGC C   2       6.408 -26.999  -2.4600  0.00  0.00     0.000 C
ATOM     19  C3  BGC C   2       7.285 -26.007  -1.7100  0.00  0.00     0.000 C
ATOM     20  C4  BGC C   2       8.298 -26.746  -0.9020  0.00  0.00     0.000 C
ATOM     21  C5  BGC C   2       9.043 -27.766  -1.7580  0.00  0.00     0.000 C
ATOM     22  O5  BGC C   2       8.150 -28.642  -2.3780  0.00  0.00     0.000 O
ATOM     23   O  BGC C   2       5.543 -26.312  -3.3770  0.00  0.00     0.000 O
ATOM     25  HD  BGC C   2       5.493 -25.474  -3.1660  0.00  0.00     0.000 HD
ATOM     25   O  BGC C   2       6.469 -25.217  -0.8530  0.00  0.00     0.000 O
ATOM     27  HD  BGC C   2       6.419 -24.379  -0.6420  0.00  0.00     0.000 HD
ATOM     27   C  BGC C   2      10.101 -28.595  -1.0010  0.00  0.00     0.000 C
ATOM     28   O  BGC C   2       9.532 -29.240   0.1500  0.00  0.00     0.000 O
ATOM     30  HD  BGC C   2       9.481 -28.401   0.3610  0.00  0.00     0.000 HD
BRANCH 17 30
ATOM     30  O4  BGC C   3       6.422 -28.957  -3.8340  0.00  0.00     0.000 O
BRANCH 30 34
ATOM     31  C1  BGC C   3       5.962 -30.893  -7.3520  0.00  0.00     0.000 C
ATOM     32  C2  BGC C   3       6.822 -31.623  -6.2920  0.00  0.00     0.000 C
ATOM     33  C3  BGC C   3       6.646 -31.013  -4.9450  0.00  0.00     0.000 C
ATOM     34  C4  BGC C   3       6.872 -29.504  -5.0640  0.00  0.00     0.000 C
ATOM     35  C5  BGC C   3       6.082 -28.844  -6.2230  0.00  0.00     0.000 C
ATOM     36  O5  BGC C   3       6.317 -29.534  -7.4240  0.00  0.00     0.000 O
ATOM     37   O  BGC C   3       6.646 -33.017  -6.1280  0.00  0.00     0.000 O
ATOM     39  HD  BGC C   3       6.792 -32.259  -5.7360  0.00  0.00     0.000 HD
ATOM     39   O  BGC C   3       7.578 -31.611  -3.9960  0.00  0.00     0.000 O
ATOM     41  HD  BGC C   3       7.725 -30.853  -3.6040  0.00  0.00     0.000 HD
ATOM     41   C  BGC C   3       6.424 -27.359  -6.4880  0.00  0.00     0.000 C
ATOM     42   O  BGC C   3       7.804 -27.104  -6.9350  0.00  0.00     0.000 O
ATOM     44  HD  BGC C   3       7.951 -26.346  -6.5430  0.00  0.00     0.000 HD
BRANCH 31 44
ATOM     44  O4  BGC C   4       6.127 -31.465  -8.6070  0.00  0.00     0.000 O
BRANCH 44 48
ATOM     45  C1  BGC C   4       4.142 -32.353 -12.0760  0.00  0.00     0.000 C
ATOM     46  C2  BGC C   4       3.735 -30.946 -11.5310  0.00  0.00     0.000 C
ATOM     47  C3  BGC C   4       4.796 -30.705 -10.4500  0.00  0.00     0.000 C
ATOM     48  C4  BGC C   4       5.025 -31.780  -9.4060  0.00  0.00     0.000 C
ATOM     49  C5  BGC C   4       5.397 -33.055 -10.1800  0.00  0.00     0.000 C
ATOM     50  O5  BGC C   4       4.420 -33.376 -11.1080  0.00  0.00     0.000 O
ATOM     51   O  BGC C   4       3.680 -29.688 -12.4170  0.00  0.00     0.000 O
ATOM     53  HD  BGC C   4       3.553 -28.973 -11.9450  0.00  0.00     0.000 HD
ATOM     53   O  BGC C   4       4.137 -29.586  -9.6900  0.00  0.00     0.000 O
ATOM     55  HD  BGC C   4       4.010 -28.871  -9.2180  0.00  0.00     0.000 HD
ATOM     55   C  BGC C   4       5.491 -34.247  -9.2630  0.00  0.00     0.000 C
ATOM     56   O  BGC C   4       4.321 -34.523  -8.4840  0.00  0.00     0.000 O
ATOM     58  HD  BGC C   4       4.194 -33.808  -8.0130  0.00  0.00     0.000 HD
BRANCH 45 58
ATOM     58  O4  BGC C   5       3.167 -32.895 -12.9160  0.00  0.00     0.000 O
BRANCH 58 62
ATOM     59  C1  BGC C   5       1.595 -32.011 -15.3860  0.00  0.00     0.000 C
ATOM     60  C2  BGC C   5       1.406 -33.441 -15.2710  0.00  0.00     0.000 C
ATOM     61  C3  BGC C   5       2.691 -34.207 -14.9670  0.00  0.00     0.000 C
ATOM     62  C4  BGC C   5       3.649 -33.287 -14.2250  0.00  0.00     0.000 C
ATOM     63  C5  BGC C   5       3.639 -31.956 -14.9400  0.00  0.00     0.000 C
ATOM     64  O5  BGC C   5       2.586 -31.694 -15.8650  0.00  0.00     0.000 O
ATOM     65   O  BGC C   5       5.200 -32.610 -16.6640  0.00  0.00     0.000 O
ATOM     67  HD  BGC C   5       5.088 -32.237 -15.8910  0.00  0.00     0.000 HD
ATOM     67   O  BGC C   5       5.200 -32.610 -16.6640  0.00  0.00     0.000 O
ATOM     69  HD  BGC C   5       5.088 -32.237 -15.8910  0.00  0.00     0.000 HD
ENDBRANCH 58 62
ENDBRANCH 45 58
ENDBRANCH 44 48
ENDBRANCH 31 44
ENDBRANCH 30 34
ENDBRANCH 17 30
ENDBRANCH 16 20
ENDBRANCH 1 16
TORSDOF 8
ENDMDL
MODEL 42
REMARK VINA RESULT:      -6.0      6.020     12.137
ROOT
ATOM      1  C1  BGC C   1      21.034 -10.901 -19.4740  0.00  0.00     0.000 C
ATOM      2  C2  BGC C   1      21.941 -10.030 -20.3430  0.00  0.00     0.000 C
ATOM      3  C3  BGC C   1      22.498  -8.874 -19.5200  0.00  0.00     0.000 C
ATOM      4  C4  BGC C   1      21.409  -8.124 -18.7710  0.00  0.00     0.000 C
ATOM      5  C5  BGC C   1      20.476  -9.108 -18.0710  0.00  0.00     0.000 C
ATOM      6  O5  BGC C   1      20.042 -10.148 -18.8880  0.00  0.00     0.000 O
ATOM      7   O  BGC C   1      22.988 -10.845 -20.8120  0.00  0.00     0.000 O
ATOM      9  HD  BGC C   1      22.740 -10.085 -21.1450  0.00  0.00     0.000 HD
ATOM      9   O  BGC C   1      23.233  -8.014 -20.4020  0.00  0.00     0.000 O
ATOM     11  HD  BGC C   1      22.985  -7.254 -20.7350  0.00  0.00     0.000 HD
ATOM     11   O  BGC C   1      22.064  -7.281 -17.8290  0.00  0.00     0.000 O
ATOM     13  HD  BGC C   1      21.816  -6.521 -18.1620  0.00  0.00     0.000 HD
ATOM     13   O  BGC C   1      18.423  -7.861 -18.6770  0.00  0.00     0.000 O
ATOM     15  HD  BGC C   1      18.175  -7.101 -19.0100  0.00  0.00     0.000 HD
ATOM     15   C  BGC C   1      19.245  -8.329 -17.5720  0.00  0.00     0.000 C
ENDROOT
BRANCH 1 16
ATOM     16  O4  BGC C   2      20.399 -11.850 -20.2980  0.00  0.00     0.000 O
BRANCH 16 20
ATOM     17  C1  BGC C   2      19.072 -15.695 -19.9340  0.00  0.00     0.000 C
ATOM     18  C2  BGC C   2      18.053 -14.608 -19.6290  0.00  0.00     0.000 C
ATOM     19  C3  BGC C   2      18.533 -13.258 -20.1410  0.00  0.00     0.000 C
ATOM     20  C4  BGC C   2      19.913 -12.995 -19.6390  0.00  0.00     0.000 C
ATOM     21  C5  BGC C   2      20.836 -14.176 -19.9280  0.00  0.00     0.000 C
ATOM     22  O5  BGC C   2      20.317 -15.356 -19.3930  0.00  0.00     0.000 O
ATOM     23   O  BGC C   2      16.802 -14.961 -20.2390  0.00  0.00     0.000 O
ATOM     25  HD  BGC C   2      16.431 -14.258 -20.5830  0.00  0.00     0.000 HD
ATOM     25   O  BGC C   2      17.651 -12.242 -19.6800  0.00  0.00     0.000 O
ATOM     27  HD  BGC C   2      17.280 -11.539 -20.0230  0.00  0.00     0.000 HD
ATOM     27   C  BGC C   2      22.284 -14.002 -19.4250  0.00  0.00     0.000 C
ATOM     28   O  BGC C   2      22.314 -13.685 -18.0240  0.00  0.00     0.000 O
ATOM     30  HD  BGC C   2      21.943 -12.982 -18.3670  0.00  0.00     0.000 HD
BRANCH 17 30
ATOM     30  O4  BGC C   3      18.645 -16.909 -19.3550  0.00  0.00     0.000 O
BRANCH 30 34
ATOM     31  C1  BGC C   3      19.597 -20.837 -19.4170  0.00  0.00     0.000 C
ATOM     32  C2  BGC C   3      20.203 -20.018 -18.2520  0.00  0.00     0.000 C
ATOM     33  C3  BGC C   3      19.530 -18.696 -18.1160  0.00  0.00     0.000 C
ATOM     34  C4  BGC C   3      19.530 -18.011 -19.4840  0.00  0.00     0.000 C
ATOM     35  C5  BGC C   3      19.030 -18.919 -20.6380  0.00  0.00     0.000 C
ATOM     36  O5  BGC C   3      19.728 -20.139 -20.6300  0.00  0.00     0.000 O
ATOM     37   O  BGC C   3      20.218 -20.596 -16.9600  0.00  0.00     0.000 O
ATOM     39  HD  BGC C   3      20.112 -19.873 -17.4240  0.00  0.00     0.000 HD
ATOM     39   O  BGC C   3      20.217 -17.882 -17.1200  0.00  0.00     0.000 O
ATOM     41  HD  BGC C   3      20.110 -17.158 -17.5830  0.00  0.00     0.000 HD
ATOM     41   C  BGC C   3      19.188 -18.324 -22.0560  0.00  0.00     0.000 C
ATOM     42   O  BGC C   3      20.577 -18.093 -22.4890  0.00  0.00     0.000 O
ATOM     44  HD  BGC C   3      20.471 -17.369 -22.9520  0.00  0.00     0.000 HD
BRANCH 31 44
ATOM     44  O4  BGC C   4      20.226 -22.069 -19.5390  0.00  0.00     0.000 O
BRANCH 44 48
ATOM     45  C1  BGC C   4      19.670 -25.781 -21.1720  0.00  0.00     0.000 C
ATOM     46  C2  BGC C   4      20.736 -24.963 -21.9700  0.00  0.00     0.000 C
ATOM     47  C3  BGC C   4      21.000 -23.782 -21.0270  0.00  0.00     0.000 C
ATOM     48  C4  BGC C   4      19.815 -22.996 -20.5010  0.00  0.00     0.000 C
ATOM     49  C5  BGC C   4      18.917 -24.009 -19.7750  0.00  0.00     0.000 C
ATOM     50  O5  BGC C   4      18.566 -25.054 -20.6140  0.00  0.00     0.000 O
ATOM     51   O  BGC C   4      22.101 -25.543 -22.3820  0.00  0.00     0.000 O
ATOM     53  HD  BGC C   4      22.619 -24.932 -22.7110  0.00  0.00     0.000 HD
ATOM     53   O  BGC C   4      21.676 -22.838 -21.9830  0.00  0.00     0.000 O
ATOM     55  HD  BGC C   4      22.194 -22.227 -22.3120  0.00  0.00     0.000 HD
ATOM     55   C  BGC C   4      17.617 -23.381 -19.3450  0.00  0.00     0.000 C
ATOM     56   O  BGC C   4      16.848 -22.771 -20.3880  0.00  0.00     0.000 O
ATOM     58  HD  BGC C   4      17.366 -22.161 -20.7180  0.00  0.00     0.000 HD
BRANCH 45 58
ATOM     58  O4  BGC C   5      19.093 -26.791 -21.9470  0.00  0.00     0.000 O
BRANCH 58 62
ATOM     59  C1  BGC C   5      18.013 -29.515 -22.8210  0.00  0.00     0.000 C
ATOM     60  C2  BGC C   5      17.266 -28.522 -23.5630  0.00  0.00     0.000 C
ATOM     61  C3  BGC C   5      16.798 -27.345 -22.7110  0.00  0.00     0.000 C
ATOM     62  C4  BGC C   5      17.756 -27.172 -21.5400  0.00  0.00     0.000 C
ATOM     63  C5  BGC C   5      18.015 -28.546 -20.9670  0.00  0.00     0.000 C
ATOM     64  O5  BGC C   5      17.654 -29.684 -21.7470  0.00  0.00     0.000 O
ATOM     65   O  BGC C   5      16.000 -28.624 -19.6370  0.00  0.00     0.000 O
ATOM     67  HD  BGC C   5      16.844 -28.434 -19.6630  0.00  0.00     0.000 HD
ATOM     67   O  BGC C   5      16.000 -28.624 -19.6370  0.00  0.00     0.000 O
ATOM     69  HD  BGC C   5      16.844 -28.434 -19.6630  0.00  0.00     0.000 HD
ENDBRANCH 58 62
ENDBRANCH 45 58
ENDBRANCH 44 48
ENDBRANCH 31 44
ENDBRANCH 30 34
ENDBRANCH 17 30
ENDBRANCH 16 20
ENDBRANCH 1 16
TORSDOF 8
ENDMDL
MODEL 43
REMARK VINA RESULT:      -6.0     16.869     18.918
ROOT
ATOM      1  C1  BGC C   1      12.217   2.111 -23.6300  0.00  0.00     0.000 C
ATOM      2  C2  BGC C   1      13.742   2.036 -23.5610  0.00  0.00     0.000 C
ATOM      3  C3  BGC C   1      14.227   2.517 -22.1980  0.00  0.00     0.000 C
ATOM      4  C4  BGC C   1      13.630   3.861 -21.8170  0.00  0.00     0.000 C
ATOM      5  C5  BGC C   1      12.126   3.864 -22.0760  0.00  0.00     0.000 C
ATOM      6  O5  BGC C   1      11.772   3.379 -23.3320  0.00  0.00     0.000 O
ATOM      7   O  BGC C   1      14.109   0.693 -23.7640  0.00  0.00     0.000 O
ATOM      9  HD  BGC C   1      14.623   1.384 -23.8490  0.00  0.00     0.000 HD
ATOM      9   O  BGC C   1      15.660   2.554 -22.2240  0.00  0.00     0.000 O
ATOM     11  HD  BGC C   1      16.174   3.246 -22.3090  0.00  0.00     0.000 HD
ATOM     11   O  BGC C   1      13.911   4.060 -20.4360  0.00  0.00     0.000 O
ATOM     13  HD  BGC C   1      14.426   4.751 -20.5200  0.00  0.00     0.000 HD
ATOM     13   O  BGC C   1      12.118   6.151 -23.0280  0.00  0.00     0.000 O
ATOM     15  HD  BGC C   1      12.632   6.843 -23.1130  0.00  0.00     0.000 HD
ATOM     15   C  BGC C   1      11.620   5.313 -21.9490  0.00  0.00     0.000 C
ENDROOT
BRANCH 1 16
ATOM     16  O4  BGC C   2      11.812   1.832 -24.9490  0.00  0.00     0.000 O
BRANCH 16 20
ATOM     17  C1  BGC C   2       8.646   0.084 -26.8450  0.00  0.00     0.000 C
ATOM     18  C2  BGC C   2       8.445   1.527 -26.4090  0.00  0.00     0.000 C
ATOM     19  C3  BGC C   2       9.777   2.174 -26.0580  0.00  0.00     0.000 C
ATOM     20  C4  BGC C   2      10.511   1.312 -25.0860  0.00  0.00     0.000 C
ATOM     21  C5  BGC C   2      10.589  -0.129 -25.5820  0.00  0.00     0.000 C
ATOM     22  O5  BGC C   2       9.316  -0.634 -25.8490  0.00  0.00     0.000 O
ATOM     23   O  BGC C   2       7.802   2.247 -27.4720  0.00  0.00     0.000 O
ATOM     25  HD  BGC C   2       8.149   3.037 -27.5480  0.00  0.00     0.000 HD
ATOM     25   O  BGC C   2       9.538   3.453 -25.4820  0.00  0.00     0.000 O
ATOM     27  HD  BGC C   2       9.884   4.243 -25.5580  0.00  0.00     0.000 HD
ATOM     27   C  BGC C   2      11.316  -1.101 -24.6300  0.00  0.00     0.000 C
ATOM     28   O  BGC C   2      10.743  -1.065 -23.3130  0.00  0.00     0.000 O
ATOM     30  HD  BGC C   2      11.090  -0.275 -23.3880  0.00  0.00     0.000 HD
BRANCH 17 30
ATOM     30  O4  BGC C   3       7.386  -0.516 -27.0620  0.00  0.00     0.000 O
BRANCH 30 34
ATOM     31  C1  BGC C   3       5.465  -3.044 -29.5630  0.00  0.00     0.000 C
ATOM     32  C2  BGC C   3       6.597  -3.671 -28.7150  0.00  0.00     0.000 C
ATOM     33  C3  BGC C   3       6.998  -2.769 -27.6000  0.00  0.00     0.000 C
ATOM     34  C4  BGC C   3       7.289  -1.383 -28.1820  0.00  0.00     0.000 C
ATOM     35  C5  BGC C   3       6.178  -0.855 -29.1250  0.00  0.00     0.000 C
ATOM     36  O5  BGC C   3       5.880  -1.815 -30.1070  0.00  0.00     0.000 O
ATOM     37   O  BGC C   3       6.379  -4.946 -28.1410  0.00  0.00     0.000 O
ATOM     39  HD  BGC C   3       6.727  -4.160 -28.0370  0.00  0.00     0.000 HD
ATOM     39   O  BGC C   3       8.166  -3.306 -26.9120  0.00  0.00     0.000 O
ATOM     41  HD  BGC C   3       8.514  -2.520 -26.8080  0.00  0.00     0.000 HD
ATOM     41   C  BGC C   3       6.519   0.455 -29.8720  0.00  0.00     0.000 C
ATOM     42   O  BGC C   3       7.642   0.363 -30.8190  0.00  0.00     0.000 O
ATOM     44  HD  BGC C   3       7.990   1.149 -30.7160  0.00  0.00     0.000 HD
BRANCH 31 44
ATOM     44  O4  BGC C   4       5.093  -3.889 -30.6010  0.00  0.00     0.000 O
BRANCH 44 48
ATOM     45  C1  BGC C   4       1.926  -5.699 -32.4580  0.00  0.00     0.000 C
ATOM     46  C2  BGC C   4       2.006  -4.181 -32.8190  0.00  0.00     0.000 C
ATOM     47  C3  BGC C   4       3.394  -3.801 -32.2890  0.00  0.00     0.000 C
ATOM     48  C4  BGC C   4       3.748  -4.164 -30.8600  0.00  0.00     0.000 C
ATOM     49  C5  BGC C   4       3.584  -5.688 -30.7520  0.00  0.00     0.000 C
ATOM     50  O5  BGC C   4       2.310  -6.079 -31.1280  0.00  0.00     0.000 O
ATOM     51   O  BGC C   4       1.900  -3.657 -34.2630  0.00  0.00     0.000 O
ATOM     53  HD  BGC C   4       2.080  -2.811 -34.3070  0.00  0.00     0.000 HD
ATOM     53   O  BGC C   4       3.258  -2.303 -32.2680  0.00  0.00     0.000 O
ATOM     55  HD  BGC C   4       3.438  -1.457 -32.3120  0.00  0.00     0.000 HD
ATOM     55   C  BGC C   4       3.749  -6.158 -29.3300  0.00  0.00     0.000 C
ATOM     56   O  BGC C   4       2.879  -5.547 -28.3700  0.00  0.00     0.000 O
ATOM     58  HD  BGC C   4       3.058  -4.701 -28.4150  0.00  0.00     0.000 HD
BRANCH 45 58
ATOM     58  O4  BGC C   5       0.639  -6.215 -32.6320  0.00  0.00     0.000 O
BRANCH 58 62
ATOM     59  C1  BGC C   5      -2.308  -7.018 -32.7810  0.00  0.00     0.000 C
ATOM     60  C2  BGC C   5      -2.273  -5.697 -32.1940  0.00  0.00     0.000 C
ATOM     61  C3  BGC C   5      -1.203  -5.532 -31.1180  0.00  0.00     0.000 C
ATOM     62  C4  BGC C   5      -0.066  -6.503 -31.4000  0.00  0.00     0.000 C
ATOM     63  C5  BGC C   5      -0.690  -7.838 -31.7370  0.00  0.00     0.000 C
ATOM     64  O5  BGC C   5      -2.080  -7.874 -32.0550  0.00  0.00     0.000 O
ATOM     65   O  BGC C   5      -1.038  -8.514 -29.4440  0.00  0.00     0.000 O
ATOM     67  HD  BGC C   5      -0.519  -8.539 -30.1370  0.00  0.00     0.000 HD
ATOM     67   O  BGC C   5      -1.038  -8.514 -29.4440  0.00  0.00     0.000 O
ATOM     69  HD  BGC C   5      -0.519  -8.539 -30.1370  0.00  0.00     0.000 HD
ENDBRANCH 58 62
ENDBRANCH 45 58
ENDBRANCH 44 48
ENDBRANCH 31 44
ENDBRANCH 30 34
ENDBRANCH 17 30
ENDBRANCH 16 20
ENDBRANCH 1 16
TORSDOF 8
ENDMDL
MODEL 44
REMARK VINA RESULT:      -6.0      6.103     15.587
ROOT
ATOM      1  C1  BGC C   1      22.022  -7.139 -22.5660  0.00  0.00     0.000 C
ATOM      2  C2  BGC C   1      22.799  -8.440 -22.3720  0.00  0.00     0.000 C
ATOM      3  C3  BGC C   1      23.451  -8.860 -23.6840  0.00  0.00     0.000 C
ATOM      4  C4  BGC C   1      22.465  -8.865 -24.8410  0.00  0.00     0.000 C
ATOM      5  C5  BGC C   1      21.640  -7.581 -24.8360  0.00  0.00     0.000 C
ATOM      6  O5  BGC C   1      21.110  -7.257 -23.5900  0.00  0.00     0.000 O
ATOM      7   O  BGC C   1      23.781  -8.204 -21.3920  0.00  0.00     0.000 O
ATOM      9  HD  BGC C   1      23.486  -8.977 -21.6470  0.00  0.00     0.000 HD
ATOM      9   O  BGC C   1      24.055 -10.145 -23.4900  0.00  0.00     0.000 O
ATOM     11  HD  BGC C   1      23.760 -10.918 -23.7450  0.00  0.00     0.000 HD
ATOM     11   O  BGC C   1      23.231  -8.977 -26.0350  0.00  0.00     0.000 O
ATOM     13  HD  BGC C   1      22.935  -9.750 -26.2900  0.00  0.00     0.000 HD
ATOM     13   O  BGC C   1      19.515  -8.737 -25.3690  0.00  0.00     0.000 O
ATOM     15  HD  BGC C   1      19.219  -9.510 -25.6240  0.00  0.00     0.000 HD
ATOM     15   C  BGC C   1      20.479  -7.753 -25.8330  0.00  0.00     0.000 C
ENDROOT
BRANCH 1 16
ATOM     16  O4  BGC C   2      21.291  -6.871 -21.3930  0.00  0.00     0.000 O
BRANCH 16 20
ATOM     17  C1  BGC C   2      20.369  -3.648 -19.0610  0.00  0.00     0.000 C
ATOM     18  C2  BGC C   2      19.521  -3.830 -20.3100  0.00  0.00     0.000 C
ATOM     19  C3  BGC C   2      19.702  -5.226 -20.8870  0.00  0.00     0.000 C
ATOM     20  C4  BGC C   2      21.157  -5.510 -21.0600  0.00  0.00     0.000 C
ATOM     21  C5  BGC C   2      21.927  -5.224 -19.7740  0.00  0.00     0.000 C
ATOM     22  O5  BGC C   2      21.713  -3.912 -19.3460  0.00  0.00     0.000 O
ATOM     23   O  BGC C   2      18.144  -3.602 -19.9720  0.00  0.00     0.000 O
ATOM     25  HD  BGC C   2      17.640  -4.178 -20.3760  0.00  0.00     0.000 HD
ATOM     25   O  BGC C   2      19.045  -5.300 -22.1470  0.00  0.00     0.000 O
ATOM     27  HD  BGC C   2      18.540  -5.876 -22.5510  0.00  0.00     0.000 HD
ATOM     27   C  BGC C   2      23.447  -5.471 -19.8640  0.00  0.00     0.000 C
ATOM     28   O  BGC C   2      24.030  -4.745 -20.9580  0.00  0.00     0.000 O
ATOM     30  HD  BGC C   2      23.525  -5.321 -21.3630  0.00  0.00     0.000 HD
BRANCH 17 30
ATOM     30  O4  BGC C   3      20.259  -2.314 -18.6130  0.00  0.00     0.000 O
BRANCH 30 34
ATOM     31  C1  BGC C   3      20.194  -0.099 -15.2330  0.00  0.00     0.000 C
ATOM     32  C2  BGC C   3      21.532  -0.810 -15.5430  0.00  0.00     0.000 C
ATOM     33  C3  BGC C   3      21.569  -1.300 -16.9490  0.00  0.00     0.000 C
ATOM     34  C4  BGC C   3      20.302  -2.119 -17.2070  0.00  0.00     0.000 C
ATOM     35  C5  BGC C   3      18.997  -1.410 -16.7630  0.00  0.00     0.000 C
ATOM     36  O5  BGC C   3      19.112  -0.975 -15.4310  0.00  0.00     0.000 O
ATOM     37   O  BGC C   3      22.737  -0.096 -15.3350  0.00  0.00     0.000 O
ATOM     39  HD  BGC C   3      22.312  -0.661 -15.8350  0.00  0.00     0.000 HD
ATOM     39   O  BGC C   3      22.767  -2.100 -17.1720  0.00  0.00     0.000 O
ATOM     41  HD  BGC C   3      22.342  -2.665 -17.6730  0.00  0.00     0.000 HD
ATOM     41   C  BGC C   3      17.720  -2.277 -16.8400  0.00  0.00     0.000 C
ATOM     42   O  BGC C   3      17.700  -3.445 -15.9430  0.00  0.00     0.000 O
ATOM     44  HD  BGC C   3      17.275  -4.010 -16.4430  0.00  0.00     0.000 HD
BRANCH 31 44
ATOM     44  O4  BGC C   4      20.165   0.358 -13.9220  0.00  0.00     0.000 O
BRANCH 44 48
ATOM     45  C1  BGC C   4      19.107   3.493 -11.5100  0.00  0.00     0.000 C
ATOM     46  C2  BGC C   4      17.883   2.963 -12.3240  0.00  0.00     0.000 C
ATOM     47  C3  BGC C   4      18.425   1.643 -12.8890  0.00  0.00     0.000 C
ATOM     48  C4  BGC C   4      19.753   1.659 -13.6200  0.00  0.00     0.000 C
ATOM     49  C5  BGC C   4      20.781   2.224 -12.6280  0.00  0.00     0.000 C
ATOM     50  O5  BGC C   4      20.388   3.467 -12.1580  0.00  0.00     0.000 O
ATOM     51   O  BGC C   4      16.515   2.667 -11.6820  0.00  0.00     0.000 O
ATOM     53  HD  BGC C   4      15.983   2.272 -12.2390  0.00  0.00     0.000 HD
ATOM     53   O  BGC C   4      17.409   1.392 -13.9700  0.00  0.00     0.000 O
ATOM     55  HD  BGC C   4      16.876   0.997 -14.5260  0.00  0.00     0.000 HD
ATOM     55   C  BGC C   4      22.117   2.446 -13.2890  0.00  0.00     0.000 C
ATOM     56   O  BGC C   4      22.103   3.290 -14.4470  0.00  0.00     0.000 O
ATOM     58  HD  BGC C   4      21.570   2.894 -15.0040  0.00  0.00     0.000 HD
BRANCH 45 58
ATOM     58  O4  BGC C   5      18.931   4.815 -11.0950  0.00  0.00     0.000 O
BRANCH 58 62
ATOM     59  C1  BGC C   5      18.745   7.815 -10.5340  0.00  0.00     0.000 C
ATOM     60  C2  BGC C   5      17.409   7.285 -10.3710  0.00  0.00     0.000 C
ATOM     61  C3  BGC C   5      16.994   6.318 -11.4760  0.00  0.00     0.000 C
ATOM     62  C4  BGC C   5      18.241   5.660 -12.0490  0.00  0.00     0.000 C
ATOM     63  C5  BGC C   5      19.268   6.749 -12.2560  0.00  0.00     0.000 C
ATOM     64  O5  BGC C   5      19.058   8.007 -11.6190  0.00  0.00     0.000 O
ATOM     65   O  BGC C   5      18.381   7.499 -14.3750  0.00  0.00     0.000 O
ATOM     67  HD  BGC C   5      18.950   6.989 -13.9660  0.00  0.00     0.000 HD
ATOM     67   O  BGC C   5      18.381   7.499 -14.3750  0.00  0.00     0.000 O
ATOM     69  HD  BGC C   5      18.950   6.989 -13.9660  0.00  0.00     0.000 HD
ENDBRANCH 58 62
ENDBRANCH 45 58
ENDBRANCH 44 48
ENDBRANCH 31 44
ENDBRANCH 30 34
ENDBRANCH 17 30
ENDBRANCH 16 20
ENDBRANCH 1 16
TORSDOF 8
ENDMDL
MODEL 45
REMARK VINA RESULT:      -6.0     21.806     26.343
ROOT
ATOM      1  C1  BGC C   1      13.149 -28.771 -27.9120  0.00  0.00     0.000 C
ATOM      2  C2  BGC C   1      14.425 -29.146 -27.1600  0.00  0.00     0.000 C
ATOM      3  C3  BGC C   1      15.527 -29.507 -28.1490  0.00  0.00     0.000 C
ATOM      4  C4  BGC C   1      15.065 -30.524 -29.1790  0.00  0.00     0.000 C
ATOM      5  C5  BGC C   1      13.706 -30.120 -29.7460  0.00  0.00     0.000 C
ATOM      6  O5  BGC C   1      12.771 -29.776 -28.7740  0.00  0.00     0.000 O
ATOM      7   O  BGC C   1      14.805 -28.030 -26.3900  0.00  0.00     0.000 O
ATOM      9  HD  BGC C   1      15.065 -28.848 -26.2730  0.00  0.00     0.000 HD
ATOM      9   O  BGC C   1      16.658 -29.976 -27.4030  0.00  0.00     0.000 O
ATOM     11  HD  BGC C   1      16.919 -30.794 -27.2860  0.00  0.00     0.000 HD
ATOM     11   O  BGC C   1      16.056 -30.555 -30.2000  0.00  0.00     0.000 O
ATOM     13  HD  BGC C   1      16.316 -31.373 -30.0830  0.00  0.00     0.000 HD
ATOM     13   O  BGC C   1      12.807 -32.428 -29.7020  0.00  0.00     0.000 O
ATOM     15  HD  BGC C   1      13.067 -33.246 -29.5850  0.00  0.00     0.000 HD
ATOM     15   C  BGC C   1      13.155 -31.306 -30.5590  0.00  0.00     0.000 C
ENDROOT
BRANCH 1 16
ATOM     16  O4  BGC C   2      12.106 -28.615 -26.9790  0.00  0.00     0.000 O
BRANCH 16 20
ATOM     17  C1  BGC C   2       8.778 -26.296 -26.5080  0.00  0.00     0.000 C
ATOM     18  C2  BGC C   2       8.628 -27.493 -27.4330  0.00  0.00     0.000 C
ATOM     19  C3  BGC C   2       9.783 -28.467 -27.2470  0.00  0.00     0.000 C
ATOM     20  C4  BGC C   2      11.078 -27.733 -27.3620  0.00  0.00     0.000 C
ATOM     21  C5  BGC C   2      11.095 -26.508 -26.4520  0.00  0.00     0.000 C
ATOM     22  O5  BGC C   2      10.012 -25.671 -26.7220  0.00  0.00     0.000 O
ATOM     23   O  BGC C   2       7.377 -28.140 -27.1530  0.00  0.00     0.000 O
ATOM     25  HD  BGC C   2       7.476 -29.001 -27.1770  0.00  0.00     0.000 HD
ATOM     25   O  BGC C   2       9.711 -29.474 -28.2490  0.00  0.00     0.000 O
ATOM     27  HD  BGC C   2       9.810 -30.334 -28.2730  0.00  0.00     0.000 HD
ATOM     27   C  BGC C   2      12.391 -25.674 -26.5180  0.00  0.00     0.000 C
ATOM     28   O  BGC C   2      12.694 -25.288 -27.8680  0.00  0.00     0.000 O
ATOM     30  HD  BGC C   2      12.793 -26.148 -27.8920  0.00  0.00     0.000 HD
BRANCH 17 30
ATOM     30  O4  BGC C   3       7.751 -25.366 -26.7790  0.00  0.00     0.000 O
BRANCH 30 34
ATOM     31  C1  BGC C   3       5.114 -22.950 -24.8960  0.00  0.00     0.000 C
ATOM     32  C2  BGC C   3       6.554 -22.400 -25.0250  0.00  0.00     0.000 C
ATOM     33  C3  BGC C   3       7.344 -23.184 -26.0150  0.00  0.00     0.000 C
ATOM     34  C4  BGC C   3       7.225 -24.668 -25.6610  0.00  0.00     0.000 C
ATOM     35  C5  BGC C   3       5.768 -25.139 -25.4200  0.00  0.00     0.000 C
ATOM     36  O5  BGC C   3       5.135 -24.296 -24.4900  0.00  0.00     0.000 O
ATOM     37   O  BGC C   3       6.726 -21.037 -25.3630  0.00  0.00     0.000 O
ATOM     39  HD  BGC C   3       7.017 -21.846 -25.4650  0.00  0.00     0.000 HD
ATOM     39   O  BGC C   3       8.736 -22.751 -26.0050  0.00  0.00     0.000 O
ATOM     41  HD  BGC C   3       9.028 -23.560 -26.1070  0.00  0.00     0.000 HD
ATOM     41   C  BGC C   3       5.624 -26.582 -24.8840  0.00  0.00     0.000 C
ATOM     42   O  BGC C   3       6.197 -26.814 -23.5470  0.00  0.00     0.000 O
ATOM     44  HD  BGC C   3       6.489 -27.623 -23.6490  0.00  0.00     0.000 HD
BRANCH 31 44
ATOM     44  O4  BGC C   4       4.381 -22.216 -23.9740  0.00  0.00     0.000 O
BRANCH 44 48
ATOM     45  C1  BGC C   4       0.585 -21.451 -22.6430  0.00  0.00     0.000 C
ATOM     46  C2  BGC C   4       1.238 -22.631 -21.8540  0.00  0.00     0.000 C
ATOM     47  C3  BGC C   4       2.706 -22.529 -22.2870  0.00  0.00     0.000 C
ATOM     48  C4  BGC C   4       3.022 -22.466 -23.7690  0.00  0.00     0.000 C
ATOM     49  C5  BGC C   4       2.265 -21.246 -24.3160  0.00  0.00     0.000 C
ATOM     50  O5  BGC C   4       0.911 -21.333 -24.0370  0.00  0.00     0.000 O
ATOM     51   O  BGC C   4       1.213 -22.726 -20.3180  0.00  0.00     0.000 O
ATOM     53  HD  BGC C   4       1.715 -23.371 -20.0310  0.00  0.00     0.000 HD
ATOM     53   O  BGC C   4       3.193 -23.887 -21.8630  0.00  0.00     0.000 O
ATOM     55  HD  BGC C   4       3.695 -24.532 -21.5760  0.00  0.00     0.000 HD
ATOM     55   C  BGC C   4       2.363 -21.166 -25.8180  0.00  0.00     0.000 C
ATOM     56   O  BGC C   4       1.915 -22.325 -26.5300  0.00  0.00     0.000 O
ATOM     58  HD  BGC C   4       2.417 -22.970 -26.2440  0.00  0.00     0.000 HD
BRANCH 45 58
ATOM     58  O4  BGC C   5      -0.810 -21.492 -22.5930  0.00  0.00     0.000 O
BRANCH 58 62
ATOM     59  C1  BGC C   5      -1.785 -20.076 -20.0640  0.00  0.00     0.000 C
ATOM     60  C2  BGC C   5      -2.970 -20.494 -20.7810  0.00  0.00     0.000 C
ATOM     61  C3  BGC C   5      -2.911 -20.210 -22.2790  0.00  0.00     0.000 C
ATOM     62  C4  BGC C   5      -1.456 -20.201 -22.7230  0.00  0.00     0.000 C
ATOM     63  C5  BGC C   5      -0.682 -19.394 -21.7060  0.00  0.00     0.000 C
ATOM     64  O5  BGC C   5      -1.301 -19.113 -20.4530  0.00  0.00     0.000 O
ATOM     65   O  BGC C   5      -1.247 -17.241 -22.6440  0.00  0.00     0.000 O
ATOM     67  HD  BGC C   5      -0.677 -17.892 -22.6160  0.00  0.00     0.000 HD
ATOM     67   O  BGC C   5      -1.247 -17.241 -22.6440  0.00  0.00     0.000 O
ATOM     69  HD  BGC C   5      -0.677 -17.892 -22.6160  0.00  0.00     0.000 HD
ENDBRANCH 58 62
ENDBRANCH 45 58
ENDBRANCH 44 48
ENDBRANCH 31 44
ENDBRANCH 30 34
ENDBRANCH 17 30
ENDBRANCH 16 20
ENDBRANCH 1 16
TORSDOF 8
ENDMDL
MODEL 46
REMARK VINA RESULT:      -6.0     12.581     18.392
ROOT
ATOM      1  C1  BGC C   1      17.501 -15.830 -25.6160  0.00  0.00     0.000 C
ATOM      2  C2  BGC C   1      18.391 -14.604 -25.4170  0.00  0.00     0.000 C
ATOM      3  C3  BGC C   1      17.551 -13.333 -25.4750  0.00  0.00     0.000 C
ATOM      4  C4  BGC C   1      16.660 -13.289 -26.7040  0.00  0.00     0.000 C
ATOM      5  C5  BGC C   1      15.942 -14.624 -26.8850  0.00  0.00     0.000 C
ATOM      6  O5  BGC C   1      16.780 -15.731 -26.7840  0.00  0.00     0.000 O
ATOM      7   O  BGC C   1      19.005 -14.727 -24.1560  0.00  0.00     0.000 O
ATOM      9  HD  BGC C   1      19.265 -14.218 -24.8060  0.00  0.00     0.000 HD
ATOM      9   O  BGC C   1      18.440 -12.210 -25.4150  0.00  0.00     0.000 O
ATOM     11  HD  BGC C   1      18.700 -11.700 -26.0650  0.00  0.00     0.000 HD
ATOM     11   O  BGC C   1      15.730 -12.231 -26.5010  0.00  0.00     0.000 O
ATOM     13  HD  BGC C   1      15.990 -11.721 -27.1510  0.00  0.00     0.000 HD
ATOM     13   O  BGC C   1      16.278 -14.672 -29.3390  0.00  0.00     0.000 O
ATOM     15  HD  BGC C   1      16.538 -14.162 -29.9890  0.00  0.00     0.000 HD
ATOM     15   C  BGC C   1      15.284 -14.630 -28.2770  0.00  0.00     0.000 C
ENDROOT
BRANCH 1 16
ATOM     16  O4  BGC C   2      18.322 -16.968 -25.7340  0.00  0.00     0.000 O
BRANCH 16 20
ATOM     17  C1  BGC C   2      18.040 -20.965 -24.9490  0.00  0.00     0.000 C
ATOM     18  C2  BGC C   2      17.569 -20.523 -26.3250  0.00  0.00     0.000 C
ATOM     19  C3  BGC C   2      18.052 -19.113 -26.6340  0.00  0.00     0.000 C
ATOM     20  C4  BGC C   2      17.682 -18.202 -25.5130  0.00  0.00     0.000 C
ATOM     21  C5  BGC C   2      18.131 -18.773 -24.1710  0.00  0.00     0.000 C
ATOM     22  O5  BGC C   2      17.613 -20.055 -23.9760  0.00  0.00     0.000 O
ATOM     23   O  BGC C   2      18.065 -21.449 -27.3040  0.00  0.00     0.000 O
ATOM     25  HD  BGC C   2      18.327 -21.022 -28.0100  0.00  0.00     0.000 HD
ATOM     25   O  BGC C   2      17.444 -18.665 -27.8400  0.00  0.00     0.000 O
ATOM     27  HD  BGC C   2      17.706 -18.238 -28.5460  0.00  0.00     0.000 HD
ATOM     27   C  BGC C   2      17.774 -17.905 -22.9470  0.00  0.00     0.000 C
ATOM     28   O  BGC C   2      16.368 -17.612 -22.9100  0.00  0.00     0.000 O
ATOM     30  HD  BGC C   2      16.630 -17.185 -23.6160  0.00  0.00     0.000 HD
BRANCH 17 30
ATOM     30  O4  BGC C   3      17.489 -22.231 -24.6520  0.00  0.00     0.000 O
BRANCH 30 34
ATOM     31  C1  BGC C   3      18.182 -25.549 -22.4500  0.00  0.00     0.000 C
ATOM     32  C2  BGC C   3      18.057 -24.229 -21.6530  0.00  0.00     0.000 C
ATOM     33  C3  BGC C   3      17.468 -23.147 -22.4900  0.00  0.00     0.000 C
ATOM     34  C4  BGC C   3      18.258 -23.065 -23.7990  0.00  0.00     0.000 C
ATOM     35  C5  BGC C   3      18.461 -24.436 -24.4940  0.00  0.00     0.000 C
ATOM     36  O5  BGC C   3      18.994 -25.365 -23.5840  0.00  0.00     0.000 O
ATOM     37   O  BGC C   3      17.326 -24.242 -20.4410  0.00  0.00     0.000 O
ATOM     39  HD  BGC C   3      17.522 -23.799 -21.1590  0.00  0.00     0.000 HD
ATOM     39   O  BGC C   3      17.504 -21.878 -21.7730  0.00  0.00     0.000 O
ATOM     41  HD  BGC C   3      17.700 -21.435 -22.4910  0.00  0.00     0.000 HD
ATOM     41   C  BGC C   3      19.406 -24.417 -25.7170  0.00  0.00     0.000 C
ATOM     42   O  BGC C   3      20.805 -24.064 -25.4230  0.00  0.00     0.000 O
ATOM     44  HD  BGC C   3      21.002 -23.621 -26.1410  0.00  0.00     0.000 HD
BRANCH 31 44
ATOM     44  O4  BGC C   4      18.730 -26.555 -21.6660  0.00  0.00     0.000 O
BRANCH 44 48
ATOM     45  C1  BGC C   4      18.390 -30.477 -20.5450  0.00  0.00     0.000 C
ATOM     46  C2  BGC C   4      18.909 -30.348 -22.0130  0.00  0.00     0.000 C
ATOM     47  C3  BGC C   4      19.248 -28.854 -22.0990  0.00  0.00     0.000 C
ATOM     48  C4  BGC C   4      18.199 -27.847 -21.6740  0.00  0.00     0.000 C
ATOM     49  C5  BGC C   4      17.846 -28.184 -20.2170  0.00  0.00     0.000 C
ATOM     50  O5  BGC C   4      17.436 -29.502 -20.0970  0.00  0.00     0.000 O
ATOM     51   O  BGC C   4      20.122 -31.132 -22.5440  0.00  0.00     0.000 O
ATOM     53  HD  BGC C   4      20.352 -30.864 -23.3350  0.00  0.00     0.000 HD
ATOM     53   O  BGC C   4      19.330 -28.697 -23.5930  0.00  0.00     0.000 O
ATOM     55  HD  BGC C   4      19.560 -28.428 -24.3830  0.00  0.00     0.000 HD
ATOM     55   C  BGC C   4      16.688 -27.354 -19.7260  0.00  0.00     0.000 C
ATOM     56   O  BGC C   4      15.490 -27.439 -20.5060  0.00  0.00     0.000 O
ATOM     58  HD  BGC C   4      15.720 -27.171 -21.2970  0.00  0.00     0.000 HD
BRANCH 45 58
ATOM     58  O4  BGC C   5      17.790 -31.716 -20.3050  0.00  0.00     0.000 O
BRANCH 58 62
ATOM     59  C1  BGC C   5      19.394 -34.140 -19.3530  0.00  0.00     0.000 C
ATOM     60  C2  BGC C   5      18.001 -34.524 -19.2980  0.00  0.00     0.000 C
ATOM     61  C3  BGC C   5      17.095 -33.460 -18.6830  0.00  0.00     0.000 C
ATOM     62  C4  BGC C   5      17.720 -32.091 -18.9070  0.00  0.00     0.000 C
ATOM     63  C5  BGC C   5      19.189 -32.209 -18.5720  0.00  0.00     0.000 C
ATOM     64  O5  BGC C   5      19.756 -33.513 -18.4650  0.00  0.00     0.000 O
ATOM     65   O  BGC C   5      18.900 -31.969 -16.1860  0.00  0.00     0.000 O
ATOM     67  HD  BGC C   5      19.066 -31.576 -16.9390  0.00  0.00     0.000 HD
ATOM     67   O  BGC C   5      18.900 -31.969 -16.1860  0.00  0.00     0.000 O
ATOM     69  HD  BGC C   5      19.066 -31.576 -16.9390  0.00  0.00     0.000 HD
ENDBRANCH 58 62
ENDBRANCH 45 58
ENDBRANCH 44 48
ENDBRANCH 31 44
ENDBRANCH 30 34
ENDBRANCH 17 30
ENDBRANCH 16 20
ENDBRANCH 1 16
TORSDOF 8
ENDMDL
MODEL 47
REMARK VINA RESULT:      -5.9     21.613     23.662
ROOT
ATOM      1  C1  BGC C   1       0.794 -19.942 -24.1450  0.00  0.00     0.000 C
ATOM      2  C2  BGC C   1      -0.296 -19.388 -25.0620  0.00  0.00     0.000 C
ATOM      3  C3  BGC C   1      -1.146 -18.372 -24.3090  0.00  0.00     0.000 C
ATOM      4  C4  BGC C   1      -1.639 -18.910 -22.9760  0.00  0.00     0.000 C
ATOM      5  C5  BGC C   1      -0.493 -19.577 -22.2200  0.00  0.00     0.000 C
ATOM      6  O5  BGC C   1       0.250 -20.465 -22.9940  0.00  0.00     0.000 O
ATOM      7   O  BGC C   1       0.344 -18.774 -26.1560  0.00  0.00     0.000 O
ATOM      9  HD  BGC C   1      -0.482 -19.031 -26.1220  0.00  0.00     0.000 HD
ATOM      9   O  BGC C   1      -2.229 -17.978 -25.1620  0.00  0.00     0.000 O
ATOM     11  HD  BGC C   1      -3.055 -18.235 -25.1280  0.00  0.00     0.000 HD
ATOM     11   O  BGC C   1      -2.154 -17.801 -22.2490  0.00  0.00     0.000 O
ATOM     13  HD  BGC C   1      -2.981 -18.058 -22.2150  0.00  0.00     0.000 HD
ATOM     13   O  BGC C   1      -1.874 -21.491 -21.4650  0.00  0.00     0.000 O
ATOM     15  HD  BGC C   1      -2.700 -21.749 -21.4320  0.00  0.00     0.000 HD
ATOM     15   C  BGC C   1      -1.090 -20.347 -21.0270  0.00  0.00     0.000 C
ENDROOT
BRANCH 1 16
ATOM     16  O4  BGC C   2       1.447 -20.998 -24.8090  0.00  0.00     0.000 O
BRANCH 16 20
ATOM     17  C1  BGC C   2       5.229 -22.485 -25.2030  0.00  0.00     0.000 C
ATOM     18  C2  BGC C   2       4.692 -22.403 -23.7830  0.00  0.00     0.000 C
ATOM     19  C3  BGC C   2       3.185 -22.191 -23.7870  0.00  0.00     0.000 C
ATOM     20  C4  BGC C   2       2.846 -21.032 -24.6640  0.00  0.00     0.000 C
ATOM     21  C5  BGC C   2       3.496 -21.175 -26.0370  0.00  0.00     0.000 C
ATOM     22  O5  BGC C   2       4.877 -21.338 -25.9210  0.00  0.00     0.000 O
ATOM     23   O  BGC C   2       5.026 -23.615 -23.0900  0.00  0.00     0.000 O
ATOM     25  HD  BGC C   2       4.361 -23.868 -22.5970  0.00  0.00     0.000 HD
ATOM     25   O  BGC C   2       2.745 -21.934 -22.4590  0.00  0.00     0.000 O
ATOM     27  HD  BGC C   2       2.080 -22.187 -21.9650  0.00  0.00     0.000 HD
ATOM     27   C  BGC C   2       3.216 -20.009 -27.0080  0.00  0.00     0.000 C
ATOM     28   O  BGC C   2       3.576 -18.747 -26.4240  0.00  0.00     0.000 O
ATOM     30  HD  BGC C   2       2.910 -19.000 -25.9300  0.00  0.00     0.000 HD
BRANCH 17 30
ATOM     30  O4  BGC C   3       6.637 -22.577 -25.1640  0.00  0.00     0.000 O
BRANCH 30 34
ATOM     31  C1  BGC C   3       9.260 -25.089 -26.9370  0.00  0.00     0.000 C
ATOM     32  C2  BGC C   3       9.493 -23.582 -27.1990  0.00  0.00     0.000 C
ATOM     33  C3  BGC C   3       8.714 -22.743 -26.2460  0.00  0.00     0.000 C
ATOM     34  C4  BGC C   3       7.256 -23.208 -26.2740  0.00  0.00     0.000 C
ATOM     35  C5  BGC C   3       7.087 -24.743 -26.1330  0.00  0.00     0.000 C
ATOM     36  O5  BGC C   3       7.897 -25.407 -27.0700  0.00  0.00     0.000 O
ATOM     37   O  BGC C   3      10.821 -23.093 -27.1720  0.00  0.00     0.000 O
ATOM     39  HD  BGC C   3       9.992 -22.938 -26.9730  0.00  0.00     0.000 HD
ATOM     39   O  BGC C   3       8.824 -21.335 -26.6080  0.00  0.00     0.000 O
ATOM     41  HD  BGC C   3       7.996 -21.180 -26.4090  0.00  0.00     0.000 HD
ATOM     41   C  BGC C   3       5.646 -25.265 -26.3390  0.00  0.00     0.000 C
ATOM     42   O  BGC C   3       5.094 -25.065 -27.6900  0.00  0.00     0.000 O
ATOM     44  HD  BGC C   3       4.266 -24.910 -27.4910  0.00  0.00     0.000 HD
BRANCH 31 44
ATOM     44  O4  BGC C   4       9.989 -25.868 -27.8270  0.00  0.00     0.000 O
BRANCH 44 48
ATOM     45  C1  BGC C   4      11.975 -29.421 -28.2620  0.00  0.00     0.000 C
ATOM     46  C2  BGC C   4      10.532 -29.640 -27.7040  0.00  0.00     0.000 C
ATOM     47  C3  BGC C   4       9.895 -28.261 -27.9190  0.00  0.00     0.000 C
ATOM     48  C4  BGC C   4      10.628 -27.037 -27.4060  0.00  0.00     0.000 C
ATOM     49  C5  BGC C   4      12.008 -27.049 -28.0820  0.00  0.00     0.000 C
ATOM     50  O5  BGC C   4      12.671 -28.240 -27.8370  0.00  0.00     0.000 O
ATOM     51   O  BGC C   4       9.564 -30.693 -28.2740  0.00  0.00     0.000 O
ATOM     53  HD  BGC C   4       8.770 -30.609 -27.9370  0.00  0.00     0.000 HD
ATOM     53   O  BGC C   4       8.702 -28.386 -27.0120  0.00  0.00     0.000 O
ATOM     55  HD  BGC C   4       7.908 -28.303 -26.6750  0.00  0.00     0.000 HD
ATOM     55   C  BGC C   4      12.900 -25.968 -27.5280  0.00  0.00     0.000 C
ATOM     56   O  BGC C   4      13.098 -25.994 -26.1100  0.00  0.00     0.000 O
ATOM     58  HD  BGC C   4      12.304 -25.911 -25.7730  0.00  0.00     0.000 HD
BRANCH 45 58
ATOM     58  O4  BGC C   5      12.827 -30.484 -27.9510  0.00  0.00     0.000 O
BRANCH 58 62
ATOM     59  C1  BGC C   5      14.426 -32.925 -27.0390  0.00  0.00     0.000 C
ATOM     60  C2  BGC C   5      13.064 -33.142 -26.6020  0.00  0.00     0.000 C
ATOM     61  C3  BGC C   5      12.421 -31.913 -25.9640  0.00  0.00     0.000 C
ATOM     62  C4  BGC C   5      13.075 -30.663 -26.5350  0.00  0.00     0.000 C
ATOM     63  C5  BGC C   5      14.568 -30.899 -26.5380  0.00  0.00     0.000 C
ATOM     64  O5  BGC C   5      15.042 -32.233 -26.3660  0.00  0.00     0.000 O
ATOM     65   O  BGC C   5      14.895 -30.318 -24.2150  0.00  0.00     0.000 O
ATOM     67  HD  BGC C   5      14.899 -30.048 -25.0380  0.00  0.00     0.000 HD
ATOM     67   O  BGC C   5      14.895 -30.318 -24.2150  0.00  0.00     0.000 O
ATOM     69  HD  BGC C   5      14.899 -30.048 -25.0380  0.00  0.00     0.000 HD
ENDBRANCH 58 62
ENDBRANCH 45 58
ENDBRANCH 44 48
ENDBRANCH 31 44
ENDBRANCH 30 34
ENDBRANCH 17 30
ENDBRANCH 16 20
ENDBRANCH 1 16
TORSDOF 8
ENDMDL
MODEL 48
REMARK VINA RESULT:      -5.9     14.926     16.829
ROOT
ATOM      1  C1  BGC C   1      13.051   4.249 -22.7790  0.00  0.00     0.000 C
ATOM      2  C2  BGC C   1      14.229   5.079 -23.2890  0.00  0.00     0.000 C
ATOM      3  C3  BGC C   1      15.064   5.578 -22.1150  0.00  0.00     0.000 C
ATOM      4  C4  BGC C   1      14.214   6.252 -21.0510  0.00  0.00     0.000 C
ATOM      5  C5  BGC C   1      12.986   5.401 -20.7380  0.00  0.00     0.000 C
ATOM      6  O5  BGC C   1      12.304   4.962 -21.8700  0.00  0.00     0.000 O
ATOM      7   O  BGC C   1      15.003   4.247 -24.1200  0.00  0.00     0.000 O
ATOM      9  HD  BGC C   1      15.019   5.113 -24.1010  0.00  0.00     0.000 HD
ATOM      9   O  BGC C   1      16.075   6.454 -22.6290  0.00  0.00     0.000 O
ATOM     11  HD  BGC C   1      16.090   7.320 -22.6100  0.00  0.00     0.000 HD
ATOM     11   O  BGC C   1      15.038   6.403 -19.9000  0.00  0.00     0.000 O
ATOM     13  HD  BGC C   1      15.053   7.269 -19.8810  0.00  0.00     0.000 HD
ATOM     13   O  BGC C   1      11.449   7.342 -20.6420  0.00  0.00     0.000 O
ATOM     15  HD  BGC C   1      11.464   8.208 -20.6240  0.00  0.00     0.000 HD
ATOM     15   C  BGC C   1      12.024   6.244 -19.8810  0.00  0.00     0.000 C
ENDROOT
BRANCH 1 16
ATOM     16  O4  BGC C   2      12.206   3.953 -23.8650  0.00  0.00     0.000 O
BRANCH 16 20
ATOM     17  C1  BGC C   2       9.851   0.880 -25.1630  0.00  0.00     0.000 C
ATOM     18  C2  BGC C   2       9.398   1.571 -23.8870  0.00  0.00     0.000 C
ATOM     19  C3  BGC C   2      10.120   2.899 -23.7060  0.00  0.00     0.000 C
ATOM     20  C4  BGC C   2      11.592   2.687 -23.8270  0.00  0.00     0.000 C
ATOM     21  C5  BGC C   2      11.933   1.919 -25.1010  0.00  0.00     0.000 C
ATOM     22  O5  BGC C   2      11.239   0.709 -25.1540  0.00  0.00     0.000 O
ATOM     23   O  BGC C   2       7.978   1.777 -23.9500  0.00  0.00     0.000 O
ATOM     25  HD  BGC C   2       7.777   2.557 -23.6310  0.00  0.00     0.000 HD
ATOM     25   O  BGC C   2       9.813   3.427 -22.4220  0.00  0.00     0.000 O
ATOM     27  HD  BGC C   2       9.612   4.207 -22.1030  0.00  0.00     0.000 HD
ATOM     27   C  BGC C   2      13.436   1.635 -25.3010  0.00  0.00     0.000 C
ATOM     28   O  BGC C   2      13.996   0.967 -24.1590  0.00  0.00     0.000 O
ATOM     30  HD  BGC C   2      13.795   1.746 -23.8400  0.00  0.00     0.000 HD
BRANCH 17 30
ATOM     30  O4  BGC C   3       9.242  -0.391 -25.2450  0.00  0.00     0.000 O
BRANCH 30 34
ATOM     31  C1  BGC C   3       7.536  -2.914 -27.9030  0.00  0.00     0.000 C
ATOM     32  C2  BGC C   3       9.080  -2.828 -27.9550  0.00  0.00     0.000 C
ATOM     33  C3  BGC C   3       9.624  -2.162 -26.7390  0.00  0.00     0.000 C
ATOM     34  C4  BGC C   3       8.887  -0.834 -26.5470  0.00  0.00     0.000 C
ATOM     35  C5  BGC C   3       7.344  -0.957 -26.6280  0.00  0.00     0.000 C
ATOM     36  O5  BGC C   3       6.974  -1.628 -27.8060  0.00  0.00     0.000 O
ATOM     37   O  BGC C   3       9.814  -4.027 -28.1180  0.00  0.00     0.000 O
ATOM     39  HD  BGC C   3       9.777  -3.253 -27.7320  0.00  0.00     0.000 HD
ATOM     39   O  BGC C   3      11.060  -1.952 -26.8790  0.00  0.00     0.000 O
ATOM     41  HD  BGC C   3      11.022  -1.177 -26.4940  0.00  0.00     0.000 HD
ATOM     41   C  BGC C   3       6.578   0.386 -26.6210  0.00  0.00     0.000 C
ATOM     42   O  BGC C   3       6.831   1.259 -27.7800  0.00  0.00     0.000 O
ATOM     44  HD  BGC C   3       6.794   2.033 -27.3940  0.00  0.00     0.000 HD
BRANCH 31 44
ATOM     44  O4  BGC C   4       7.033  -3.537 -29.0370  0.00  0.00     0.000 O
BRANCH 44 48
ATOM     45  C1  BGC C   4       4.261  -6.213 -30.4210  0.00  0.00     0.000 C
ATOM     46  C2  BGC C   4       3.604  -4.837 -30.0820  0.00  0.00     0.000 C
ATOM     47  C3  BGC C   4       4.831  -3.936 -29.8960  0.00  0.00     0.000 C
ATOM     48  C4  BGC C   4       5.933  -4.395 -28.9610  0.00  0.00     0.000 C
ATOM     49  C5  BGC C   4       6.403  -5.759 -29.4900  0.00  0.00     0.000 C
ATOM     50  O5  BGC C   4       5.345  -6.647 -29.5860  0.00  0.00     0.000 O
ATOM     51   O  BGC C   4       2.636  -4.114 -31.0350  0.00  0.00     0.000 O
ATOM     53  HD  BGC C   4       2.453  -3.315 -30.7550  0.00  0.00     0.000 HD
ATOM     53   O  BGC C   4       4.193  -2.779 -29.1770  0.00  0.00     0.000 O
ATOM     55  HD  BGC C   4       4.010  -1.980 -28.8980  0.00  0.00     0.000 HD
ATOM     55   C  BGC C   4       7.389  -6.402 -28.5500  0.00  0.00     0.000 C
ATOM     56   O  BGC C   4       6.935  -6.579 -27.2030  0.00  0.00     0.000 O
ATOM     58  HD  BGC C   4       6.752  -5.780 -26.9230  0.00  0.00     0.000 HD
BRANCH 45 58
ATOM     58  O4  BGC C   5       3.336  -7.260 -30.3970  0.00  0.00     0.000 O
BRANCH 58 62
ATOM     59  C1  BGC C   5       1.641  -6.978 -32.9280  0.00  0.00     0.000 C
ATOM     60  C2  BGC C   5       1.146  -8.146 -32.2320  0.00  0.00     0.000 C
ATOM     61  C3  BGC C   5       2.250  -9.063 -31.7110  0.00  0.00     0.000 C
ATOM     62  C4  BGC C   5       3.501  -8.234 -31.4570  0.00  0.00     0.000 C
ATOM     63  C5  BGC C   5       3.686  -7.325 -32.6500  0.00  0.00     0.000 C
ATOM     64  O5  BGC C   5       2.589  -7.152 -33.5460  0.00  0.00     0.000 O
ATOM     65   O  BGC C   5       4.759  -8.986 -34.0390  0.00  0.00     0.000 O
ATOM     67  HD  BGC C   5       4.861  -8.333 -33.4790  0.00  0.00     0.000 HD
ATOM     67   O  BGC C   5       4.759  -8.986 -34.0390  0.00  0.00     0.000 O
ATOM     69  HD  BGC C   5       4.861  -8.333 -33.4790  0.00  0.00     0.000 HD
ENDBRANCH 58 62
ENDBRANCH 45 58
ENDBRANCH 44 48
ENDBRANCH 31 44
ENDBRANCH 30 34
ENDBRANCH 17 30
ENDBRANCH 16 20
ENDBRANCH 1 16
TORSDOF 8
ENDMDL
MODEL 49
REMARK VINA RESULT:      -5.9     22.325     26.608
ROOT
ATOM      1  C1  BGC C   1       8.831 -26.871 -26.9970  0.00  0.00     0.000 C
ATOM      2  C2  BGC C   1      10.065 -27.387 -26.2560  0.00  0.00     0.000 C
ATOM      3  C3  BGC C   1      10.801 -28.407 -27.1160  0.00  0.00     0.000 C
ATOM      4  C4  BGC C   1       9.873 -29.486 -27.6500  0.00  0.00     0.000 C
ATOM      5  C5  BGC C   1       8.607 -28.856 -28.2240  0.00  0.00     0.000 C
ATOM      6  O5  BGC C   1       8.019 -27.912 -27.3860  0.00  0.00     0.000 O
ATOM      7   O  BGC C   1      10.893 -26.279 -25.9940  0.00  0.00     0.000 O
ATOM      9  HD  BGC C   1      10.923 -27.049 -25.5980  0.00  0.00     0.000 HD
ATOM      9   O  BGC C   1      11.870 -28.958 -26.3340  0.00  0.00     0.000 O
ATOM     11  HD  BGC C   1      11.900 -29.727 -25.9380  0.00  0.00     0.000 HD
ATOM     11   O  BGC C   1      10.595 -30.190 -28.6540  0.00  0.00     0.000 O
ATOM     13  HD  BGC C   1      10.625 -30.959 -28.2580  0.00  0.00     0.000 HD
ATOM     13   O  BGC C   1       7.104 -30.566 -27.2470  0.00  0.00     0.000 O
ATOM     15  HD  BGC C   1       7.134 -31.335 -26.8500  0.00  0.00     0.000 HD
ATOM     15   C  BGC C   1       7.589 -29.981 -28.4870  0.00  0.00     0.000 C
ENDROOT
BRANCH 1 16
ATOM     16  O4  BGC C   2       8.079 -26.070 -26.1170  0.00  0.00     0.000 O
BRANCH 16 20
ATOM     17  C1  BGC C   2       4.965 -23.439 -26.3520  0.00  0.00     0.000 C
ATOM     18  C2  BGC C   2       4.587 -24.907 -26.2260  0.00  0.00     0.000 C
ATOM     19  C3  BGC C   2       5.785 -25.736 -25.7850  0.00  0.00     0.000 C
ATOM     20  C4  BGC C   2       6.946 -25.452 -26.6780  0.00  0.00     0.000 C
ATOM     21  C5  BGC C   2       7.192 -23.951 -26.7960  0.00  0.00     0.000 C
ATOM     22  O5  BGC C   2       6.042 -23.290 -27.2320  0.00  0.00     0.000 O
ATOM     23   O  BGC C   2       3.515 -25.030 -25.2800  0.00  0.00     0.000 O
ATOM     25  HD  BGC C   2       3.639 -25.726 -24.7790  0.00  0.00     0.000 HD
ATOM     25   O  BGC C   2       5.449 -27.117 -25.8560  0.00  0.00     0.000 O
ATOM     27  HD  BGC C   2       5.573 -27.813 -25.3560  0.00  0.00     0.000 HD
ATOM     27   C  BGC C   2       8.365 -23.559 -27.7180  0.00  0.00     0.000 C
ATOM     28   O  BGC C   2       8.216 -24.138 -29.0250  0.00  0.00     0.000 O
ATOM     30  HD  BGC C   2       8.340 -24.834 -28.5250  0.00  0.00     0.000 HD
BRANCH 17 30
ATOM     30  O4  BGC C   3       3.865 -22.717 -26.8620  0.00  0.00     0.000 O
BRANCH 30 34
ATOM     31  C1  BGC C   3       1.921 -19.196 -26.4630  0.00  0.00     0.000 C
ATOM     32  C2  BGC C   3       3.345 -19.112 -27.0620  0.00  0.00     0.000 C
ATOM     33  C3  BGC C   3       3.831 -20.454 -27.4870  0.00  0.00     0.000 C
ATOM     34  C4  BGC C   3       3.655 -21.424 -26.3160  0.00  0.00     0.000 C
ATOM     35  C5  BGC C   3       2.245 -21.378 -25.6720  0.00  0.00     0.000 C
ATOM     36  O5  BGC C   3       1.904 -20.053 -25.3480  0.00  0.00     0.000 O
ATOM     37   O  BGC C   3       3.564 -18.241 -28.1550  0.00  0.00     0.000 O
ATOM     39  HD  BGC C   3       3.753 -19.005 -27.7950  0.00  0.00     0.000 HD
ATOM     39   O  BGC C   3       5.227 -20.377 -27.9000  0.00  0.00     0.000 O
ATOM     41  HD  BGC C   3       5.415 -21.141 -27.5400  0.00  0.00     0.000 HD
ATOM     41   C  BGC C   3       2.088 -22.208 -24.3770  0.00  0.00     0.000 C
ATOM     42   O  BGC C   3       2.908 -21.757 -23.2400  0.00  0.00     0.000 O
ATOM     44  HD  BGC C   3       3.097 -22.522 -22.8800  0.00  0.00     0.000 HD
BRANCH 31 44
ATOM     44  O4  BGC C   4       1.471 -17.942 -26.0700  0.00  0.00     0.000 O
BRANCH 44 48
ATOM     45  C1  BGC C   4      -1.745 -15.410 -26.0700  0.00  0.00     0.000 C
ATOM     46  C2  BGC C   4      -1.859 -16.474 -24.9320  0.00  0.00     0.000 C
ATOM     47  C3  BGC C   4      -0.451 -17.083 -24.9240  0.00  0.00     0.000 C
ATOM     48  C4  BGC C   4       0.134 -17.572 -26.2350  0.00  0.00     0.000 C
ATOM     49  C5  BGC C   4       0.130 -16.362 -27.1830  0.00  0.00     0.000 C
ATOM     50  O5  BGC C   4      -1.143 -15.829 -27.3040  0.00  0.00     0.000 O
ATOM     51   O  BGC C   4      -2.217 -16.111 -23.4790  0.00  0.00     0.000 O
ATOM     53  HD  BGC C   4      -2.125 -16.791 -22.9510  0.00  0.00     0.000 HD
ATOM     53   O  BGC C   4      -0.721 -18.342 -24.1470  0.00  0.00     0.000 O
ATOM     55  HD  BGC C   4      -0.629 -19.022 -23.6180  0.00  0.00     0.000 HD
ATOM     55   C  BGC C   4       0.537 -16.757 -28.5790  0.00  0.00     0.000 C
ATOM     56   O  BGC C   4      -0.241 -17.799 -29.1800  0.00  0.00     0.000 O
ATOM     58  HD  BGC C   4      -0.149 -18.478 -28.6520  0.00  0.00     0.000 HD
BRANCH 45 58
ATOM     58  O4  BGC C   5      -2.990 -14.885 -26.4270  0.00  0.00     0.000 O
BRANCH 58 62
ATOM     59  C1  BGC C   5      -3.751 -12.780 -24.3430  0.00  0.00     0.000 C
ATOM     60  C2  BGC C   5      -4.823 -12.800 -25.3140  0.00  0.00     0.000 C
ATOM     61  C3  BGC C   5      -4.338 -12.829 -26.7620  0.00  0.00     0.000 C
ATOM     62  C4  BGC C   5      -2.967 -13.487 -26.8090  0.00  0.00     0.000 C
ATOM     63  C5  BGC C   5      -2.148 -12.900 -25.6830  0.00  0.00     0.000 C
ATOM     64  O5  BGC C   5      -2.828 -12.179 -24.6570  0.00  0.00     0.000 O
ATOM     65   O  BGC C   5      -1.512 -10.900 -26.8810  0.00  0.00     0.000 O
ATOM     67  HD  BGC C   5      -1.303 -11.711 -26.6600  0.00  0.00     0.000 HD
ATOM     67   O  BGC C   5      -1.512 -10.900 -26.8810  0.00  0.00     0.000 O
ATOM     69  HD  BGC C   5      -1.303 -11.711 -26.6600  0.00  0.00     0.000 HD
ENDBRANCH 58 62
ENDBRANCH 45 58
ENDBRANCH 44 48
ENDBRANCH 31 44
ENDBRANCH 30 34
ENDBRANCH 17 30
ENDBRANCH 16 20
ENDBRANCH 1 16
TORSDOF 8
ENDMDL
MODEL 50
REMARK VINA RESULT:      -5.9      3.986      7.509
ROOT
ATOM      1  C1  BGC C   1      20.431  -5.732 -19.8490  0.00  0.00     0.000 C
ATOM      2  C2  BGC C   1      19.945  -4.761 -20.9240  0.00  0.00     0.000 C
ATOM      3  C3  BGC C   1      20.904  -3.581 -21.0330  0.00  0.00     0.000 C
ATOM      4  C4  BGC C   1      21.197  -2.952 -19.6820  0.00  0.00     0.000 C
ATOM      5  C5  BGC C   1      21.517  -4.033 -18.6540  0.00  0.00     0.000 C
ATOM      6  O5  BGC C   1      20.608  -5.088 -18.6460  0.00  0.00     0.000 O
ATOM      7   O  BGC C   1      19.897  -5.467 -22.1410  0.00  0.00     0.000 O
ATOM      9  HD  BGC C   1      19.490  -4.724 -21.9620  0.00  0.00     0.000 HD
ATOM      9   O  BGC C   1      20.343  -2.636 -21.9550  0.00  0.00     0.000 O
ATOM     11  HD  BGC C   1      19.936  -1.893 -21.7750  0.00  0.00     0.000 HD
ATOM     11   O  BGC C   1      22.305  -2.078 -19.8670  0.00  0.00     0.000 O
ATOM     13  HD  BGC C   1      21.898  -1.335 -19.6870  0.00  0.00     0.000 HD
ATOM     13   O  BGC C   1      20.193  -2.961 -16.8550  0.00  0.00     0.000 O
ATOM     15  HD  BGC C   1      19.786  -2.218 -16.6760  0.00  0.00     0.000 HD
ATOM     15   C  BGC C   1      21.525  -3.382 -17.2590  0.00  0.00     0.000 C
ENDROOT
BRANCH 1 16
ATOM     16  O4  BGC C   2      19.441  -6.713 -19.6480  0.00  0.00     0.000 O
BRANCH 16 20
ATOM     17  C1  BGC C   2      19.235 -10.651 -18.5860  0.00  0.00     0.000 C
ATOM     18  C2  BGC C   2      19.427  -9.664 -17.4450  0.00  0.00     0.000 C
ATOM     19  C3  BGC C   2      19.125  -8.244 -17.9030  0.00  0.00     0.000 C
ATOM     20  C4  BGC C   2      19.901  -7.944 -19.1420  0.00  0.00     0.000 C
ATOM     21  C5  BGC C   2      19.699  -9.032 -20.1920  0.00  0.00     0.000 C
ATOM     22  O5  BGC C   2      20.028 -10.288 -19.6790  0.00  0.00     0.000 O
ATOM     23   O  BGC C   2      18.563 -10.035 -16.3600  0.00  0.00     0.000 O
ATOM     25  HD  BGC C   2      18.213  -9.328 -16.0040  0.00  0.00     0.000 HD
ATOM     25   O  BGC C   2      19.491  -7.333 -16.8730  0.00  0.00     0.000 O
ATOM     27  HD  BGC C   2      19.141  -6.626 -16.5170  0.00  0.00     0.000 HD
ATOM     27   C  BGC C   2      20.481  -8.816 -21.5050  0.00  0.00     0.000 C
ATOM     28   O  BGC C   2      21.883  -8.630 -21.2510  0.00  0.00     0.000 O
ATOM     30  HD  BGC C   2      21.533  -7.923 -20.8950  0.00  0.00     0.000 HD
BRANCH 17 30
ATOM     30  O4  BGC C   3      19.623 -11.939 -18.1570  0.00  0.00     0.000 O
BRANCH 30 34
ATOM     31  C1  BGC C   3      19.522 -15.784 -19.3990  0.00  0.00     0.000 C
ATOM     32  C2  BGC C   3      20.784 -14.983 -19.7990  0.00  0.00     0.000 C
ATOM     33  C3  BGC C   3      20.889 -13.719 -19.0190  0.00  0.00     0.000 C
ATOM     34  C4  BGC C   3      19.559 -12.970 -19.1310  0.00  0.00     0.000 C
ATOM     35  C5  BGC C   3      18.318 -13.853 -18.8410  0.00  0.00     0.000 C
ATOM     36  O5  BGC C   3      18.362 -15.021 -19.6210  0.00  0.00     0.000 O
ATOM     37   O  BGC C   3      22.044 -15.620 -19.7030  0.00  0.00     0.000 O
ATOM     39  HD  BGC C   3      21.600 -14.884 -19.5990  0.00  0.00     0.000 HD
ATOM     39   O  BGC C   3      21.993 -12.908 -19.5190  0.00  0.00     0.000 O
ATOM     41  HD  BGC C   3      21.549 -12.172 -19.4150  0.00  0.00     0.000 HD
ATOM     41   C  BGC C   3      16.954 -13.180 -19.1220  0.00  0.00     0.000 C
ATOM     42   O  BGC C   3      16.704 -12.834 -20.5310  0.00  0.00     0.000 O
ATOM     44  HD  BGC C   3      16.260 -12.098 -20.4280  0.00  0.00     0.000 HD
BRANCH 31 44
ATOM     44  O4  BGC C   4      19.428 -16.962 -20.1280  0.00  0.00     0.000 O
BRANCH 44 48
ATOM     45  C1  BGC C   4      18.838 -20.951 -19.4180  0.00  0.00     0.000 C
ATOM     46  C2  BGC C   4      17.719 -20.365 -20.3370  0.00  0.00     0.000 C
ATOM     47  C3  BGC C   4      18.300 -18.995 -20.7110  0.00  0.00     0.000 C
ATOM     48  C4  BGC C   4      18.790 -18.088 -19.6000  0.00  0.00     0.000 C
ATOM     49  C5  BGC C   4      19.864 -18.883 -18.8400  0.00  0.00     0.000 C
ATOM     50  O5  BGC C   4      19.362 -20.094 -18.3920  0.00  0.00     0.000 O
ATOM     51   O  BGC C   4      17.262 -21.047 -21.6390  0.00  0.00     0.000 O
ATOM     53  HD  BGC C   4      16.722 -20.541 -22.0900  0.00  0.00     0.000 HD
ATOM     53   O  BGC C   4      17.056 -18.319 -21.2190  0.00  0.00     0.000 O
ATOM     55  HD  BGC C   4      16.516 -17.814 -21.6700  0.00  0.00     0.000 HD
ATOM     55   C  BGC C   4      20.317 -18.151 -17.6040  0.00  0.00     0.000 C
ATOM     56   O  BGC C   4      19.283 -17.800 -16.6770  0.00  0.00     0.000 O
ATOM     58  HD  BGC C   4      18.743 -17.294 -17.1280  0.00  0.00     0.000 HD
BRANCH 45 58
ATOM     58  O4  BGC C   5      18.424 -22.108 -18.7560  0.00  0.00     0.000 O
BRANCH 58 62
ATOM     59  C1  BGC C   5      20.927 -23.448 -17.6200  0.00  0.00     0.000 C
ATOM     60  C2  BGC C   5      21.292 -22.937 -18.9230  0.00  0.00     0.000 C
ATOM     61  C3  BGC C   5      20.255 -23.221 -20.0060  0.00  0.00     0.000 C
ATOM     62  C4  BGC C   5      18.884 -23.344 -19.3550  0.00  0.00     0.000 C
ATOM     63  C5  BGC C   5      19.046 -24.211 -18.1280  0.00  0.00     0.000 C
ATOM     64  O5  BGC C   5      20.364 -24.445 -17.6340  0.00  0.00     0.000 O
ATOM     65   O  BGC C   5      18.952 -26.312 -19.3170  0.00  0.00     0.000 O
ATOM     67  HD  BGC C   5      18.515 -25.707 -18.8780  0.00  0.00     0.000 HD
ATOM     67   O  BGC C   5      18.952 -26.312 -19.3170  0.00  0.00     0.000 O
ATOM     69  HD  BGC C   5      18.515 -25.707 -18.8780  0.00  0.00     0.000 HD
ENDBRANCH 58 62
ENDBRANCH 45 58
ENDBRANCH 44 48
ENDBRANCH 31 44
ENDBRANCH 30 34
ENDBRANCH 17 30
ENDBRANCH 16 20
ENDBRANCH 1 16
TORSDOF 8
ENDMDL
MODEL 51
REMARK VINA RESULT:      -5.9     14.885     16.725
ROOT
ATOM      1  C1  BGC C   1      15.075   3.353 -24.2440  0.00  0.00     0.000 C
ATOM      2  C2  BGC C   1      15.208   4.788 -24.7510  0.00  0.00     0.000 C
ATOM      3  C3  BGC C   1      16.644   5.269 -24.5840  0.00  0.00     0.000 C
ATOM      4  C4  BGC C   1      17.172   5.030 -23.1790  0.00  0.00     0.000 C
ATOM      5  C5  BGC C   1      16.842   3.611 -22.7260  0.00  0.00     0.000 C
ATOM      6  O5  BGC C   1      15.516   3.245 -22.9450  0.00  0.00     0.000 O
ATOM      7   O  BGC C   1      14.845   4.792 -26.1110  0.00  0.00     0.000 O
ATOM      9  HD  BGC C   1      14.879   5.480 -25.5860  0.00  0.00     0.000 HD
ATOM      9   O  BGC C   1      16.694   6.656 -24.9470  0.00  0.00     0.000 O
ATOM     11  HD  BGC C   1      16.728   7.344 -24.4220  0.00  0.00     0.000 HD
ATOM     11   O  BGC C   1      18.579   5.238 -23.2270  0.00  0.00     0.000 O
ATOM     13  HD  BGC C   1      18.613   5.926 -22.7020  0.00  0.00     0.000 HD
ATOM     13   O  BGC C   1      16.204   4.304 -20.4350  0.00  0.00     0.000 O
ATOM     15  HD  BGC C   1      16.238   4.992 -19.9100  0.00  0.00     0.000 HD
ATOM     15   C  BGC C   1      17.136   3.508 -21.2180  0.00  0.00     0.000 C
ENDROOT
BRANCH 1 16
ATOM     16  O4  BGC C   2      13.712   2.999 -24.2460  0.00  0.00     0.000 O
BRANCH 16 20
ATOM     17  C1  BGC C   2      11.396  -0.262 -25.0730  0.00  0.00     0.000 C
ATOM     18  C2  BGC C   2      12.255  -0.356 -23.8220  0.00  0.00     0.000 C
ATOM     19  C3  BGC C   2      12.778   1.016 -23.4210  0.00  0.00     0.000 C
ATOM     20  C4  BGC C   2      13.432   1.664 -24.5940  0.00  0.00     0.000 C
ATOM     21  C5  BGC C   2      12.518   1.638 -25.8150  0.00  0.00     0.000 C
ATOM     22  O5  BGC C   2      12.119   0.334 -26.1120  0.00  0.00     0.000 O
ATOM     23   O  BGC C   2      11.470  -0.924 -22.7620  0.00  0.00     0.000 O
ATOM     25  HD  BGC C   2      11.638  -0.515 -22.0170  0.00  0.00     0.000 HD
ATOM     25   O  BGC C   2      13.720   0.867 -22.3650  0.00  0.00     0.000 O
ATOM     27  HD  BGC C   2      13.887   1.275 -21.6200  0.00  0.00     0.000 HD
ATOM     27   C  BGC C   2      13.120   2.271 -27.0870  0.00  0.00     0.000 C
ATOM     28   O  BGC C   2      14.389   1.682 -27.4110  0.00  0.00     0.000 O
ATOM     30  HD  BGC C   2      14.557   2.090 -26.6650  0.00  0.00     0.000 HD
BRANCH 17 30
ATOM     30  O4  BGC C   3      11.016  -1.560 -25.4760  0.00  0.00     0.000 O
BRANCH 30 34
ATOM     31  C1  BGC C   3       8.473  -3.365 -28.0470  0.00  0.00     0.000 C
ATOM     32  C2  BGC C   3       9.911  -3.142 -28.5720  0.00  0.00     0.000 C
ATOM     33  C3  BGC C   3      10.843  -2.802 -27.4610  0.00  0.00     0.000 C
ATOM     34  C4  BGC C   3      10.238  -1.647 -26.6600  0.00  0.00     0.000 C
ATOM     35  C5  BGC C   3       8.755  -1.868 -26.2670  0.00  0.00     0.000 C
ATOM     36  O5  BGC C   3       7.999  -2.209 -27.4020  0.00  0.00     0.000 O
ATOM     37   O  BGC C   3      10.527  -4.183 -29.3080  0.00  0.00     0.000 O
ATOM     39  HD  BGC C   3      10.635  -3.554 -28.7230  0.00  0.00     0.000 HD
ATOM     39   O  BGC C   3      12.153  -2.445 -27.9930  0.00  0.00     0.000 O
ATOM     41  HD  BGC C   3      12.261  -1.815 -27.4080  0.00  0.00     0.000 HD
ATOM     41   C  BGC C   3       8.060  -0.648 -25.6180  0.00  0.00     0.000 C
ATOM     42   O  BGC C   3       7.926   0.533 -26.4880  0.00  0.00     0.000 O
ATOM     44  HD  BGC C   3       8.034   1.162 -25.9030  0.00  0.00     0.000 HD
BRANCH 31 44
ATOM     44  O4  BGC C   4       7.608  -3.684 -29.0850  0.00  0.00     0.000 O
BRANCH 44 48
ATOM     45  C1  BGC C   4       3.955  -5.311 -29.9630  0.00  0.00     0.000 C
ATOM     46  C2  BGC C   4       3.842  -3.779 -29.6810  0.00  0.00     0.000 C
ATOM     47  C3  BGC C   4       5.314  -3.344 -29.6920  0.00  0.00     0.000 C
ATOM     48  C4  BGC C   4       6.301  -4.107 -28.8310  0.00  0.00     0.000 C
ATOM     49  C5  BGC C   4       6.221  -5.574 -29.2840  0.00  0.00     0.000 C
ATOM     50  O5  BGC C   4       4.923  -6.050 -29.2010  0.00  0.00     0.000 O
ATOM     51   O  BGC C   4       3.066  -2.814 -30.5960  0.00  0.00     0.000 O
ATOM     53  HD  BGC C   4       3.196  -1.988 -30.3690  0.00  0.00     0.000 HD
ATOM     53   O  BGC C   4       5.191  -2.006 -29.0170  0.00  0.00     0.000 O
ATOM     55  HD  BGC C   4       5.321  -1.180 -28.7900  0.00  0.00     0.000 HD
ATOM     55   C  BGC C   4       7.038  -6.470 -28.3910  0.00  0.00     0.000 C
ATOM     56   O  BGC C   4       6.716  -6.416 -26.9960  0.00  0.00     0.000 O
ATOM     58  HD  BGC C   4       6.846  -5.590 -26.7700  0.00  0.00     0.000 HD
BRANCH 45 58
ATOM     58  O4  BGC C   5       2.743  -5.975 -29.7610  0.00  0.00     0.000 O
BRANCH 58 62
ATOM     59  C1  BGC C   5       0.395  -5.294 -31.5980  0.00  0.00     0.000 C
ATOM     60  C2  BGC C   5      -0.041  -6.397 -30.7700  0.00  0.00     0.000 C
ATOM     61  C3  BGC C   5       0.997  -7.508 -30.6330  0.00  0.00     0.000 C
ATOM     62  C4  BGC C   5       2.385  -6.909 -30.8090  0.00  0.00     0.000 C
ATOM     63  C5  BGC C   5       2.327  -5.986 -32.0040  0.00  0.00     0.000 C
ATOM     64  O5  BGC C   5       1.047  -5.591 -32.4920  0.00  0.00     0.000 O
ATOM     65   O  BGC C   5       2.591  -7.730 -33.6550  0.00  0.00     0.000 O
ATOM     67  HD  BGC C   5       2.979  -7.131 -33.1640  0.00  0.00     0.000 HD
ATOM     67   O  BGC C   5       2.591  -7.730 -33.6550  0.00  0.00     0.000 O
ATOM     69  HD  BGC C   5       2.979  -7.131 -33.1640  0.00  0.00     0.000 HD
ENDBRANCH 58 62
ENDBRANCH 45 58
ENDBRANCH 44 48
ENDBRANCH 31 44
ENDBRANCH 30 34
ENDBRANCH 17 30
ENDBRANCH 16 20
ENDBRANCH 1 16
TORSDOF 8
ENDMDL
MODEL 52
REMARK VINA RESULT:      -5.8     21.841     23.871
ROOT
ATOM      1  C1  BGC C   1       0.056 -18.093 -25.2930  0.00  0.00     0.000 C
ATOM      2  C2  BGC C   1      -0.703 -17.495 -26.4770  0.00  0.00     0.000 C
ATOM      3  C3  BGC C   1      -1.166 -16.082 -26.1410  0.00  0.00     0.000 C
ATOM      4  C4  BGC C   1      -1.895 -16.017 -24.8090  0.00  0.00     0.000 C
ATOM      5  C5  BGC C   1      -1.116 -16.782 -23.7430  0.00  0.00     0.000 C
ATOM      6  O5  BGC C   1      -0.705 -18.049 -24.1470  0.00  0.00     0.000 O
ATOM      7   O  BGC C   1       0.177 -17.473 -27.5750  0.00  0.00     0.000 O
ATOM      9  HD  BGC C   1      -0.687 -17.418 -27.6080  0.00  0.00     0.000 HD
ATOM      9   O  BGC C   1      -1.981 -15.612 -27.2230  0.00  0.00     0.000 O
ATOM     11  HD  BGC C   1      -2.845 -15.557 -27.2550  0.00  0.00     0.000 HD
ATOM     11   O  BGC C   1      -2.011 -14.640 -24.4700  0.00  0.00     0.000 O
ATOM     13  HD  BGC C   1      -2.875 -14.585 -24.5020  0.00  0.00     0.000 HD
ATOM     13   O  BGC C   1      -3.139 -17.820 -22.7600  0.00  0.00     0.000 O
ATOM     15  HD  BGC C   1      -4.003 -17.765 -22.7930  0.00  0.00     0.000 HD
ATOM     15   C  BGC C   1      -2.018 -16.930 -22.5040  0.00  0.00     0.000 C
ENDROOT
BRANCH 1 16
ATOM     16  O4  BGC C   2       0.315 -19.450 -25.5630  0.00  0.00     0.000 O
BRANCH 16 20
ATOM     17  C1  BGC C   2       3.391 -22.106 -25.1660  0.00  0.00     0.000 C
ATOM     18  C2  BGC C   2       2.647 -21.755 -23.8870  0.00  0.00     0.000 C
ATOM     19  C3  BGC C   2       1.326 -21.067 -24.2030  0.00  0.00     0.000 C
ATOM     20  C4  BGC C   2       1.568 -19.925 -25.1320  0.00  0.00     0.000 C
ATOM     21  C5  BGC C   2       2.387 -20.366 -26.3420  0.00  0.00     0.000 C
ATOM     22  O5  BGC C   2       3.586 -20.959 -25.9430  0.00  0.00     0.000 O
ATOM     23   O  BGC C   2       2.418 -22.959 -23.1390  0.00  0.00     0.000 O
ATOM     25  HD  BGC C   2       1.624 -22.948 -22.7930  0.00  0.00     0.000 HD
ATOM     25   O  BGC C   2       0.747 -20.590 -22.9940  0.00  0.00     0.000 O
ATOM     27  HD  BGC C   2      -0.047 -20.579 -22.6480  0.00  0.00     0.000 HD
ATOM     27   C  BGC C   2       2.704 -19.244 -27.3510  0.00  0.00     0.000 C
ATOM     28   O  BGC C   2       3.340 -18.129 -26.7070  0.00  0.00     0.000 O
ATOM     30  HD  BGC C   2       2.547 -18.117 -26.3610  0.00  0.00     0.000 HD
BRANCH 17 30
ATOM     30  O4  BGC C   3       4.653 -22.646 -24.8360  0.00  0.00     0.000 O
BRANCH 30 34
ATOM     31  C1  BGC C   3       7.559 -24.763 -26.6840  0.00  0.00     0.000 C
ATOM     32  C2  BGC C   3       7.875 -23.270 -26.4290  0.00  0.00     0.000 C
ATOM     33  C3  BGC C   3       6.918 -22.674 -25.4560  0.00  0.00     0.000 C
ATOM     34  C4  BGC C   3       5.495 -22.984 -25.9280  0.00  0.00     0.000 C
ATOM     35  C5  BGC C   3       5.267 -24.475 -26.2890  0.00  0.00     0.000 C
ATOM     36  O5  BGC C   3       6.255 -24.911 -27.1890  0.00  0.00     0.000 O
ATOM     37   O  BGC C   3       9.172 -22.925 -25.9790  0.00  0.00     0.000 O
ATOM     39  HD  BGC C   3       8.323 -22.763 -25.9220  0.00  0.00     0.000 HD
ATOM     39   O  BGC C   3       7.136 -21.237 -25.3510  0.00  0.00     0.000 O
ATOM     41  HD  BGC C   3       6.287 -21.074 -25.2940  0.00  0.00     0.000 HD
ATOM     41   C  BGC C   3       3.900 -24.790 -26.9410  0.00  0.00     0.000 C
ATOM     42   O  BGC C   3       3.673 -24.165 -28.2550  0.00  0.00     0.000 O
ATOM     44  HD  BGC C   3       2.824 -24.003 -28.1980  0.00  0.00     0.000 HD
BRANCH 31 44
ATOM     44  O4  BGC C   4       8.455 -25.315 -27.5900  0.00  0.00     0.000 O
BRANCH 44 48
ATOM     45  C1  BGC C   4      10.229 -28.849 -28.6490  0.00  0.00     0.000 C
ATOM     46  C2  BGC C   4       8.749 -29.068 -28.1990  0.00  0.00     0.000 C
ATOM     47  C3  BGC C   4       8.213 -27.630 -28.1590  0.00  0.00     0.000 C
ATOM     48  C4  BGC C   4       8.995 -26.587 -27.3860  0.00  0.00     0.000 C
ATOM     49  C5  BGC C   4      10.404 -26.566 -28.0000  0.00  0.00     0.000 C
ATOM     50  O5  BGC C   4      10.977 -27.827 -27.9730  0.00  0.00     0.000 O
ATOM     51   O  BGC C   4       7.746 -29.915 -29.0020  0.00  0.00     0.000 O
ATOM     53  HD  BGC C   4       6.943 -29.842 -28.6850  0.00  0.00     0.000 HD
ATOM     53   O  BGC C   4       6.970 -27.843 -27.3400  0.00  0.00     0.000 O
ATOM     55  HD  BGC C   4       6.167 -27.770 -27.0220  0.00  0.00     0.000 HD
ATOM     55   C  BGC C   4      11.334 -25.682 -27.2110  0.00  0.00     0.000 C
ATOM     56   O  BGC C   4      11.458 -25.999 -25.8190  0.00  0.00     0.000 O
ATOM     58  HD  BGC C   4      10.656 -25.926 -25.5020  0.00  0.00     0.000 HD
BRANCH 45 58
ATOM     58  O4  BGC C   5      10.995 -30.010 -28.5240  0.00  0.00     0.000 O
BRANCH 58 62
ATOM     59  C1  BGC C   5      12.154 -32.801 -28.0530  0.00  0.00     0.000 C
ATOM     60  C2  BGC C   5      10.767 -32.860 -27.6460  0.00  0.00     0.000 C
ATOM     61  C3  BGC C   5      10.324 -31.667 -26.8030  0.00  0.00     0.000 C
ATOM     62  C4  BGC C   5      11.184 -30.464 -27.1610  0.00  0.00     0.000 C
ATOM     63  C5  BGC C   5      12.618 -30.939 -27.2180  0.00  0.00     0.000 C
ATOM     64  O5  BGC C   5      12.863 -32.342 -27.2800  0.00  0.00     0.000 O
ATOM     65   O  BGC C   5      12.994 -30.820 -24.8350  0.00  0.00     0.000 O
ATOM     67  HD  BGC C   5      13.057 -30.419 -25.6000  0.00  0.00     0.000 HD
ATOM     67   O  BGC C   5      12.994 -30.820 -24.8350  0.00  0.00     0.000 O
ATOM     69  HD  BGC C   5      13.057 -30.419 -25.6000  0.00  0.00     0.000 HD
ENDBRANCH 58 62
ENDBRANCH 45 58
ENDBRANCH 44 48
ENDBRANCH 31 44
ENDBRANCH 30 34
ENDBRANCH 17 30
ENDBRANCH 16 20
ENDBRANCH 1 16
TORSDOF 8
ENDMDL
MODEL 53
REMARK VINA RESULT:      -5.8      3.878     14.548
ROOT
ATOM      1  C1  BGC C   1      20.984 -10.225 -23.4880  0.00  0.00     0.000 C
ATOM      2  C2  BGC C   1      20.080 -10.985 -24.4580  0.00  0.00     0.000 C
ATOM      3  C3  BGC C   1      20.851 -12.133 -25.0990  0.00  0.00     0.000 C
ATOM      4  C4  BGC C   1      22.181 -11.680 -25.6790  0.00  0.00     0.000 C
ATOM      5  C5  BGC C   1      22.922 -10.800 -24.6760  0.00  0.00     0.000 C
ATOM      6  O5  BGC C   1      22.133  -9.799 -24.1160  0.00  0.00     0.000 O
ATOM      7   O  BGC C   1      18.990 -11.481 -23.7190  0.00  0.00     0.000 O
ATOM      9  HD  BGC C   1      19.026 -11.383 -24.5780  0.00  0.00     0.000 HD
ATOM      9   O  BGC C   1      20.009 -12.734 -26.0930  0.00  0.00     0.000 O
ATOM     11  HD  BGC C   1      20.045 -12.636 -26.9520  0.00  0.00     0.000 HD
ATOM     11   O  BGC C   1      22.924 -12.858 -25.9740  0.00  0.00     0.000 O
ATOM     13  HD  BGC C   1      22.960 -12.760 -26.8330  0.00  0.00     0.000 HD
ATOM     13   O  BGC C   1      23.663  -9.171 -26.3880  0.00  0.00     0.000 O
ATOM     15  HD  BGC C   1      23.699  -9.073 -27.2480  0.00  0.00     0.000 HD
ATOM     15   C  BGC C   1      24.109 -10.142 -25.4010  0.00  0.00     0.000 C
ENDROOT
BRANCH 1 16
ATOM     16  O4  BGC C   2      20.304  -9.073 -23.0480  0.00  0.00     0.000 O
BRANCH 16 20
ATOM     17  C1  BGC C   2      20.270  -6.678 -19.7410  0.00  0.00     0.000 C
ATOM     18  C2  BGC C   2      21.300  -6.329 -20.8040  0.00  0.00     0.000 C
ATOM     19  C3  BGC C   2      20.984  -7.035 -22.1150  0.00  0.00     0.000 C
ATOM     20  C4  BGC C   2      20.797  -8.494 -21.8640  0.00  0.00     0.000 C
ATOM     21  C5  BGC C   2      19.804  -8.733 -20.7300  0.00  0.00     0.000 C
ATOM     22  O5  BGC C   2      20.201  -8.064 -19.5710  0.00  0.00     0.000 O
ATOM     23   O  BGC C   2      21.309  -4.905 -20.9910  0.00  0.00     0.000 O
ATOM     25  HD  BGC C   2      21.384  -4.717 -21.8330  0.00  0.00     0.000 HD
ATOM     25   O  BGC C   2      22.059  -6.836 -23.0240  0.00  0.00     0.000 O
ATOM     27  HD  BGC C   2      22.134  -6.647 -23.8660  0.00  0.00     0.000 HD
ATOM     27   C  BGC C   2      19.562 -10.217 -20.3860  0.00  0.00     0.000 C
ATOM     28   O  BGC C   2      20.798 -10.895 -20.1080  0.00  0.00     0.000 O
ATOM     30  HD  BGC C   2      20.873 -10.706 -20.9500  0.00  0.00     0.000 HD
BRANCH 17 30
ATOM     30  O4  BGC C   3      20.650  -6.092 -18.5140  0.00  0.00     0.000 O
BRANCH 30 34
ATOM     31  C1  BGC C   3      19.184  -3.861 -15.4800  0.00  0.00     0.000 C
ATOM     32  C2  BGC C   3      18.696  -5.328 -15.5300  0.00  0.00     0.000 C
ATOM     33  C3  BGC C   3      19.540  -6.145 -16.4460  0.00  0.00     0.000 C
ATOM     34  C4  BGC C   3      19.626  -5.424 -17.7940  0.00  0.00     0.000 C
ATOM     35  C5  BGC C   3      19.996  -3.923 -17.6770  0.00  0.00     0.000 C
ATOM     36  O5  BGC C   3      19.142  -3.284 -16.7620  0.00  0.00     0.000 O
ATOM     37   O  BGC C   3      18.610  -6.049 -14.3150  0.00  0.00     0.000 O
ATOM     39  HD  BGC C   3      18.809  -6.079 -15.1570  0.00  0.00     0.000 HD
ATOM     39   O  BGC C   3      18.972  -7.479 -16.5990  0.00  0.00     0.000 O
ATOM     41  HD  BGC C   3      19.171  -7.509 -17.4410  0.00  0.00     0.000 HD
ATOM     41   C  BGC C   3      19.914  -3.123 -18.9980  0.00  0.00     0.000 C
ATOM     42   O  BGC C   3      18.566  -3.015 -19.5820  0.00  0.00     0.000 O
ATOM     44  HD  BGC C   3      18.766  -3.045 -20.4240  0.00  0.00     0.000 HD
BRANCH 31 44
ATOM     44  O4  BGC C   4      18.396  -3.103 -14.6230  0.00  0.00     0.000 O
BRANCH 44 48
ATOM     45  C1  BGC C   4      18.256   0.466 -12.6230  0.00  0.00     0.000 C
ATOM     46  C2  BGC C   4      17.472   0.539 -13.9720  0.00  0.00     0.000 C
ATOM     47  C3  BGC C   4      17.394  -0.940 -14.3750  0.00  0.00     0.000 C
ATOM     48  C4  BGC C   4      18.673  -1.753 -14.3930  0.00  0.00     0.000 C
ATOM     49  C5  BGC C   4      19.259  -1.663 -12.9750  0.00  0.00     0.000 C
ATOM     50  O5  BGC C   4      19.442  -0.344 -12.5950  0.00  0.00     0.000 O
ATOM     51   O  BGC C   4      16.053   1.126 -14.0850  0.00  0.00     0.000 O
ATOM     53  HD  BGC C   4      15.714   0.987 -14.8690  0.00  0.00     0.000 HD
ATOM     53   O  BGC C   4      17.030  -0.790 -15.8260  0.00  0.00     0.000 O
ATOM     55  HD  BGC C   4      16.691  -0.929 -16.6110  0.00  0.00     0.000 HD
ATOM     55   C  BGC C   4      20.623  -2.298 -12.9020  0.00  0.00     0.000 C
ATOM     56   O  BGC C   4      21.596  -1.783 -13.8200  0.00  0.00     0.000 O
ATOM     58  HD  BGC C   4      21.256  -1.921 -14.6040  0.00  0.00     0.000 HD
BRANCH 45 58
ATOM     58  O4  BGC C   5      18.661   1.727 -12.1790  0.00  0.00     0.000 O
BRANCH 58 62
ATOM     59  C1  BGC C   5      20.011   4.418 -11.6430  0.00  0.00     0.000 C
ATOM     60  C2  BGC C   5      18.587   4.643 -11.5190  0.00  0.00     0.000 C
ATOM     61  C3  BGC C   5      17.765   3.997 -12.6310  0.00  0.00     0.000 C
ATOM     62  C4  BGC C   5      18.519   2.785 -13.1600  0.00  0.00     0.000 C
ATOM     63  C5  BGC C   5      19.961   3.197 -13.3410  0.00  0.00     0.000 C
ATOM     64  O5  BGC C   5      20.404   4.402 -12.7180  0.00  0.00     0.000 O
ATOM     65   O  BGC C   5      19.630   4.248 -15.4910  0.00  0.00     0.000 O
ATOM     67  HD  BGC C   5      19.851   3.529 -15.0620  0.00  0.00     0.000 HD
ATOM     67   O  BGC C   5      19.630   4.248 -15.4910  0.00  0.00     0.000 O
ATOM     69  HD  BGC C   5      19.851   3.529 -15.0620  0.00  0.00     0.000 HD
ENDBRANCH 58 62
ENDBRANCH 45 58
ENDBRANCH 44 48
ENDBRANCH 31 44
ENDBRANCH 30 34
ENDBRANCH 17 30
ENDBRANCH 16 20
ENDBRANCH 1 16
TORSDOF 8
ENDMDL
MODEL 54
REMARK VINA RESULT:      -5.8     19.666     22.924
ROOT
ATOM      1  C1  BGC C   1      -0.915 -20.707 -23.3620  0.00  0.00     0.000 C
ATOM      2  C2  BGC C   1      -2.344 -21.196 -23.5970  0.00  0.00     0.000 C
ATOM      3  C3  BGC C   1      -3.340 -20.150 -23.1100  0.00  0.00     0.000 C
ATOM      4  C4  BGC C   1      -3.042 -19.689 -21.6930  0.00  0.00     0.000 C
ATOM      5  C5  BGC C   1      -1.555 -19.379 -21.5400  0.00  0.00     0.000 C
ATOM      6  O5  BGC C   1      -0.720 -20.373 -22.0410  0.00  0.00     0.000 O
ATOM      7   O  BGC C   1      -2.496 -21.408 -24.9810  0.00  0.00     0.000 O
ATOM      9  HD  BGC C   1      -2.997 -21.732 -24.3530  0.00  0.00     0.000 HD
ATOM      9   O  BGC C   1      -4.658 -20.702 -23.2280  0.00  0.00     0.000 O
ATOM     11  HD  BGC C   1      -5.159 -21.026 -22.6010  0.00  0.00     0.000 HD
ATOM     11   O  BGC C   1      -3.833 -18.528 -21.4630  0.00  0.00     0.000 O
ATOM     13  HD  BGC C   1      -4.334 -18.852 -20.8350  0.00  0.00     0.000 HD
ATOM     13   O  BGC C   1      -1.383 -20.447 -19.3110  0.00  0.00     0.000 O
ATOM     15  HD  BGC C   1      -1.885 -20.771 -18.6840  0.00  0.00     0.000 HD
ATOM     15   C  BGC C   1      -1.256 -19.195 -20.0410  0.00  0.00     0.000 C
ENDROOT
BRANCH 1 16
ATOM     16  O4  BGC C   2      -0.026 -21.759 -23.6570  0.00  0.00     0.000 O
BRANCH 16 20
ATOM     17  C1  BGC C   2       3.987 -22.267 -24.2120  0.00  0.00     0.000 C
ATOM     18  C2  BGC C   2       3.514 -22.246 -22.7670  0.00  0.00     0.000 C
ATOM     19  C3  BGC C   2       2.003 -22.419 -22.6920  0.00  0.00     0.000 C
ATOM     20  C4  BGC C   2       1.341 -21.432 -23.5930  0.00  0.00     0.000 C
ATOM     21  C5  BGC C   2       1.941 -21.481 -24.9950  0.00  0.00     0.000 C
ATOM     22  O5  BGC C   2       3.323 -21.284 -24.9540  0.00  0.00     0.000 O
ATOM     23   O  BGC C   2       4.176 -23.296 -22.0470  0.00  0.00     0.000 O
ATOM     25  HD  BGC C   2       3.621 -23.681 -21.5060  0.00  0.00     0.000 HD
ATOM     25   O  BGC C   2       1.575 -22.211 -21.3510  0.00  0.00     0.000 O
ATOM     27  HD  BGC C   2       1.020 -22.596 -20.8100  0.00  0.00     0.000 HD
ATOM     27   C  BGC C   2       1.330 -20.477 -25.9940  0.00  0.00     0.000 C
ATOM     28   O  BGC C   2       1.384 -19.135 -25.4830  0.00  0.00     0.000 O
ATOM     30  HD  BGC C   2       0.829 -19.520 -24.9410  0.00  0.00     0.000 HD
BRANCH 17 30
ATOM     30  O4  BGC C   3       5.373 -21.999 -24.2520  0.00  0.00     0.000 O
BRANCH 30 34
ATOM     31  C1  BGC C   3       8.738 -23.030 -26.2390  0.00  0.00     0.000 C
ATOM     32  C2  BGC C   3       7.774 -22.087 -26.9970  0.00  0.00     0.000 C
ATOM     33  C3  BGC C   3       6.763 -21.496 -26.0760  0.00  0.00     0.000 C
ATOM     34  C4  BGC C   3       6.105 -22.633 -25.2900  0.00  0.00     0.000 C
ATOM     35  C5  BGC C   3       7.117 -23.621 -24.6540  0.00  0.00     0.000 C
ATOM     36  O5  BGC C   3       8.025 -24.075 -25.6260  0.00  0.00     0.000 O
ATOM     37   O  BGC C   3       8.325 -21.010 -27.7310  0.00  0.00     0.000 O
ATOM     39  HD  BGC C   3       7.677 -21.278 -27.2240  0.00  0.00     0.000 HD
ATOM     39   O  BGC C   3       5.773 -20.739 -26.8330  0.00  0.00     0.000 O
ATOM     41  HD  BGC C   3       5.125 -21.007 -26.3260  0.00  0.00     0.000 HD
ATOM     41   C  BGC C   3       6.489 -24.878 -24.0090  0.00  0.00     0.000 C
ATOM     42   O  BGC C   3       5.794 -25.781 -24.9410  0.00  0.00     0.000 O
ATOM     44  HD  BGC C   3       5.145 -26.049 -24.4340  0.00  0.00     0.000 HD
BRANCH 31 44
ATOM     44  O4  BGC C   4       9.680 -23.576 -27.1010  0.00  0.00     0.000 O
BRANCH 44 48
ATOM     45  C1  BGC C   4      13.641 -24.511 -27.5430  0.00  0.00     0.000 C
ATOM     46  C2  BGC C   4      12.893 -25.591 -26.6970  0.00  0.00     0.000 C
ATOM     47  C3  BGC C   4      11.424 -25.212 -26.9260  0.00  0.00     0.000 C
ATOM     48  C4  BGC C   4      11.001 -23.774 -26.6930  0.00  0.00     0.000 C
ATOM     49  C5  BGC C   4      11.878 -22.915 -27.6180  0.00  0.00     0.000 C
ATOM     50  O5  BGC C   4      13.223 -23.146 -27.3840  0.00  0.00     0.000 O
ATOM     51   O  BGC C   4      13.029 -27.102 -26.9590  0.00  0.00     0.000 O
ATOM     53  HD  BGC C   4      12.465 -27.557 -26.4850  0.00  0.00     0.000 HD
ATOM     53   O  BGC C   4      10.784 -25.973 -25.7980  0.00  0.00     0.000 O
ATOM     55  HD  BGC C   4      10.220 -26.429 -25.3250  0.00  0.00     0.000 HD
ATOM     55   C  BGC C   4      11.670 -21.445 -27.3610  0.00  0.00     0.000 C
ATOM     56   O  BGC C   4      11.889 -21.014 -26.0120  0.00  0.00     0.000 O
ATOM     58  HD  BGC C   4      11.325 -21.470 -25.5390  0.00  0.00     0.000 HD
BRANCH 45 58
ATOM     58  O4  BGC C   5      15.016 -24.507 -27.2950  0.00  0.00     0.000 O
BRANCH 58 62
ATOM     59  C1  BGC C   5      18.068 -24.595 -27.4680  0.00  0.00     0.000 C
ATOM     60  C2  BGC C   5      17.745 -23.659 -26.4140  0.00  0.00     0.000 C
ATOM     61  C3  BGC C   5      16.623 -22.689 -26.7780  0.00  0.00     0.000 C
ATOM     62  C4  BGC C   5      15.717 -23.348 -27.8080  0.00  0.00     0.000 C
ATOM     63  C5  BGC C   5      16.610 -23.993 -28.8430  0.00  0.00     0.000 C
ATOM     64  O5  BGC C   5      17.990 -24.172 -28.5290  0.00  0.00     0.000 O
ATOM     65   O  BGC C   5      16.999 -21.969 -30.1040  0.00  0.00     0.000 O
ATOM     67  HD  BGC C   5      16.523 -22.686 -30.0130  0.00  0.00     0.000 HD
ATOM     67   O  BGC C   5      16.999 -21.969 -30.1040  0.00  0.00     0.000 O
ATOM     69  HD  BGC C   5      16.523 -22.686 -30.0130  0.00  0.00     0.000 HD
ENDBRANCH 58 62
ENDBRANCH 45 58
ENDBRANCH 44 48
ENDBRANCH 31 44
ENDBRANCH 30 34
ENDBRANCH 17 30
ENDBRANCH 16 20
ENDBRANCH 1 16
TORSDOF 8
ENDMDL
MODEL 55
REMARK VINA RESULT:      -5.8     20.091     23.026
ROOT
ATOM      1  C1  BGC C   1      -0.982 -20.609 -23.3810  0.00  0.00     0.000 C
ATOM      2  C2  BGC C   1      -2.416 -21.074 -23.6310  0.00  0.00     0.000 C
ATOM      3  C3  BGC C   1      -3.401 -20.023 -23.1320  0.00  0.00     0.000 C
ATOM      4  C4  BGC C   1      -3.104 -19.588 -21.7070  0.00  0.00     0.000 C
ATOM      5  C5  BGC C   1      -1.615 -19.300 -21.5410  0.00  0.00     0.000 C
ATOM      6  O5  BGC C   1      -0.789 -20.297 -22.0540  0.00  0.00     0.000 O
ATOM      7   O  BGC C   1      -2.563 -21.263 -25.0180  0.00  0.00     0.000 O
ATOM      9  HD  BGC C   1      -3.072 -21.590 -24.3980  0.00  0.00     0.000 HD
ATOM      9   O  BGC C   1      -4.725 -20.556 -23.2660  0.00  0.00     0.000 O
ATOM     11  HD  BGC C   1      -5.234 -20.883 -22.6460  0.00  0.00     0.000 HD
ATOM     11   O  BGC C   1      -3.881 -18.421 -21.4630  0.00  0.00     0.000 O
ATOM     13  HD  BGC C   1      -4.390 -18.748 -20.8430  0.00  0.00     0.000 HD
ATOM     13   O  BGC C   1      -1.468 -20.405 -19.3290  0.00  0.00     0.000 O
ATOM     15  HD  BGC C   1      -1.977 -20.732 -18.7090  0.00  0.00     0.000 HD
ATOM     15   C  BGC C   1      -1.320 -19.144 -20.0380  0.00  0.00     0.000 C
ENDROOT
BRANCH 1 16
ATOM     16  O4  BGC C   2      -0.105 -21.667 -23.6870  0.00  0.00     0.000 O
BRANCH 16 20
ATOM     17  C1  BGC C   2       3.900 -22.213 -24.2630  0.00  0.00     0.000 C
ATOM     18  C2  BGC C   2       3.433 -22.195 -22.8160  0.00  0.00     0.000 C
ATOM     19  C3  BGC C   2       1.922 -22.354 -22.7350  0.00  0.00     0.000 C
ATOM     20  C4  BGC C   2       1.266 -21.354 -23.6270  0.00  0.00     0.000 C
ATOM     21  C5  BGC C   2       1.859 -21.401 -25.0320  0.00  0.00     0.000 C
ATOM     22  O5  BGC C   2       3.242 -21.220 -24.9960  0.00  0.00     0.000 O
ATOM     23   O  BGC C   2       4.088 -23.257 -22.1050  0.00  0.00     0.000 O
ATOM     25  HD  BGC C   2       3.531 -23.639 -21.5630  0.00  0.00     0.000 HD
ATOM     25   O  BGC C   2       1.502 -22.148 -21.3910  0.00  0.00     0.000 O
ATOM     27  HD  BGC C   2       0.945 -22.531 -20.8490  0.00  0.00     0.000 HD
ATOM     27   C  BGC C   2       1.254 -20.386 -26.0230  0.00  0.00     0.000 C
ATOM     28   O  BGC C   2       1.324 -19.047 -25.5050  0.00  0.00     0.000 O
ATOM     30  HD  BGC C   2       0.767 -19.430 -24.9630  0.00  0.00     0.000 HD
BRANCH 17 30
ATOM     30  O4  BGC C   3       5.288 -21.959 -24.3080  0.00  0.00     0.000 O
BRANCH 30 34
ATOM     31  C1  BGC C   3       8.639 -23.076 -26.2720  0.00  0.00     0.000 C
ATOM     32  C2  BGC C   3       7.721 -22.083 -27.0240  0.00  0.00     0.000 C
ATOM     33  C3  BGC C   3       6.720 -21.473 -26.1040  0.00  0.00     0.000 C
ATOM     34  C4  BGC C   3       6.010 -22.600 -25.3490  0.00  0.00     0.000 C
ATOM     35  C5  BGC C   3       6.976 -23.637 -24.7200  0.00  0.00     0.000 C
ATOM     36  O5  BGC C   3       7.880 -24.106 -25.6890  0.00  0.00     0.000 O
ATOM     37   O  BGC C   3       8.322 -21.013 -27.7290  0.00  0.00     0.000 O
ATOM     39  HD  BGC C   3       7.657 -21.267 -27.2360  0.00  0.00     0.000 HD
ATOM     39   O  BGC C   3       5.770 -20.665 -26.8580  0.00  0.00     0.000 O
ATOM     41  HD  BGC C   3       5.105 -20.918 -26.3650  0.00  0.00     0.000 HD
ATOM     41   C  BGC C   3       6.293 -24.882 -24.1080  0.00  0.00     0.000 C
ATOM     42   O  BGC C   3       5.578 -25.740 -25.0670  0.00  0.00     0.000 O
ATOM     44  HD  BGC C   3       4.913 -25.993 -24.5740  0.00  0.00     0.000 HD
BRANCH 31 44
ATOM     44  O4  BGC C   4       9.572 -23.641 -27.1330  0.00  0.00     0.000 O
BRANCH 44 48
ATOM     45  C1  BGC C   4      13.464 -24.856 -27.5000  0.00  0.00     0.000 C
ATOM     46  C2  BGC C   4      12.619 -25.890 -26.6890  0.00  0.00     0.000 C
ATOM     47  C3  BGC C   4      11.187 -25.401 -26.9450  0.00  0.00     0.000 C
ATOM     48  C4  BGC C   4      10.865 -23.940 -26.6990  0.00  0.00     0.000 C
ATOM     49  C5  BGC C   4      11.824 -23.134 -27.5900  0.00  0.00     0.000 C
ATOM     50  O5  BGC C   4      13.143 -23.467 -27.3300  0.00  0.00     0.000 O
ATOM     51   O  BGC C   4      12.651 -27.403 -26.9700  0.00  0.00     0.000 O
ATOM     53  HD  BGC C   4      12.044 -27.823 -26.5170  0.00  0.00     0.000 HD
ATOM     53   O  BGC C   4      10.467 -26.130 -25.8430  0.00  0.00     0.000 O
ATOM     55  HD  BGC C   4       9.861 -26.550 -25.3900  0.00  0.00     0.000 HD
ATOM     55   C  BGC C   4      11.717 -21.657 -27.3150  0.00  0.00     0.000 C
ATOM     56   O  BGC C   4      11.935 -21.262 -25.9550  0.00  0.00     0.000 O
ATOM     58  HD  BGC C   4      11.328 -21.682 -25.5020  0.00  0.00     0.000 HD
BRANCH 45 58
ATOM     58  O4  BGC C   5      14.829 -24.956 -27.2210  0.00  0.00     0.000 O
BRANCH 58 62
ATOM     59  C1  BGC C   5      17.785 -25.388 -26.5670  0.00  0.00     0.000 C
ATOM     60  C2  BGC C   5      17.543 -26.057 -27.8270  0.00  0.00     0.000 C
ATOM     61  C3  BGC C   5      16.260 -26.884 -27.8450  0.00  0.00     0.000 C
ATOM     62  C4  BGC C   5      15.273 -26.285 -26.8540  0.00  0.00     0.000 C
ATOM     63  C5  BGC C   5      16.037 -25.987 -25.5850  0.00  0.00     0.000 C
ATOM     64  O5  BGC C   5      17.462 -25.977 -25.6400  0.00  0.00     0.000 O
ATOM     65   O  BGC C   5      15.931 -28.240 -24.7190  0.00  0.00     0.000 O
ATOM     67  HD  BGC C   5      15.574 -27.451 -24.7330  0.00  0.00     0.000 HD
ATOM     67   O  BGC C   5      15.931 -28.240 -24.7190  0.00  0.00     0.000 O
ATOM     69  HD  BGC C   5      15.574 -27.451 -24.7330  0.00  0.00     0.000 HD
ENDBRANCH 58 62
ENDBRANCH 45 58
ENDBRANCH 44 48
ENDBRANCH 31 44
ENDBRANCH 30 34
ENDBRANCH 17 30
ENDBRANCH 16 20
ENDBRANCH 1 16
TORSDOF 8
ENDMDL
MODEL 56
REMARK VINA RESULT:      -5.8     21.384     25.550
ROOT
ATOM      1  C1  BGC C   1      12.639 -26.647 -27.3360  0.00  0.00     0.000 C
ATOM      2  C2  BGC C   1      14.028 -26.375 -26.7600  0.00  0.00     0.000 C
ATOM      3  C3  BGC C   1      15.026 -27.393 -27.2990  0.00  0.00     0.000 C
ATOM      4  C4  BGC C   1      14.532 -28.821 -27.1430  0.00  0.00     0.000 C
ATOM      5  C5  BGC C   1      13.082 -28.933 -27.6080  0.00  0.00     0.000 C
ATOM      6  O5  BGC C   1      12.249 -27.944 -27.0920  0.00  0.00     0.000 O
ATOM      7   O  BGC C   1      14.398 -25.073 -27.1470  0.00  0.00     0.000 O
ATOM      9  HD  BGC C   1      14.744 -25.535 -26.5010  0.00  0.00     0.000 HD
ATOM      9   O  BGC C   1      16.279 -27.182 -26.6350  0.00  0.00     0.000 O
ATOM     11  HD  BGC C   1      16.624 -27.644 -25.9890  0.00  0.00     0.000 HD
ATOM     11   O  BGC C   1      15.387 -29.641 -27.9320  0.00  0.00     0.000 O
ATOM     13  HD  BGC C   1      15.732 -30.103 -27.2860  0.00  0.00     0.000 HD
ATOM     13   O  BGC C   1      12.408 -30.395 -25.7250  0.00  0.00     0.000 O
ATOM     15  HD  BGC C   1      12.753 -30.857 -25.0790  0.00  0.00     0.000 HD
ATOM     15   C  BGC C   1      12.543 -30.307 -27.1710  0.00  0.00     0.000 C
ENDROOT
BRANCH 1 16
ATOM     16  O4  BGC C   2      11.710 -25.809 -26.6890  0.00  0.00     0.000 O
BRANCH 16 20
ATOM     17  C1  BGC C   2       8.294 -23.806 -27.6840  0.00  0.00     0.000 C
ATOM     18  C2  BGC C   2       8.106 -25.220 -27.1590  0.00  0.00     0.000 C
ATOM     19  C3  BGC C   2       9.378 -25.721 -26.4900  0.00  0.00     0.000 C
ATOM     20  C4  BGC C   2      10.535 -25.534 -27.4130  0.00  0.00     0.000 C
ATOM     21  C5  BGC C   2      10.588 -24.103 -27.9420  0.00  0.00     0.000 C
ATOM     22  O5  BGC C   2       9.385 -23.754 -28.5580  0.00  0.00     0.000 O
ATOM     23   O  BGC C   2       7.013 -25.228 -26.2280  0.00  0.00     0.000 O
ATOM     25  HD  BGC C   2       7.202 -25.736 -25.5520  0.00  0.00     0.000 HD
ATOM     25   O  BGC C   2       9.230 -27.101 -26.1780  0.00  0.00     0.000 O
ATOM     27  HD  BGC C   2       9.418 -27.609 -25.5030  0.00  0.00     0.000 HD
ATOM     27   C  BGC C   2      11.745 -23.820 -28.9220  0.00  0.00     0.000 C
ATOM     28   O  BGC C   2      11.738 -24.749 -30.0180  0.00  0.00     0.000 O
ATOM     30  HD  BGC C   2      11.927 -25.257 -29.3430  0.00  0.00     0.000 HD
BRANCH 17 30
ATOM     30  O4  BGC C   3       7.135 -23.412 -28.3870  0.00  0.00     0.000 O
BRANCH 30 34
ATOM     31  C1  BGC C   3       4.887 -20.118 -29.0400  0.00  0.00     0.000 C
ATOM     32  C2  BGC C   3       5.998 -20.389 -30.0820  0.00  0.00     0.000 C
ATOM     33  C3  BGC C   3       6.528 -21.775 -29.9570  0.00  0.00     0.000 C
ATOM     34  C4  BGC C   3       6.911 -22.015 -28.4940  0.00  0.00     0.000 C
ATOM     35  C5  BGC C   3       5.807 -21.609 -27.4840  0.00  0.00     0.000 C
ATOM     36  O5  BGC C   3       5.381 -20.293 -27.7360  0.00  0.00     0.000 O
ATOM     37   O  BGC C   3       5.696 -20.196 -31.4520  0.00  0.00     0.000 O
ATOM     39  HD  BGC C   3       6.116 -20.679 -30.8680  0.00  0.00     0.000 HD
ATOM     39   O  BGC C   3       7.675 -21.958 -30.8380  0.00  0.00     0.000 O
ATOM     41  HD  BGC C   3       8.094 -22.440 -30.2540  0.00  0.00     0.000 HD
ATOM     41   C  BGC C   3       6.226 -21.666 -25.9970  0.00  0.00     0.000 C
ATOM     42   O  BGC C   3       7.292 -20.726 -25.6100  0.00  0.00     0.000 O
ATOM     44  HD  BGC C   3       7.711 -21.209 -25.0260  0.00  0.00     0.000 HD
BRANCH 31 44
ATOM     44  O4  BGC C   4       4.394 -18.825 -29.1620  0.00  0.00     0.000 O
BRANCH 44 48
ATOM     45  C1  BGC C   4       1.154 -16.408 -28.5140  0.00  0.00     0.000 C
ATOM     46  C2  BGC C   4       1.821 -16.838 -27.1690  0.00  0.00     0.000 C
ATOM     47  C3  BGC C   4       3.144 -17.447 -27.6500  0.00  0.00     0.000 C
ATOM     48  C4  BGC C   4       3.103 -18.502 -28.7380  0.00  0.00     0.000 C
ATOM     49  C5  BGC C   4       2.399 -17.851 -29.9390  0.00  0.00     0.000 C
ATOM     50  O5  BGC C   4       1.151 -17.368 -29.5820  0.00  0.00     0.000 O
ATOM     51   O  BGC C   4       2.151 -15.842 -26.0420  0.00  0.00     0.000 O
ATOM     53  HD  BGC C   4       2.621 -16.215 -25.4170  0.00  0.00     0.000 HD
ATOM     53   O  BGC C   4       3.542 -18.206 -26.4140  0.00  0.00     0.000 O
ATOM     55  HD  BGC C   4       4.011 -18.578 -25.7890  0.00  0.00     0.000 HD
ATOM     55   C  BGC C   4       2.146 -18.852 -31.0360  0.00  0.00     0.000 C
ATOM     56   O  BGC C   4       1.397 -20.013 -30.6560  0.00  0.00     0.000 O
ATOM     58  HD  BGC C   4       1.867 -20.385 -30.0310  0.00  0.00     0.000 HD
BRANCH 45 58
ATOM     58  O4  BGC C   5      -0.182 -16.039 -28.3460  0.00  0.00     0.000 O
BRANCH 58 62
ATOM     59  C1  BGC C   5      -3.048 -14.976 -28.2310  0.00  0.00     0.000 C
ATOM     60  C2  BGC C   5      -2.466 -14.453 -29.4470  0.00  0.00     0.000 C
ATOM     61  C3  BGC C   5      -1.053 -13.905 -29.2650  0.00  0.00     0.000 C
ATOM     62  C4  BGC C   5      -0.391 -14.627 -28.1000  0.00  0.00     0.000 C
ATOM     63  C5  BGC C   5      -1.400 -14.682 -26.9750  0.00  0.00     0.000 C
ATOM     64  O5  BGC C   5      -2.766 -14.406 -27.2780  0.00  0.00     0.000 O
ATOM     65   O  BGC C   5      -0.966 -12.446 -26.1690  0.00  0.00     0.000 O
ATOM     67  HD  BGC C   5      -0.786 -13.290 -26.0980  0.00  0.00     0.000 HD
ATOM     67   O  BGC C   5      -0.966 -12.446 -26.1690  0.00  0.00     0.000 O
ATOM     69  HD  BGC C   5      -0.786 -13.290 -26.0980  0.00  0.00     0.000 HD
ENDBRANCH 58 62
ENDBRANCH 45 58
ENDBRANCH 44 48
ENDBRANCH 31 44
ENDBRANCH 30 34
ENDBRANCH 17 30
ENDBRANCH 16 20
ENDBRANCH 1 16
TORSDOF 8
ENDMDL
MODEL 57
REMARK VINA RESULT:      -5.8     22.059     25.549
ROOT
ATOM      1  C1  BGC C   1       2.246 -17.118 -27.3950  0.00  0.00     0.000 C
ATOM      2  C2  BGC C   1       1.989 -15.754 -26.7550  0.00  0.00     0.000 C
ATOM      3  C3  BGC C   1       1.585 -14.744 -27.8230  0.00  0.00     0.000 C
ATOM      4  C4  BGC C   1       2.548 -14.733 -28.9980  0.00  0.00     0.000 C
ATOM      5  C5  BGC C   1       2.847 -16.161 -29.4480  0.00  0.00     0.000 C
ATOM      6  O5  BGC C   1       3.176 -17.022 -28.4050  0.00  0.00     0.000 O
ATOM      7   O  BGC C   1       0.952 -15.915 -25.8170  0.00  0.00     0.000 O
ATOM      9  HD  BGC C   1       1.519 -15.261 -25.8490  0.00  0.00     0.000 HD
ATOM      9   O  BGC C   1       1.483 -13.456 -27.2010  0.00  0.00     0.000 O
ATOM     11  HD  BGC C   1       2.050 -12.802 -27.2330  0.00  0.00     0.000 HD
ATOM     11   O  BGC C   1       1.921 -13.990 -30.0380  0.00  0.00     0.000 O
ATOM     13  HD  BGC C   1       2.487 -13.336 -30.0700  0.00  0.00     0.000 HD
ATOM     13   O  BGC C   1       5.266 -15.736 -29.7740  0.00  0.00     0.000 O
ATOM     15  HD  BGC C   1       5.833 -15.082 -29.8070  0.00  0.00     0.000 HD
ATOM     15   C  BGC C   1       4.028 -16.114 -30.4360  0.00  0.00     0.000 C
ENDROOT
BRANCH 1 16
ATOM     16  O4  BGC C   2       2.784 -17.978 -26.4190  0.00  0.00     0.000 O
BRANCH 16 20
ATOM     17  C1  BGC C   2       2.506 -21.912 -25.3570  0.00  0.00     0.000 C
ATOM     18  C2  BGC C   2       3.441 -21.600 -26.5160  0.00  0.00     0.000 C
ATOM     19  C3  BGC C   2       3.742 -20.110 -26.5810  0.00  0.00     0.000 C
ATOM     20  C4  BGC C   2       2.464 -19.341 -26.5700  0.00  0.00     0.000 C
ATOM     21  C5  BGC C   2       1.568 -19.782 -25.4160  0.00  0.00     0.000 C
ATOM     22  O5  BGC C   2       1.333 -21.157 -25.4650  0.00  0.00     0.000 O
ATOM     23   O  BGC C   2       4.653 -22.351 -26.3480  0.00  0.00     0.000 O
ATOM     25  HD  BGC C   2       5.336 -21.863 -26.5610  0.00  0.00     0.000 HD
ATOM     25   O  BGC C   2       4.462 -19.830 -27.7750  0.00  0.00     0.000 O
ATOM     27  HD  BGC C   2       5.145 -19.343 -27.9890  0.00  0.00     0.000 HD
ATOM     27   C  BGC C   2       0.211 -19.053 -25.3370  0.00  0.00     0.000 C
ATOM     28   O  BGC C   2      -0.505 -19.147 -26.5790  0.00  0.00     0.000 O
ATOM     30  HD  BGC C   2       0.178 -18.660 -26.7920  0.00  0.00     0.000 HD
BRANCH 17 30
ATOM     30  O4  BGC C   3       2.165 -23.281 -25.3890  0.00  0.00     0.000 O
BRANCH 30 34
ATOM     31  C1  BGC C   3       1.671 -26.423 -22.8950  0.00  0.00     0.000 C
ATOM     32  C2  BGC C   3       0.412 -25.558 -23.1420  0.00  0.00     0.000 C
ATOM     33  C3  BGC C   3       0.597 -24.660 -24.3160  0.00  0.00     0.000 C
ATOM     34  C4  BGC C   3       1.909 -23.893 -24.1340  0.00  0.00     0.000 C
ATOM     35  C5  BGC C   3       3.114 -24.795 -23.7650  0.00  0.00     0.000 C
ATOM     36  O5  BGC C   3       2.792 -25.607 -22.6630  0.00  0.00     0.000 O
ATOM     37   O  BGC C   3      -0.828 -26.215 -23.3310  0.00  0.00     0.000 O
ATOM     39  HD  BGC C   3      -0.319 -25.555 -23.5680  0.00  0.00     0.000 HD
ATOM     39   O  BGC C   3      -0.534 -23.748 -24.4360  0.00  0.00     0.000 O
ATOM     41  HD  BGC C   3      -0.025 -23.088 -24.6720  0.00  0.00     0.000 HD
ATOM     41   C  BGC C   3       4.411 -24.038 -23.3960  0.00  0.00     0.000 C
ATOM     42   O  BGC C   3       4.328 -23.205 -22.1840  0.00  0.00     0.000 O
ATOM     44  HD  BGC C   3       4.836 -22.545 -22.4210  0.00  0.00     0.000 HD
BRANCH 31 44
ATOM     44  O4  BGC C   4       1.493 -27.260 -21.8010  0.00  0.00     0.000 O
BRANCH 44 48
ATOM     45  C1  BGC C   4       2.210 -31.013 -20.3310  0.00  0.00     0.000 C
ATOM     46  C2  BGC C   4       3.537 -30.303 -20.7490  0.00  0.00     0.000 C
ATOM     47  C3  BGC C   4       3.071 -28.856 -20.9590  0.00  0.00     0.000 C
ATOM     48  C4  BGC C   4       1.872 -28.604 -21.8530  0.00  0.00     0.000 C
ATOM     49  C5  BGC C   4       0.711 -29.409 -21.2490  0.00  0.00     0.000 C
ATOM     50  O5  BGC C   4       1.044 -30.748 -21.1260  0.00  0.00     0.000 O
ATOM     51   O  BGC C   4       4.785 -30.262 -19.8490  0.00  0.00     0.000 O
ATOM     53  HD  BGC C   4       5.392 -29.735 -20.1710  0.00  0.00     0.000 HD
ATOM     53   O  BGC C   4       4.237 -28.323 -21.7450  0.00  0.00     0.000 O
ATOM     55  HD  BGC C   4       4.844 -27.796 -22.0670  0.00  0.00     0.000 HD
ATOM     55   C  BGC C   4      -0.503 -29.375 -22.1400  0.00  0.00     0.000 C
ATOM     56   O  BGC C   4      -0.299 -29.826 -23.4840  0.00  0.00     0.000 O
ATOM     58  HD  BGC C   4       0.308 -29.299 -23.8060  0.00  0.00     0.000 HD
BRANCH 45 58
ATOM     58  O4  BGC C   5       2.338 -32.404 -20.3180  0.00  0.00     0.000 O
BRANCH 58 62
ATOM     59  C1  BGC C   5       2.544 -35.273 -21.3550  0.00  0.00     0.000 C
ATOM     60  C2  BGC C   5       3.233 -35.248 -20.0830  0.00  0.00     0.000 C
ATOM     61  C3  BGC C   5       4.155 -34.044 -19.9090  0.00  0.00     0.000 C
ATOM     62  C4  BGC C   5       3.629 -32.895 -20.7570  0.00  0.00     0.000 C
ATOM     63  C5  BGC C   5       3.270 -33.462 -22.1100  0.00  0.00     0.000 C
ATOM     64  O5  BGC C   5       3.153 -34.878 -22.2400  0.00  0.00     0.000 O
ATOM     65   O  BGC C   5       5.522 -33.413 -22.9840  0.00  0.00     0.000 O
ATOM     67  HD  BGC C   5       4.763 -33.003 -22.9130  0.00  0.00     0.000 HD
ATOM     67   O  BGC C   5       5.522 -33.413 -22.9840  0.00  0.00     0.000 O
ATOM     69  HD  BGC C   5       4.763 -33.003 -22.9130  0.00  0.00     0.000 HD
ENDBRANCH 58 62
ENDBRANCH 45 58
ENDBRANCH 44 48
ENDBRANCH 31 44
ENDBRANCH 30 34
ENDBRANCH 17 30
ENDBRANCH 16 20
ENDBRANCH 1 16
TORSDOF 8
ENDMDL
MODEL 58
REMARK VINA RESULT:      -5.7     12.084     16.648
ROOT
ATOM      1  C1  BGC C   1      17.147 -13.988 -26.2190  0.00  0.00     0.000 C
ATOM      2  C2  BGC C   1      17.747 -12.617 -25.9120  0.00  0.00     0.000 C
ATOM      3  C3  BGC C   1      16.818 -11.517 -26.4090  0.00  0.00     0.000 C
ATOM      4  C4  BGC C   1      16.398 -11.727 -27.8540  0.00  0.00     0.000 C
ATOM      5  C5  BGC C   1      15.966 -13.174 -28.0730  0.00  0.00     0.000 C
ATOM      6  O5  BGC C   1      16.858 -14.111 -27.5590  0.00  0.00     0.000 O
ATOM      7   O  BGC C   1      17.907 -12.529 -24.5160  0.00  0.00     0.000 O
ATOM      9  HD  BGC C   1      18.303 -12.039 -25.1110  0.00  0.00     0.000 HD
ATOM      9   O  BGC C   1      17.478 -10.258 -26.2190  0.00  0.00     0.000 O
ATOM     11  HD  BGC C   1      17.873  -9.768 -26.8140  0.00  0.00     0.000 HD
ATOM     11   O  BGC C   1      15.324 -10.828 -28.1060  0.00  0.00     0.000 O
ATOM     13  HD  BGC C   1      15.720 -10.339 -28.7010  0.00  0.00     0.000 HD
ATOM     13   O  BGC C   1      17.118 -13.371 -30.2580  0.00  0.00     0.000 O
ATOM     15  HD  BGC C   1      17.513 -12.881 -30.8530  0.00  0.00     0.000 HD
ATOM     15   C  BGC C   1      15.827 -13.409 -29.5880  0.00  0.00     0.000 C
ENDROOT
BRANCH 1 16
ATOM     16  O4  BGC C   2      18.101 -14.977 -25.9110  0.00  0.00     0.000 O
BRANCH 16 20
ATOM     17  C1  BGC C   2      18.168 -18.794 -24.4600  0.00  0.00     0.000 C
ATOM     18  C2  BGC C   2      17.793 -18.647 -25.9260  0.00  0.00     0.000 C
ATOM     19  C3  BGC C   2      18.151 -17.259 -26.4380  0.00  0.00     0.000 C
ATOM     20  C4  BGC C   2      17.576 -16.226 -25.5280  0.00  0.00     0.000 C
ATOM     21  C5  BGC C   2      17.948 -16.509 -24.0750  0.00  0.00     0.000 C
ATOM     22  O5  BGC C   2      17.552 -17.794 -23.7000  0.00  0.00     0.000 O
ATOM     23   O  BGC C   2      18.480 -19.654 -26.6840  0.00  0.00     0.000 O
ATOM     25  HD  BGC C   2      18.764 -19.321 -27.4310  0.00  0.00     0.000 HD
ATOM     25   O  BGC C   2      17.623 -17.093 -27.7490  0.00  0.00     0.000 O
ATOM     27  HD  BGC C   2      17.907 -16.760 -28.4960  0.00  0.00     0.000 HD
ATOM     27   C  BGC C   2      17.379 -15.501 -23.0550  0.00  0.00     0.000 C
ATOM     28   O  BGC C   2      15.954 -15.378 -23.1830  0.00  0.00     0.000 O
ATOM     30  HD  BGC C   2      16.238 -15.046 -23.9300  0.00  0.00     0.000 HD
BRANCH 17 30
ATOM     30  O4  BGC C   3      17.728 -20.050 -23.9910  0.00  0.00     0.000 O
BRANCH 30 34
ATOM     31  C1  BGC C   3      18.849 -23.065 -21.5430  0.00  0.00     0.000 C
ATOM     32  C2  BGC C   3      18.208 -21.840 -20.8480  0.00  0.00     0.000 C
ATOM     33  C3  BGC C   3      17.525 -20.958 -21.8350  0.00  0.00     0.000 C
ATOM     34  C4  BGC C   3      18.508 -20.646 -22.9650  0.00  0.00     0.000 C
ATOM     35  C5  BGC C   3      19.216 -21.898 -23.5420  0.00  0.00     0.000 C
ATOM     36  O5  BGC C   3      19.790 -22.651 -22.5020  0.00  0.00     0.000 O
ATOM     37   O  BGC C   3      17.280 -22.068 -19.8040  0.00  0.00     0.000 O
ATOM     39  HD  BGC C   3      17.487 -21.581 -20.4890  0.00  0.00     0.000 HD
ATOM     39   O  BGC C   3      17.065 -19.736 -21.1850  0.00  0.00     0.000 O
ATOM     41  HD  BGC C   3      17.272 -19.249 -21.8700  0.00  0.00     0.000 HD
ATOM     41   C  BGC C   3      20.346 -21.605 -24.5550  0.00  0.00     0.000 C
ATOM     42   O  BGC C   3      21.505 -20.879 -24.0100  0.00  0.00     0.000 O
ATOM     44  HD  BGC C   3      21.712 -20.391 -24.6950  0.00  0.00     0.000 HD
BRANCH 31 44
ATOM     44  O4  BGC C   4      19.483 -23.886 -20.6190  0.00  0.00     0.000 O
BRANCH 44 48
ATOM     45  C1  BGC C   4      20.934 -27.654 -19.9470  0.00  0.00     0.000 C
ATOM     46  C2  BGC C   4      21.881 -26.838 -20.8850  0.00  0.00     0.000 C
ATOM     47  C3  BGC C   4      21.323 -25.417 -20.7410  0.00  0.00     0.000 C
ATOM     48  C4  BGC C   4      19.837 -25.197 -20.9440  0.00  0.00     0.000 C
ATOM     49  C5  BGC C   4      19.127 -26.106 -19.9280  0.00  0.00     0.000 C
ATOM     50  O5  BGC C   4      19.523 -27.425 -20.0780  0.00  0.00     0.000 O
ATOM     51   O  BGC C   4      23.405 -26.763 -20.6760  0.00  0.00     0.000 O
ATOM     53  HD  BGC C   4      23.769 -26.182 -21.2050  0.00  0.00     0.000 HD
ATOM     53   O  BGC C   4      21.960 -24.769 -21.9400  0.00  0.00     0.000 O
ATOM     55  HD  BGC C   4      22.324 -24.188 -22.4690  0.00  0.00     0.000 HD
ATOM     55   C  BGC C   4      17.635 -26.105 -20.1380  0.00  0.00     0.000 C
ATOM     56   O  BGC C   4      17.194 -26.474 -21.4500  0.00  0.00     0.000 O
ATOM     58  HD  BGC C   4      17.558 -25.892 -21.9780  0.00  0.00     0.000 HD
BRANCH 45 58
ATOM     58  O4  BGC C   5      21.100 -29.032 -20.1000  0.00  0.00     0.000 O
BRANCH 58 62
ATOM     59  C1  BGC C   5      21.503 -32.046 -19.7750  0.00  0.00     0.000 C
ATOM     60  C2  BGC C   5      20.583 -31.874 -20.8780  0.00  0.00     0.000 C
ATOM     61  C3  BGC C   5      19.486 -30.848 -20.6060  0.00  0.00     0.000 C
ATOM     62  C4  BGC C   5      20.001 -29.831 -19.5970  0.00  0.00     0.000 C
ATOM     63  C5  BGC C   5      20.692 -30.602 -18.4960  0.00  0.00     0.000 C
ATOM     64  O5  BGC C   5      21.029 -31.967 -18.7360  0.00  0.00     0.000 O
ATOM     65   O  BGC C   5      18.669 -31.150 -17.2950  0.00  0.00     0.000 O
ATOM     67  HD  BGC C   5      19.336 -30.604 -17.3820  0.00  0.00     0.000 HD
ATOM     67   O  BGC C   5      18.669 -31.150 -17.2950  0.00  0.00     0.000 O
ATOM     69  HD  BGC C   5      19.336 -30.604 -17.3820  0.00  0.00     0.000 HD
ENDBRANCH 58 62
ENDBRANCH 45 58
ENDBRANCH 44 48
ENDBRANCH 31 44
ENDBRANCH 30 34
ENDBRANCH 17 30
ENDBRANCH 16 20
ENDBRANCH 1 16
TORSDOF 8
ENDMDL
MODEL 59
REMARK VINA RESULT:      -5.7     22.484     24.662
ROOT
ATOM      1  C1  BGC C   1       9.052   8.284  -2.7180  0.00  0.00     0.000 C
ATOM      2  C2  BGC C   1       9.180   8.378  -4.2380  0.00  0.00     0.000 C
ATOM      3  C3  BGC C   1       8.078   9.267  -4.8000  0.00  0.00     0.000 C
ATOM      4  C4  BGC C   1       6.702   8.868  -4.2930  0.00  0.00     0.000 C
ATOM      5  C5  BGC C   1       6.739   8.652  -2.7830  0.00  0.00     0.000 C
ATOM      6  O5  BGC C   1       7.796   7.855  -2.3550  0.00  0.00     0.000 O
ATOM      7   O  BGC C   1      10.445   8.927  -4.5230  0.00  0.00     0.000 O
ATOM      9  HD  BGC C   1       9.942   8.483  -5.0710  0.00  0.00     0.000 HD
ATOM      9   O  BGC C   1       8.156   9.222  -6.2320  0.00  0.00     0.000 O
ATOM     11  HD  BGC C   1       7.653   8.777  -6.7790  0.00  0.00     0.000 HD
ATOM     11   O  BGC C   1       5.813   9.926  -4.6370  0.00  0.00     0.000 O
ATOM     13  HD  BGC C   1       5.311   9.481  -5.1850  0.00  0.00     0.000 HD
ATOM     13   O  BGC C   1       5.323   6.620  -2.8640  0.00  0.00     0.000 O
ATOM     15  HD  BGC C   1       4.821   6.176  -3.4110  0.00  0.00     0.000 HD
ATOM     15   C  BGC C   1       5.417   7.982  -2.3620  0.00  0.00     0.000 C
ENDROOT
BRANCH 1 16
ATOM     16  O4  BGC C   2       9.968   7.322  -2.2490  0.00  0.00     0.000 O
BRANCH 16 20
ATOM     17  C1  BGC C   2      12.185   6.646   1.1140  0.00  0.00     0.000 C
ATOM     18  C2  BGC C   2      10.741   6.170   1.1620  0.00  0.00     0.000 C
ATOM     19  C3  BGC C   2      10.136   6.139  -0.2340  0.00  0.00     0.000 C
ATOM     20  C4  BGC C   2      10.349   7.457  -0.9000  0.00  0.00     0.000 C
ATOM     21  C5  BGC C   2      11.814   7.877  -0.8270  0.00  0.00     0.000 C
ATOM     22  O5  BGC C   2      12.261   7.898   0.4960  0.00  0.00     0.000 O
ATOM     23   O  BGC C   2      10.704   4.863   1.7550  0.00  0.00     0.000 O
ATOM     25  HD  BGC C   2      10.136   4.363   1.3340  0.00  0.00     0.000 HD
ATOM     25   O  BGC C   2       8.742   5.871  -0.1330  0.00  0.00     0.000 O
ATOM     27  HD  BGC C   2       8.174   5.371  -0.5530  0.00  0.00     0.000 HD
ATOM     27   C  BGC C   2      12.128   9.241  -1.4750  0.00  0.00     0.000 C
ATOM     28   O  BGC C   2      11.292  10.278  -0.9370  0.00  0.00     0.000 O
ATOM     30  HD  BGC C   2      10.723   9.778  -1.3580  0.00  0.00     0.000 HD
BRANCH 17 30
ATOM     30  O4  BGC C   3      12.681   6.763   2.4300  0.00  0.00     0.000 O
BRANCH 30 34
ATOM     31  C1  BGC C   3      16.022   5.451   4.2900  0.00  0.00     0.000 C
ATOM     32  C2  BGC C   3      15.824   6.986   4.2680  0.00  0.00     0.000 C
ATOM     33  C3  BGC C   3      14.431   7.344   3.8840  0.00  0.00     0.000 C
ATOM     34  C4  BGC C   3      14.084   6.608   2.5870  0.00  0.00     0.000 C
ATOM     35  C5  BGC C   3      14.417   5.095   2.6190  0.00  0.00     0.000 C
ATOM     36  O5  BGC C   3      15.750   4.902   3.0240  0.00  0.00     0.000 O
ATOM     37   O  BGC C   3      16.117   7.717   5.4440  0.00  0.00     0.000 O
ATOM     39  HD  BGC C   3      15.592   7.633   4.7610  0.00  0.00     0.000 HD
ATOM     39   O  BGC C   3      14.310   8.788   3.7180  0.00  0.00     0.000 O
ATOM     41  HD  BGC C   3      13.784   8.703   3.0340  0.00  0.00     0.000 HD
ATOM     41   C  BGC C   3      14.251   4.358   1.2700  0.00  0.00     0.000 C
ATOM     42   O  BGC C   3      15.156   4.802   0.1970  0.00  0.00     0.000 O
ATOM     44  HD  BGC C   3      14.631   4.717  -0.4860  0.00  0.00     0.000 HD
BRANCH 31 44
ATOM     44  O4  BGC C   4      17.321   5.121   4.6510  0.00  0.00     0.000 O
BRANCH 44 48
ATOM     45  C1  BGC C   4      18.777   1.593   6.1320  0.00  0.00     0.000 C
ATOM     46  C2  BGC C   4      17.215   1.596   6.1000  0.00  0.00     0.000 C
ATOM     47  C3  BGC C   4      16.916   2.835   5.2470  0.00  0.00     0.000 C
ATOM     48  C4  BGC C   4      17.575   4.148   5.6210  0.00  0.00     0.000 C
ATOM     49  C5  BGC C   4      19.090   3.890   5.5940  0.00  0.00     0.000 C
ATOM     50  O5  BGC C   4      19.430   2.837   6.4280  0.00  0.00     0.000 O
ATOM     51   O  BGC C   4      16.387   0.429   5.5310  0.00  0.00     0.000 O
ATOM     53  HD  BGC C   4      15.546   0.633   5.4790  0.00  0.00     0.000 HD
ATOM     53   O  BGC C   4      15.466   3.038   5.5890  0.00  0.00     0.000 O
ATOM     55  HD  BGC C   4      14.625   3.242   5.5370  0.00  0.00     0.000 HD
ATOM     55   C  BGC C   4      19.859   5.078   6.1100  0.00  0.00     0.000 C
ATOM     56   O  BGC C   4      19.505   5.522   7.4250  0.00  0.00     0.000 O
ATOM     58  HD  BGC C   4      18.665   5.725   7.3720  0.00  0.00     0.000 HD
BRANCH 45 58
ATOM     58  O4  BGC C   5      19.283   0.681   7.0600  0.00  0.00     0.000 O
BRANCH 58 62
ATOM     59  C1  BGC C   5      22.004  -0.522   7.7700  0.00  0.00     0.000 C
ATOM     60  C2  BGC C   5      22.074  -0.148   6.3740  0.00  0.00     0.000 C
ATOM     61  C3  BGC C   5      20.840  -0.549   5.5700  0.00  0.00     0.000 C
ATOM     62  C4  BGC C   5      19.641  -0.609   6.5050  0.00  0.00     0.000 C
ATOM     63  C5  BGC C   5      20.079  -1.342   7.7510  0.00  0.00     0.000 C
ATOM     64  O5  BGC C   5      21.477  -1.517   7.9760  0.00  0.00     0.000 O
ATOM     65   O  BGC C   5      19.793  -3.556   6.8270  0.00  0.00     0.000 O
ATOM     67  HD  BGC C   5      19.442  -2.911   7.2860  0.00  0.00     0.000 HD
ATOM     67   O  BGC C   5      19.793  -3.556   6.8270  0.00  0.00     0.000 O
ATOM     69  HD  BGC C   5      19.442  -2.911   7.2860  0.00  0.00     0.000 HD
ENDBRANCH 58 62
ENDBRANCH 45 58
ENDBRANCH 44 48
ENDBRANCH 31 44
ENDBRANCH 30 34
ENDBRANCH 17 30
ENDBRANCH 16 20
ENDBRANCH 1 16
TORSDOF 8
ENDMDL
MODEL 60
REMARK VINA RESULT:      -5.7     21.376     23.608
ROOT
ATOM      1  C1  BGC C   1       0.336 -16.792 -26.5150  0.00  0.00     0.000 C
ATOM      2  C2  BGC C   1      -0.371 -16.188 -25.3020  0.00  0.00     0.000 C
ATOM      3  C3  BGC C   1      -1.629 -15.451 -25.7450  0.00  0.00     0.000 C
ATOM      4  C4  BGC C   1      -1.357 -14.480 -26.8820  0.00  0.00     0.000 C
ATOM      5  C5  BGC C   1      -0.512 -15.153 -27.9600  0.00  0.00     0.000 C
ATOM      6  O5  BGC C   1       0.598 -15.830 -27.4630  0.00  0.00     0.000 O
ATOM      7   O  BGC C   1      -0.703 -17.246 -24.4360  0.00  0.00     0.000 O
ATOM      9  HD  BGC C   1      -0.656 -16.407 -24.2270  0.00  0.00     0.000 HD
ATOM      9   O  BGC C   1      -2.186 -14.793 -24.5990  0.00  0.00     0.000 O
ATOM     11  HD  BGC C   1      -2.138 -13.953 -24.3910  0.00  0.00     0.000 HD
ATOM     11   O  BGC C   1      -2.624 -14.084 -27.3970  0.00  0.00     0.000 O
ATOM     13  HD  BGC C   1      -2.577 -13.245 -27.1890  0.00  0.00     0.000 HD
ATOM     13   O  BGC C   1       0.932 -13.171 -28.3120  0.00  0.00     0.000 O
ATOM     15  HD  BGC C   1       0.979 -12.332 -28.1030  0.00  0.00     0.000 HD
ATOM     15   C  BGC C   1      -0.029 -14.067 -28.9380  0.00  0.00     0.000 C
ENDROOT
BRANCH 1 16
ATOM     16  O4  BGC C   2       1.578 -17.311 -26.1000  0.00  0.00     0.000 O
BRANCH 16 20
ATOM     17  C1  BGC C   2       4.017 -20.472 -26.9570  0.00  0.00     0.000 C
ATOM     18  C2  BGC C   2       3.862 -19.434 -28.0570  0.00  0.00     0.000 C
ATOM     19  C3  BGC C   2       3.248 -18.154 -27.5100  0.00  0.00     0.000 C
ATOM     20  C4  BGC C   2       1.998 -18.479 -26.7630  0.00  0.00     0.000 C
ATOM     21  C5  BGC C   2       2.244 -19.583 -25.7380  0.00  0.00     0.000 C
ATOM     22  O5  BGC C   2       2.782 -20.718 -26.3470  0.00  0.00     0.000 O
ATOM     23   O  BGC C   2       5.153 -19.167 -28.6270  0.00  0.00     0.000 O
ATOM     25  HD  BGC C   2       5.239 -18.320 -28.7820  0.00  0.00     0.000 HD
ATOM     25   O  BGC C   2       2.948 -17.279 -28.5910  0.00  0.00     0.000 O
ATOM     27  HD  BGC C   2       3.035 -16.432 -28.7460  0.00  0.00     0.000 HD
ATOM     27   C  BGC C   2       0.999 -20.002 -24.9280  0.00  0.00     0.000 C
ATOM     28   O  BGC C   2      -0.087 -20.368 -25.7950  0.00  0.00     0.000 O
ATOM     30  HD  BGC C   2      -0.000 -19.520 -25.9500  0.00  0.00     0.000 HD
BRANCH 17 30
ATOM     30  O4  BGC C   3       4.490 -21.678 -27.5180  0.00  0.00     0.000 O
BRANCH 30 34
ATOM     31  C1  BGC C   3       7.027 -24.726 -26.7350  0.00  0.00     0.000 C
ATOM     32  C2  BGC C   3       5.630 -24.829 -26.0760  0.00  0.00     0.000 C
ATOM     33  C3  BGC C   3       4.673 -23.868 -26.6900  0.00  0.00     0.000 C
ATOM     34  C4  BGC C   3       5.313 -22.477 -26.6820  0.00  0.00     0.000 C
ATOM     35  C5  BGC C   3       6.760 -22.452 -27.2380  0.00  0.00     0.000 C
ATOM     36  O5  BGC C   3       7.543 -23.425 -26.5930  0.00  0.00     0.000 O
ATOM     37   O  BGC C   3       4.984 -26.088 -26.0660  0.00  0.00     0.000 O
ATOM     39  HD  BGC C   3       4.890 -25.231 -26.1480  0.00  0.00     0.000 HD
ATOM     39   O  BGC C   3       3.414 -23.871 -25.9540  0.00  0.00     0.000 O
ATOM     41  HD  BGC C   3       3.320 -23.014 -26.0360  0.00  0.00     0.000 HD
ATOM     41   C  BGC C   3       7.501 -21.105 -27.0780  0.00  0.00     0.000 C
ATOM     42   O  BGC C   3       7.749 -20.688 -25.6880  0.00  0.00     0.000 O
ATOM     44  HD  BGC C   3       7.655 -19.831 -25.7700  0.00  0.00     0.000 HD
BRANCH 31 44
ATOM     44  O4  BGC C   4       7.916 -25.625 -26.1610  0.00  0.00     0.000 O
BRANCH 44 48
ATOM     45  C1  BGC C   4      10.905 -28.314 -26.9290  0.00  0.00     0.000 C
ATOM     46  C2  BGC C   4      11.412 -26.843 -27.0750  0.00  0.00     0.000 C
ATOM     47  C3  BGC C   4      10.257 -26.047 -26.4540  0.00  0.00     0.000 C
ATOM     48  C4  BGC C   4       8.847 -26.315 -26.9410  0.00  0.00     0.000 C
ATOM     49  C5  BGC C   4       8.590 -27.812 -26.7050  0.00  0.00     0.000 C
ATOM     50  O5  BGC C   4       9.554 -28.587 -27.3300  0.00  0.00     0.000 O
ATOM     51   O  BGC C   4      12.719 -26.341 -26.4370  0.00  0.00     0.000 O
ATOM     53  HD  BGC C   4      12.799 -25.481 -26.5110  0.00  0.00     0.000 HD
ATOM     53   O  BGC C   4      10.577 -24.676 -26.9850  0.00  0.00     0.000 O
ATOM     55  HD  BGC C   4      10.657 -23.817 -27.0590  0.00  0.00     0.000 HD
ATOM     55   C  BGC C   4       7.275 -28.244 -27.3000  0.00  0.00     0.000 C
ATOM     56   O  BGC C   4       7.111 -27.979 -28.6980  0.00  0.00     0.000 O
ATOM     58  HD  BGC C   4       7.190 -27.120 -28.7720  0.00  0.00     0.000 HD
BRANCH 45 58
ATOM     58  O4  BGC C   5      11.692 -29.217 -27.6480  0.00  0.00     0.000 O
BRANCH 58 62
ATOM     59  C1  BGC C   5      12.084 -32.037 -28.7650  0.00  0.00     0.000 C
ATOM     60  C2  BGC C   5      11.118 -32.151 -27.6940  0.00  0.00     0.000 C
ATOM     61  C3  BGC C   5      11.501 -31.373 -26.4370  0.00  0.00     0.000 C
ATOM     62  C4  BGC C   5      12.381 -30.198 -26.8350  0.00  0.00     0.000 C
ATOM     63  C5  BGC C   5      13.403 -30.715 -27.8200  0.00  0.00     0.000 C
ATOM     64  O5  BGC C   5      13.176 -31.987 -28.4240  0.00  0.00     0.000 O
ATOM     65   O  BGC C   5      14.904 -31.603 -26.1480  0.00  0.00     0.000 O
ATOM     67  HD  BGC C   5      14.700 -30.932 -26.6560  0.00  0.00     0.000 HD
ATOM     67   O  BGC C   5      14.904 -31.603 -26.1480  0.00  0.00     0.000 O
ATOM     69  HD  BGC C   5      14.700 -30.932 -26.6560  0.00  0.00     0.000 HD
ENDBRANCH 58 62
ENDBRANCH 45 58
ENDBRANCH 44 48
ENDBRANCH 31 44
ENDBRANCH 30 34
ENDBRANCH 17 30
ENDBRANCH 16 20
ENDBRANCH 1 16
TORSDOF 8
ENDMDL
MODEL 61
REMARK VINA RESULT:      -5.7     22.455     26.728
ROOT
ATOM      1  C1  BGC C   1       9.225 -27.440 -26.9060  0.00  0.00     0.000 C
ATOM      2  C2  BGC C   1      10.650 -27.534 -26.3640  0.00  0.00     0.000 C
ATOM      3  C3  BGC C   1      11.566 -28.162 -27.4080  0.00  0.00     0.000 C
ATOM      4  C4  BGC C   1      11.001 -29.458 -27.9640  0.00  0.00     0.000 C
ATOM      5  C5  BGC C   1       9.529 -29.281 -28.3250  0.00  0.00     0.000 C
ATOM      6  O5  BGC C   1       8.775 -28.671 -27.3260  0.00  0.00     0.000 O
ATOM      7   O  BGC C   1      11.075 -26.226 -26.0630  0.00  0.00     0.000 O
ATOM      9  HD  BGC C   1      11.422 -26.961 -25.7640  0.00  0.00     0.000 HD
ATOM      9   O  BGC C   1      12.856 -28.350 -26.8120  0.00  0.00     0.000 O
ATOM     11  HD  BGC C   1      13.204 -29.085 -26.5130  0.00  0.00     0.000 HD
ATOM     11   O  BGC C   1      11.774 -29.786 -29.1130  0.00  0.00     0.000 O
ATOM     13  HD  BGC C   1      12.122 -30.520 -28.8140  0.00  0.00     0.000 HD
ATOM     13   O  BGC C   1       8.857 -31.479 -27.4000  0.00  0.00     0.000 O
ATOM     15  HD  BGC C   1       9.204 -32.214 -27.1010  0.00  0.00     0.000 HD
ATOM     15   C  BGC C   1       8.934 -30.673 -28.6080  0.00  0.00     0.000 C
ENDROOT
BRANCH 1 16
ATOM     16  O4  BGC C   2       8.373 -27.024 -25.8650  0.00  0.00     0.000 O
BRANCH 16 20
ATOM     17  C1  BGC C   2       4.984 -24.787 -25.4330  0.00  0.00     0.000 C
ATOM     18  C2  BGC C   2       4.777 -26.231 -25.8620  0.00  0.00     0.000 C
ATOM     19  C3  BGC C   2       6.042 -27.047 -25.6370  0.00  0.00     0.000 C
ATOM     20  C4  BGC C   2       7.202 -26.356 -26.2700  0.00  0.00     0.000 C
ATOM     21  C5  BGC C   2       7.274 -24.895 -25.8340  0.00  0.00     0.000 C
ATOM     22  O5  BGC C   2       6.077 -24.233 -26.1090  0.00  0.00     0.000 O
ATOM     23   O  BGC C   2       3.683 -26.784 -25.1150  0.00  0.00     0.000 O
ATOM     25  HD  BGC C   2       3.865 -27.598 -24.8810  0.00  0.00     0.000 HD
ATOM     25   O  BGC C   2       5.875 -28.336 -26.2160  0.00  0.00     0.000 O
ATOM     27  HD  BGC C   2       6.057 -29.150 -25.9820  0.00  0.00     0.000 HD
ATOM     27   C  BGC C   2       8.435 -24.092 -26.4560  0.00  0.00     0.000 C
ATOM     28   O  BGC C   2       8.418 -24.177 -27.8900  0.00  0.00     0.000 O
ATOM     30  HD  BGC C   2       8.599 -24.991 -27.6560  0.00  0.00     0.000 HD
BRANCH 17 30
ATOM     30  O4  BGC C   3       3.831 -24.037 -25.7510  0.00  0.00     0.000 O
BRANCH 30 34
ATOM     31  C1  BGC C   3       1.566 -21.019 -24.3030  0.00  0.00     0.000 C
ATOM     32  C2  BGC C   3       2.786 -20.593 -25.1550  0.00  0.00     0.000 C
ATOM     33  C3  BGC C   3       3.340 -21.747 -25.9160  0.00  0.00     0.000 C
ATOM     34  C4  BGC C   3       3.578 -22.900 -24.9390  0.00  0.00     0.000 C
ATOM     35  C5  BGC C   3       2.365 -23.204 -24.0220  0.00  0.00     0.000 C
ATOM     36  O5  BGC C   3       1.930 -22.026 -23.3910  0.00  0.00     0.000 O
ATOM     37   O  BGC C   3       2.620 -19.540 -26.0850  0.00  0.00     0.000 O
ATOM     39  HD  BGC C   3       2.991 -20.305 -25.9230  0.00  0.00     0.000 HD
ATOM     39   O  BGC C   3       4.576 -21.361 -26.5870  0.00  0.00     0.000 O
ATOM     41  HD  BGC C   3       4.947 -22.126 -26.4240  0.00  0.00     0.000 HD
ATOM     41   C  BGC C   3       2.632 -24.237 -22.9030  0.00  0.00     0.000 C
ATOM     42   O  BGC C   3       3.625 -23.828 -21.8960  0.00  0.00     0.000 O
ATOM     44  HD  BGC C   3       3.996 -24.593 -21.7330  0.00  0.00     0.000 HD
BRANCH 31 44
ATOM     44  O4  BGC C   4       1.052 -19.940 -23.5950  0.00  0.00     0.000 O
BRANCH 44 48
ATOM     45  C1  BGC C   4      -2.192 -18.549 -21.5210  0.00  0.00     0.000 C
ATOM     46  C2  BGC C   4      -1.559 -19.794 -20.8200  0.00  0.00     0.000 C
ATOM     47  C3  BGC C   4      -0.228 -19.938 -21.5690  0.00  0.00     0.000 C
ATOM     48  C4  BGC C   4      -0.248 -19.967 -23.0840  0.00  0.00     0.000 C
ATOM     49  C5  BGC C   4      -0.920 -18.659 -23.5290  0.00  0.00     0.000 C
ATOM     50  O5  BGC C   4      -2.174 -18.524 -22.9560  0.00  0.00     0.000 O
ATOM     51   O  BGC C   4      -1.252 -19.840 -19.3120  0.00  0.00     0.000 O
ATOM     53  HD  BGC C   4      -0.799 -20.547 -19.1020  0.00  0.00     0.000 HD
ATOM     53   O  BGC C   4       0.136 -21.343 -21.1750  0.00  0.00     0.000 O
ATOM     55  HD  BGC C   4       0.589 -22.051 -20.9650  0.00  0.00     0.000 HD
ATOM     55   C  BGC C   4      -1.152 -18.639 -25.0180  0.00  0.00     0.000 C
ATOM     56   O  BGC C   4      -1.915 -19.732 -25.5410  0.00  0.00     0.000 O
ATOM     58  HD  BGC C   4      -1.462 -20.440 -25.3310  0.00  0.00     0.000 HD
BRANCH 45 58
ATOM     58  O4  BGC C   5      -3.530 -18.367 -21.1650  0.00  0.00     0.000 O
BRANCH 58 62
ATOM     59  C1  BGC C   5      -3.886 -17.328 -18.3110  0.00  0.00     0.000 C
ATOM     60  C2  BGC C   5      -5.210 -17.390 -18.8920  0.00  0.00     0.000 C
ATOM     61  C3  BGC C   5      -5.283 -16.833 -20.3110  0.00  0.00     0.000 C
ATOM     62  C4  BGC C   5      -3.920 -16.985 -20.9710  0.00  0.00     0.000 C
ATOM     63  C5  BGC C   5      -2.883 -16.537 -19.9680  0.00  0.00     0.000 C
ATOM     64  O5  BGC C   5      -3.275 -16.405 -18.6030  0.00  0.00     0.000 O
ATOM     65   O  BGC C   5      -3.125 -14.178 -20.4270  0.00  0.00     0.000 O
ATOM     67  HD  BGC C   5      -2.696 -14.910 -20.6000  0.00  0.00     0.000 HD
ATOM     67   O  BGC C   5      -3.125 -14.178 -20.4270  0.00  0.00     0.000 O
ATOM     69  HD  BGC C   5      -2.696 -14.910 -20.6000  0.00  0.00     0.000 HD
ENDBRANCH 58 62
ENDBRANCH 45 58
ENDBRANCH 44 48
ENDBRANCH 31 44
ENDBRANCH 30 34
ENDBRANCH 17 30
ENDBRANCH 16 20
ENDBRANCH 1 16
TORSDOF 8
ENDMDL
MODEL 62
REMARK VINA RESULT:      -5.7     20.640     25.342
ROOT
ATOM      1  C1  BGC C   1      10.073 -24.625 -27.6490  0.00  0.00     0.000 C
ATOM      2  C2  BGC C   1      11.208 -24.740 -26.6320  0.00  0.00     0.000 C
ATOM      3  C3  BGC C   1      12.227 -25.771 -27.1010  0.00  0.00     0.000 C
ATOM      4  C4  BGC C   1      11.576 -27.088 -27.4910  0.00  0.00     0.000 C
ATOM      5  C5  BGC C   1      10.363 -26.833 -28.3810  0.00  0.00     0.000 C
ATOM      6  O5  BGC C   1       9.503 -25.854 -27.8920  0.00  0.00     0.000 O
ATOM      7   O  BGC C   1      11.809 -23.472 -26.5240  0.00  0.00     0.000 O
ATOM      9  HD  BGC C   1      11.873 -24.121 -25.9540  0.00  0.00     0.000 HD
ATOM      9   O  BGC C   1      13.199 -25.941 -26.0600  0.00  0.00     0.000 O
ATOM     11  HD  BGC C   1      13.262 -26.590 -25.4900  0.00  0.00     0.000 HD
ATOM     11   O  BGC C   1      12.564 -27.849 -28.1770  0.00  0.00     0.000 O
ATOM     13  HD  BGC C   1      12.627 -28.497 -27.6070  0.00  0.00     0.000 HD
ATOM     13   O  BGC C   1       8.960 -28.537 -27.2540  0.00  0.00     0.000 O
ATOM     15  HD  BGC C   1       9.023 -29.186 -26.6840  0.00  0.00     0.000 HD
ATOM     15   C  BGC C   1       9.580 -28.153 -28.5130  0.00  0.00     0.000 C
ENDROOT
BRANCH 1 16
ATOM     16  O4  BGC C   2       9.066 -23.803 -27.1100  0.00  0.00     0.000 O
BRANCH 16 20
ATOM     17  C1  BGC C   2       6.480 -20.904 -28.3690  0.00  0.00     0.000 C
ATOM     18  C2  BGC C   2       6.195 -22.312 -28.8680  0.00  0.00     0.000 C
ATOM     19  C3  BGC C   2       6.977 -23.339 -28.0620  0.00  0.00     0.000 C
ATOM     20  C4  BGC C   2       8.418 -22.956 -28.0290  0.00  0.00     0.000 C
ATOM     21  C5  BGC C   2       8.590 -21.505 -27.5900  0.00  0.00     0.000 C
ATOM     22  O5  BGC C   2       7.855 -20.646 -28.4090  0.00  0.00     0.000 O
ATOM     23   O  BGC C   2       4.785 -22.562 -28.7660  0.00  0.00     0.000 O
ATOM     25  HD  BGC C   2       4.646 -23.370 -28.4870  0.00  0.00     0.000 HD
ATOM     25   O  BGC C   2       6.832 -24.618 -28.6680  0.00  0.00     0.000 O
ATOM     27  HD  BGC C   2       6.693 -25.425 -28.3880  0.00  0.00     0.000 HD
ATOM     27   C  BGC C   2      10.051 -21.012 -27.5450  0.00  0.00     0.000 C
ATOM     28   O  BGC C   2      10.712 -21.227 -28.8030  0.00  0.00     0.000 O
ATOM     30  HD  BGC C   2      10.573 -22.035 -28.5230  0.00  0.00     0.000 HD
BRANCH 17 30
ATOM     30  O4  BGC C   3       5.824 -19.973 -29.2020  0.00  0.00     0.000 O
BRANCH 30 34
ATOM     31  C1  BGC C   3       4.009 -16.363 -29.0790  0.00  0.00     0.000 C
ATOM     32  C2  BGC C   3       5.556 -16.335 -29.1130  0.00  0.00     0.000 C
ATOM     33  C3  BGC C   3       6.110 -17.662 -29.5040  0.00  0.00     0.000 C
ATOM     34  C4  BGC C   3       5.481 -18.731 -28.6070  0.00  0.00     0.000 C
ATOM     35  C5  BGC C   3       3.937 -18.635 -28.5090  0.00  0.00     0.000 C
ATOM     36  O5  BGC C   3       3.554 -17.327 -28.1620  0.00  0.00     0.000 O
ATOM     37   O  BGC C   3       6.193 -15.376 -29.9360  0.00  0.00     0.000 O
ATOM     39  HD  BGC C   3       6.207 -16.187 -29.6330  0.00  0.00     0.000 HD
ATOM     39   O  BGC C   3       7.563 -17.658 -29.3780  0.00  0.00     0.000 O
ATOM     41  HD  BGC C   3       7.576 -18.469 -29.0750  0.00  0.00     0.000 HD
ATOM     41   C  BGC C   3       3.285 -19.579 -27.4730  0.00  0.00     0.000 C
ATOM     42   O  BGC C   3       3.652 -19.320 -26.0700  0.00  0.00     0.000 O
ATOM     44  HD  BGC C   3       3.666 -20.131 -25.7670  0.00  0.00     0.000 HD
BRANCH 31 44
ATOM     44  O4  BGC C   4       3.497 -15.124 -28.7160  0.00  0.00     0.000 O
BRANCH 44 48
ATOM     45  C1  BGC C   4       0.353 -12.562 -29.2710  0.00  0.00     0.000 C
ATOM     46  C2  BGC C   4       0.081 -13.549 -28.0910  0.00  0.00     0.000 C
ATOM     47  C3  BGC C   4       1.466 -14.172 -27.8720  0.00  0.00     0.000 C
ATOM     48  C4  BGC C   4       2.198 -14.750 -29.0670  0.00  0.00     0.000 C
ATOM     49  C5  BGC C   4       2.332 -13.605 -30.0820  0.00  0.00     0.000 C
ATOM     50  O5  BGC C   4       1.093 -13.067 -30.3920  0.00  0.00     0.000 O
ATOM     51   O  BGC C   4      -0.444 -13.089 -26.7180  0.00  0.00     0.000 O
ATOM     53  HD  BGC C   4      -0.430 -13.735 -26.1410  0.00  0.00     0.000 HD
ATOM     53   O  BGC C   4       1.080 -15.375 -27.0560  0.00  0.00     0.000 O
ATOM     55  HD  BGC C   4       1.094 -16.020 -26.4780  0.00  0.00     0.000 HD
ATOM     55   C  BGC C   4       2.899 -14.094 -31.3900  0.00  0.00     0.000 C
ATOM     56   O  BGC C   4       2.180 -15.163 -32.0160  0.00  0.00     0.000 O
ATOM     58  HD  BGC C   4       2.194 -15.808 -31.4380  0.00  0.00     0.000 HD
BRANCH 45 58
ATOM     58  O4  BGC C   5      -0.828 -12.048 -29.8100  0.00  0.00     0.000 O
BRANCH 58 62
ATOM     59  C1  BGC C   5      -3.181 -10.587 -31.1080  0.00  0.00     0.000 C
ATOM     60  C2  BGC C   5      -1.992  -9.848 -31.4690  0.00  0.00     0.000 C
ATOM     61  C3  BGC C   5      -1.031  -9.625 -30.3040  0.00  0.00     0.000 C
ATOM     62  C4  BGC C   5      -1.211 -10.749 -29.2940  0.00  0.00     0.000 C
ATOM     63  C5  BGC C   5      -2.697 -10.947 -29.1040  0.00  0.00     0.000 C
ATOM     64  O5  BGC C   5      -3.584 -10.368 -30.0590  0.00  0.00     0.000 O
ATOM     65   O  BGC C   5      -2.969  -9.140 -27.5230  0.00  0.00     0.000 O
ATOM     67  HD  BGC C   5      -2.833  -9.988 -27.6400  0.00  0.00     0.000 HD
ATOM     67   O  BGC C   5      -2.969  -9.140 -27.5230  0.00  0.00     0.000 O
ATOM     69  HD  BGC C   5      -2.833  -9.988 -27.6400  0.00  0.00     0.000 HD
ENDBRANCH 58 62
ENDBRANCH 45 58
ENDBRANCH 44 48
ENDBRANCH 31 44
ENDBRANCH 30 34
ENDBRANCH 17 30
ENDBRANCH 16 20
ENDBRANCH 1 16
TORSDOF 8
ENDMDL
MODEL 63
REMARK VINA RESULT:      -5.7     18.630     23.103
ROOT
ATOM      1  C1  BGC C   1      15.894 -22.022 -29.9040  0.00  0.00     0.000 C
ATOM      2  C2  BGC C   1      16.342 -21.979 -31.3640  0.00  0.00     0.000 C
ATOM      3  C3  BGC C   1      17.849 -22.187 -31.4540  0.00  0.00     0.000 C
ATOM      4  C4  BGC C   1      18.614 -21.266 -30.5170  0.00  0.00     0.000 C
ATOM      5  C5  BGC C   1      17.977 -21.276 -29.1310  0.00  0.00     0.000 C
ATOM      6  O5  BGC C   1      16.594 -21.112 -29.1460  0.00  0.00     0.000 O
ATOM      7   O  BGC C   1      15.665 -23.009 -32.0450  0.00  0.00     0.000 O
ATOM      9  HD  BGC C   1      16.049 -22.321 -32.4040  0.00  0.00     0.000 HD
ATOM      9   O  BGC C   1      18.243 -22.009 -32.8210  0.00  0.00     0.000 O
ATOM     11  HD  BGC C   1      18.626 -21.320 -33.1810  0.00  0.00     0.000 HD
ATOM     11   O  BGC C   1      19.953 -21.746 -30.4690  0.00  0.00     0.000 O
ATOM     13  HD  BGC C   1      20.336 -21.057 -30.8290  0.00  0.00     0.000 HD
ATOM     13   O  BGC C   1      18.199 -18.828 -28.8190  0.00  0.00     0.000 O
ATOM     15  HD  BGC C   1      18.582 -18.139 -29.1790  0.00  0.00     0.000 HD
ATOM     15   C  BGC C   1      18.597 -20.131 -28.3100  0.00  0.00     0.000 C
ENDROOT
BRANCH 1 16
ATOM     16  O4  BGC C   2      14.536 -21.654 -29.8390  0.00  0.00     0.000 O
BRANCH 16 20
ATOM     17  C1  BGC C   2      11.300 -22.393 -27.4610  0.00  0.00     0.000 C
ATOM     18  C2  BGC C   2      12.279 -21.350 -26.9460  0.00  0.00     0.000 C
ATOM     19  C3  BGC C   2      13.221 -20.900 -28.0530  0.00  0.00     0.000 C
ATOM     20  C4  BGC C   2      13.843 -22.095 -28.6960  0.00  0.00     0.000 C
ATOM     21  C5  BGC C   2      12.782 -23.111 -29.1060  0.00  0.00     0.000 C
ATOM     22  O5  BGC C   2      11.992 -23.476 -28.0140  0.00  0.00     0.000 O
ATOM     23   O  BGC C   2      11.538 -20.233 -26.4330  0.00  0.00     0.000 O
ATOM     25  HD  BGC C   2      11.926 -19.491 -26.6560  0.00  0.00     0.000 HD
ATOM     25   O  BGC C   2      14.234 -20.070 -27.4970  0.00  0.00     0.000 O
ATOM     27  HD  BGC C   2      14.621 -19.329 -27.7210  0.00  0.00     0.000 HD
ATOM     27   C  BGC C   2      13.335 -24.393 -29.7630  0.00  0.00     0.000 C
ATOM     28   O  BGC C   2      14.322 -25.021 -28.9300  0.00  0.00     0.000 O
ATOM     30  HD  BGC C   2      14.710 -24.280 -29.1530  0.00  0.00     0.000 HD
BRANCH 17 30
ATOM     30  O4  BGC C   3      10.513 -22.864 -26.3880  0.00  0.00     0.000 O
BRANCH 30 34
ATOM     31  C1  BGC C   3       6.699 -23.825 -25.4530  0.00  0.00     0.000 C
ATOM     32  C2  BGC C   3       7.476 -24.882 -26.2740  0.00  0.00     0.000 C
ATOM     33  C3  BGC C   3       8.939 -24.602 -26.2670  0.00  0.00     0.000 C
ATOM     34  C4  BGC C   3       9.153 -23.144 -26.6830  0.00  0.00     0.000 C
ATOM     35  C5  BGC C   3       8.259 -22.137 -25.9150  0.00  0.00     0.000 C
ATOM     36  O5  BGC C   3       6.913 -22.538 -25.9800  0.00  0.00     0.000 O
ATOM     37   O  BGC C   3       7.327 -26.246 -25.9250  0.00  0.00     0.000 O
ATOM     39  HD  BGC C   3       7.869 -25.627 -26.1950  0.00  0.00     0.000 HD
ATOM     39   O  BGC C   3       9.631 -25.514 -27.1690  0.00  0.00     0.000 O
ATOM     41  HD  BGC C   3      10.173 -24.895 -27.4400  0.00  0.00     0.000 HD
ATOM     41   C  BGC C   3       8.315 -20.682 -26.4350  0.00  0.00     0.000 C
ATOM     42   O  BGC C   3       7.813 -20.485 -27.8050  0.00  0.00     0.000 O
ATOM     44  HD  BGC C   3       8.355 -19.866 -28.0750  0.00  0.00     0.000 HD
BRANCH 31 44
ATOM     44  O4  BGC C   4       5.336 -24.091 -25.4610  0.00  0.00     0.000 O
BRANCH 44 48
ATOM     45  C1  BGC C   4       1.933 -23.896 -23.1940  0.00  0.00     0.000 C
ATOM     46  C2  BGC C   4       2.754 -22.570 -23.1030  0.00  0.00     0.000 C
ATOM     47  C3  BGC C   4       3.774 -22.749 -24.2350  0.00  0.00     0.000 C
ATOM     48  C4  BGC C   4       4.583 -24.030 -24.2860  0.00  0.00     0.000 C
ATOM     49  C5  BGC C   4       3.564 -25.178 -24.3600  0.00  0.00     0.000 C
ATOM     50  O5  BGC C   4       2.674 -25.122 -23.3010  0.00  0.00     0.000 O
ATOM     51   O  BGC C   4       2.118 -21.178 -23.2650  0.00  0.00     0.000 O
ATOM     53  HD  BGC C   4       2.720 -20.557 -23.3050  0.00  0.00     0.000 HD
ATOM     53   O  BGC C   4       4.774 -21.694 -23.8480  0.00  0.00     0.000 O
ATOM     55  HD  BGC C   4       5.376 -21.073 -23.8870  0.00  0.00     0.000 HD
ATOM     55   C  BGC C   4       4.240 -26.520 -24.2500  0.00  0.00     0.000 C
ATOM     56   O  BGC C   4       5.045 -26.714 -23.0820  0.00  0.00     0.000 O
ATOM     58  HD  BGC C   4       5.648 -26.093 -23.1220  0.00  0.00     0.000 HD
BRANCH 45 58
ATOM     58  O4  BGC C   5       1.088 -24.070 -22.0960  0.00  0.00     0.000 O
BRANCH 58 62
ATOM     59  C1  BGC C   5      -0.231 -24.721 -19.4140  0.00  0.00     0.000 C
ATOM     60  C2  BGC C   5      -0.788 -23.458 -19.8480  0.00  0.00     0.000 C
ATOM     61  C3  BGC C   5       0.255 -22.480 -20.3830  0.00  0.00     0.000 C
ATOM     62  C4  BGC C   5       1.432 -23.269 -20.9380  0.00  0.00     0.000 C
ATOM     63  C5  BGC C   5       1.762 -24.348 -19.9340  0.00  0.00     0.000 C
ATOM     64  O5  BGC C   5       0.801 -24.648 -18.9230  0.00  0.00     0.000 O
ATOM     65   O  BGC C   5       3.071 -22.924 -18.4870  0.00  0.00     0.000 O
ATOM     67  HD  BGC C   5       3.072 -23.485 -19.1470  0.00  0.00     0.000 HD
ATOM     67   O  BGC C   5       3.071 -22.924 -18.4870  0.00  0.00     0.000 O
ATOM     69  HD  BGC C   5       3.072 -23.485 -19.1470  0.00  0.00     0.000 HD
ENDBRANCH 58 62
ENDBRANCH 45 58
ENDBRANCH 44 48
ENDBRANCH 31 44
ENDBRANCH 30 34
ENDBRANCH 17 30
ENDBRANCH 16 20
ENDBRANCH 1 16
TORSDOF 8
ENDMDL
MODEL 64
REMARK VINA RESULT:      -5.7     13.675     20.136
ROOT
ATOM      1  C1  BGC C   1       6.878  -3.830 -28.5290  0.00  0.00     0.000 C
ATOM      2  C2  BGC C   1       6.613  -5.308 -28.2450  0.00  0.00     0.000 C
ATOM      3  C3  BGC C   1       6.046  -5.985 -29.4870  0.00  0.00     0.000 C
ATOM      4  C4  BGC C   1       4.870  -5.220 -30.0730  0.00  0.00     0.000 C
ATOM      5  C5  BGC C   1       5.199  -3.733 -30.1620  0.00  0.00     0.000 C
ATOM      6  O5  BGC C   1       5.743  -3.206 -28.9930  0.00  0.00     0.000 O
ATOM      7   O  BGC C   1       7.840  -5.896 -27.8850  0.00  0.00     0.000 O
ATOM      9  HD  BGC C   1       7.051  -6.216 -27.7260  0.00  0.00     0.000 HD
ATOM      9   O  BGC C   1       5.691  -7.330 -29.1390  0.00  0.00     0.000 O
ATOM     11  HD  BGC C   1       4.902  -7.650 -28.9800  0.00  0.00     0.000 HD
ATOM     11   O  BGC C   1       4.624  -5.769 -31.3630  0.00  0.00     0.000 O
ATOM     13  HD  BGC C   1       3.835  -6.088 -31.2040  0.00  0.00     0.000 HD
ATOM     13   O  BGC C   1       2.964  -3.012 -29.3720  0.00  0.00     0.000 O
ATOM     15  HD  BGC C   1       2.175  -3.332 -29.2140  0.00  0.00     0.000 HD
ATOM     15   C  BGC C   1       3.900  -2.973 -30.4860  0.00  0.00     0.000 C
ENDROOT
BRANCH 1 16
ATOM     16  O4  BGC C   2       7.231  -3.196 -27.3220  0.00  0.00     0.000 O
BRANCH 16 20
ATOM     17  C1  BGC C   2       9.694  -0.178 -26.0980  0.00  0.00     0.000 C
ATOM     18  C2  BGC C   2       8.332   0.247 -26.6230  0.00  0.00     0.000 C
ATOM     19  C3  BGC C   2       7.387  -0.944 -26.6990  0.00  0.00     0.000 C
ATOM     20  C4  BGC C   2       8.041  -2.053 -27.4530  0.00  0.00     0.000 C
ATOM     21  C5  BGC C   2       9.431  -2.348 -26.8960  0.00  0.00     0.000 C
ATOM     22  O5  BGC C   2      10.223  -1.199 -26.8950  0.00  0.00     0.000 O
ATOM     23   O  BGC C   2       7.796   1.258 -25.7560  0.00  0.00     0.000 O
ATOM     25  HD  BGC C   2       6.948   1.128 -25.6360  0.00  0.00     0.000 HD
ATOM     25   O  BGC C   2       6.192  -0.550 -27.3630  0.00  0.00     0.000 O
ATOM     27  HD  BGC C   2       5.344  -0.680 -27.2440  0.00  0.00     0.000 HD
ATOM     27   C  BGC C   2      10.194  -3.472 -27.6280  0.00  0.00     0.000 C
ATOM     28   O  BGC C   2      10.274  -3.213 -29.0390  0.00  0.00     0.000 O
ATOM     30  HD  BGC C   2       9.426  -3.343 -28.9200  0.00  0.00     0.000 HD
BRANCH 17 30
ATOM     30  O4  BGC C   3      10.574   0.926 -26.1390  0.00  0.00     0.000 O
BRANCH 30 34
ATOM     31  C1  BGC C   3      13.286   2.889 -23.8760  0.00  0.00     0.000 C
ATOM     32  C2  BGC C   3      13.770   1.558 -24.4980  0.00  0.00     0.000 C
ATOM     33  C3  BGC C   3      12.846   1.098 -25.5720  0.00  0.00     0.000 C
ATOM     34  C4  BGC C   3      11.421   1.095 -25.0130  0.00  0.00     0.000 C
ATOM     35  C5  BGC C   3      11.030   2.409 -24.2890  0.00  0.00     0.000 C
ATOM     36  O5  BGC C   3      12.001   2.738 -23.3270  0.00  0.00     0.000 O
ATOM     37   O  BGC C   3      15.075   1.506 -25.0430  0.00  0.00     0.000 O
ATOM     39  HD  BGC C   3      14.251   1.253 -25.1230  0.00  0.00     0.000 HD
ATOM     39   O  BGC C   3      13.232  -0.230 -26.0340  0.00  0.00     0.000 O
ATOM     41  HD  BGC C   3      12.408  -0.483 -26.1150  0.00  0.00     0.000 HD
ATOM     41   C  BGC C   3       9.669   2.375 -23.5560  0.00  0.00     0.000 C
ATOM     42   O  BGC C   3       9.585   1.425 -22.4340  0.00  0.00     0.000 O
ATOM     44  HD  BGC C   3       8.761   1.171 -22.5140  0.00  0.00     0.000 HD
BRANCH 31 44
ATOM     44  O4  BGC C   4      14.152   3.316 -22.8770  0.00  0.00     0.000 O
BRANCH 44 48
ATOM     45  C1  BGC C   4      15.728   6.594 -21.0000  0.00  0.00     0.000 C
ATOM     46  C2  BGC C   4      14.181   6.513 -20.7990  0.00  0.00     0.000 C
ATOM     47  C3  BGC C   4      13.870   5.095 -21.2960  0.00  0.00     0.000 C
ATOM     48  C4  BGC C   4      14.387   4.675 -22.6580  0.00  0.00     0.000 C
ATOM     49  C5  BGC C   4      15.912   4.853 -22.6110  0.00  0.00     0.000 C
ATOM     50  O5  BGC C   4      16.251   6.150 -22.2610  0.00  0.00     0.000 O
ATOM     51   O  BGC C   4      13.505   6.683 -19.4270  0.00  0.00     0.000 O
ATOM     53  HD  BGC C   4      12.660   6.495 -19.4640  0.00  0.00     0.000 HD
ATOM     53   O  BGC C   4      12.382   5.210 -21.4830  0.00  0.00     0.000 O
ATOM     55  HD  BGC C   4      11.538   5.022 -21.5200  0.00  0.00     0.000 HD
ATOM     55   C  BGC C   4      16.534   4.625 -23.9650  0.00  0.00     0.000 C
ATOM     56   O  BGC C   4      16.022   5.438 -25.0270  0.00  0.00     0.000 O
ATOM     58  HD  BGC C   4      15.177   5.250 -25.0640  0.00  0.00     0.000 HD
BRANCH 45 58
ATOM     58  O4  BGC C   5      16.213   7.894 -20.8370  0.00  0.00     0.000 O
BRANCH 58 62
ATOM     59  C1  BGC C   5      16.396  10.199 -18.8350  0.00  0.00     0.000 C
ATOM     60  C2  BGC C   5      17.373  10.474 -19.8660  0.00  0.00     0.000 C
ATOM     61  C3  BGC C   5      18.205   9.257 -20.2620  0.00  0.00     0.000 C
ATOM     62  C4  BGC C   5      17.392   7.997 -20.0000  0.00  0.00     0.000 C
ATOM     63  C5  BGC C   5      16.758   8.148 -18.6370  0.00  0.00     0.000 C
ATOM     64  O5  BGC C   5      16.731   9.444 -18.0420  0.00  0.00     0.000 O
ATOM     65   O  BGC C   5      18.711   7.450 -17.3980  0.00  0.00     0.000 O
ATOM     67  HD  BGC C   5      17.961   7.215 -17.7620  0.00  0.00     0.000 HD
ATOM     67   O  BGC C   5      18.711   7.450 -17.3980  0.00  0.00     0.000 O
ATOM     69  HD  BGC C   5      17.961   7.215 -17.7620  0.00  0.00     0.000 HD
ENDBRANCH 58 62
ENDBRANCH 45 58
ENDBRANCH 44 48
ENDBRANCH 31 44
ENDBRANCH 30 34
ENDBRANCH 17 30
ENDBRANCH 16 20
ENDBRANCH 1 16
TORSDOF 8
ENDMDL
MODEL 65
REMARK VINA RESULT:      -5.7     20.637     23.030
ROOT
ATOM      1  C1  BGC C   1       0.225 -18.375 -26.4760  0.00  0.00     0.000 C
ATOM      2  C2  BGC C   1      -0.549 -17.951 -25.2280  0.00  0.00     0.000 C
ATOM      3  C3  BGC C   1      -2.012 -17.710 -25.5790  0.00  0.00     0.000 C
ATOM      4  C4  BGC C   1      -2.172 -16.792 -26.7790  0.00  0.00     0.000 C
ATOM      5  C5  BGC C   1      -1.235 -17.224 -27.9030  0.00  0.00     0.000 C
ATOM      6  O5  BGC C   1       0.073 -17.454 -27.4870  0.00  0.00     0.000 O
ATOM      7   O  BGC C   1      -0.436 -18.992 -24.2870  0.00  0.00     0.000 O
ATOM      9  HD  BGC C   1      -0.659 -18.172 -24.1220  0.00  0.00     0.000 HD
ATOM      9   O  BGC C   1      -2.669 -17.190 -24.4150  0.00  0.00     0.000 O
ATOM     11  HD  BGC C   1      -2.892 -16.370 -24.2490  0.00  0.00     0.000 HD
ATOM     11   O  BGC C   1      -3.534 -16.879 -27.1860  0.00  0.00     0.000 O
ATOM     13  HD  BGC C   1      -3.757 -16.059 -27.0200  0.00  0.00     0.000 HD
ATOM     13   O  BGC C   1      -0.577 -14.907 -28.4820  0.00  0.00     0.000 O
ATOM     15  HD  BGC C   1      -0.800 -14.087 -28.3170  0.00  0.00     0.000 HD
ATOM     15   C  BGC C   1      -1.223 -16.115 -28.9710  0.00  0.00     0.000 C
ENDROOT
BRANCH 1 16
ATOM     16  O4  BGC C   2       1.597 -18.419 -26.1620  0.00  0.00     0.000 O
BRANCH 16 20
ATOM     17  C1  BGC C   2       4.866 -20.708 -27.0260  0.00  0.00     0.000 C
ATOM     18  C2  BGC C   2       4.287 -19.911 -28.1850  0.00  0.00     0.000 C
ATOM     19  C3  BGC C   2       3.331 -18.841 -27.6790  0.00  0.00     0.000 C
ATOM     20  C4  BGC C   2       2.325 -19.460 -26.7680  0.00  0.00     0.000 C
ATOM     21  C5  BGC C   2       3.005 -20.298 -25.6890  0.00  0.00     0.000 C
ATOM     22  O5  BGC C   2       3.837 -21.264 -26.2590  0.00  0.00     0.000 O
ATOM     23   O  BGC C   2       5.366 -19.314 -28.9200  0.00  0.00     0.000 O
ATOM     25  HD  BGC C   2       5.154 -18.508 -29.1560  0.00  0.00     0.000 HD
ATOM     25   O  BGC C   2       2.671 -18.242 -28.7880  0.00  0.00     0.000 O
ATOM     27  HD  BGC C   2       2.459 -17.436 -29.0240  0.00  0.00     0.000 HD
ATOM     27   C  BGC C   2       2.040 -20.996 -24.7090  0.00  0.00     0.000 C
ATOM     28   O  BGC C   2       1.069 -21.790 -25.4090  0.00  0.00     0.000 O
ATOM     30  HD  BGC C   2       0.857 -20.984 -25.6450  0.00  0.00     0.000 HD
BRANCH 17 30
ATOM     30  O4  BGC C   3       5.664 -21.756 -27.5340  0.00  0.00     0.000 O
BRANCH 30 34
ATOM     31  C1  BGC C   3       9.035 -23.840 -26.7400  0.00  0.00     0.000 C
ATOM     32  C2  BGC C   3       7.819 -24.163 -25.8390  0.00  0.00     0.000 C
ATOM     33  C3  BGC C   3       6.560 -23.618 -26.4190  0.00  0.00     0.000 C
ATOM     34  C4  BGC C   3       6.778 -22.138 -26.7410  0.00  0.00     0.000 C
ATOM     35  C5  BGC C   3       8.077 -21.856 -27.5390  0.00  0.00     0.000 C
ATOM     36  O5  BGC C   3       9.177 -22.450 -26.8960  0.00  0.00     0.000 O
ATOM     37   O  BGC C   3       7.560 -25.517 -25.5180  0.00  0.00     0.000 O
ATOM     39  HD  BGC C   3       7.219 -24.746 -25.7160  0.00  0.00     0.000 HD
ATOM     39   O  BGC C   3       5.456 -23.795 -25.4820  0.00  0.00     0.000 O
ATOM     41  HD  BGC C   3       5.115 -23.024 -25.6800  0.00  0.00     0.000 HD
ATOM     41   C  BGC C   3       8.422 -20.361 -27.7240  0.00  0.00     0.000 C
ATOM     42   O  BGC C   3       8.715 -19.627 -26.4810  0.00  0.00     0.000 O
ATOM     44  HD  BGC C   3       8.374 -18.856 -26.6790  0.00  0.00     0.000 HD
BRANCH 31 44
ATOM     44  O4  BGC C   4      10.206 -24.351 -26.1970  0.00  0.00     0.000 O
BRANCH 44 48
ATOM     45  C1  BGC C   4      13.683 -26.347 -27.0290  0.00  0.00     0.000 C
ATOM     46  C2  BGC C   4      13.694 -24.907 -27.6350  0.00  0.00     0.000 C
ATOM     47  C3  BGC C   4      12.480 -24.265 -26.9520  0.00  0.00     0.000 C
ATOM     48  C4  BGC C   4      11.152 -24.995 -26.9990  0.00  0.00     0.000 C
ATOM     49  C5  BGC C   4      11.398 -26.373 -26.3640  0.00  0.00     0.000 C
ATOM     50  O5  BGC C   4      12.426 -27.041 -27.0080  0.00  0.00     0.000 O
ATOM     51   O  BGC C   4      14.882 -23.941 -27.4760  0.00  0.00     0.000 O
ATOM     53  HD  BGC C   4      14.687 -23.148 -27.7660  0.00  0.00     0.000 HD
ATOM     53   O  BGC C   4      12.280 -23.076 -27.8510  0.00  0.00     0.000 O
ATOM     55  HD  BGC C   4      12.085 -22.283 -28.1410  0.00  0.00     0.000 HD
ATOM     55   C  BGC C   4      10.190 -27.263 -26.4980  0.00  0.00     0.000 C
ATOM     56   O  BGC C   4       9.715 -27.467 -27.8340  0.00  0.00     0.000 O
ATOM     58  HD  BGC C   4       9.521 -26.674 -28.1240  0.00  0.00     0.000 HD
BRANCH 45 58
ATOM     58  O4  BGC C   5      14.566 -27.204 -27.6890  0.00  0.00     0.000 O
BRANCH 58 62
ATOM     59  C1  BGC C   5      17.383 -26.700 -26.6100  0.00  0.00     0.000 C
ATOM     60  C2  BGC C   5      17.502 -27.765 -27.5820  0.00  0.00     0.000 C
ATOM     61  C3  BGC C   5      16.421 -28.835 -27.4550  0.00  0.00     0.000 C
ATOM     62  C4  BGC C   5      15.177 -28.208 -26.8420  0.00  0.00     0.000 C
ATOM     63  C5  BGC C   5      15.630 -27.359 -25.6770  0.00  0.00     0.000 C
ATOM     64  O5  BGC C   5      17.014 -27.030 -25.5770  0.00  0.00     0.000 O
ATOM     65   O  BGC C   5      15.792 -29.189 -24.1080  0.00  0.00     0.000 O
ATOM     67  HD  BGC C   5      15.303 -28.552 -24.4310  0.00  0.00     0.000 HD
ATOM     67   O  BGC C   5      15.792 -29.189 -24.1080  0.00  0.00     0.000 O
ATOM     69  HD  BGC C   5      15.303 -28.552 -24.4310  0.00  0.00     0.000 HD
ENDBRANCH 58 62
ENDBRANCH 45 58
ENDBRANCH 44 48
ENDBRANCH 31 44
ENDBRANCH 30 34
ENDBRANCH 17 30
ENDBRANCH 16 20
ENDBRANCH 1 16
TORSDOF 8
ENDMDL
MODEL 66
REMARK VINA RESULT:      -5.7     12.308     21.910
ROOT
ATOM      1  C1  BGC C   1       6.034 -25.112 -25.8280  0.00  0.00     0.000 C
ATOM      2  C2  BGC C   1       6.212 -26.538 -25.3090  0.00  0.00     0.000 C
ATOM      3  C3  BGC C   1       4.859 -27.234 -25.2220  0.00  0.00     0.000 C
ATOM      4  C4  BGC C   1       3.831 -26.401 -24.4750  0.00  0.00     0.000 C
ATOM      5  C5  BGC C   1       3.856 -24.959 -24.9750  0.00  0.00     0.000 C
ATOM      6  O5  BGC C   1       5.135 -24.414 -25.0550  0.00  0.00     0.000 O
ATOM      7   O  BGC C   1       7.053 -27.215 -26.2130  0.00  0.00     0.000 O
ATOM      9  HD  BGC C   1       6.881 -27.448 -25.3970  0.00  0.00     0.000 HD
ATOM      9   O  BGC C   1       5.058 -28.516 -24.6100  0.00  0.00     0.000 O
ATOM     11  HD  BGC C   1       4.886 -28.750 -23.7940  0.00  0.00     0.000 HD
ATOM     11   O  BGC C   1       2.563 -27.003 -24.7120  0.00  0.00     0.000 O
ATOM     13  HD  BGC C   1       2.391 -27.237 -23.8960  0.00  0.00     0.000 HD
ATOM     13   O  BGC C   1       3.650 -23.985 -22.7070  0.00  0.00     0.000 O
ATOM     15  HD  BGC C   1       3.478 -24.219 -21.8910  0.00  0.00     0.000 HD
ATOM     15   C  BGC C   1       3.016 -24.102 -24.0110  0.00  0.00     0.000 C
ENDROOT
BRANCH 1 16
ATOM     16  O4  BGC C   2       7.268 -24.440 -25.7320  0.00  0.00     0.000 O
BRANCH 16 20
ATOM     17  C1  BGC C   2       9.294 -21.499 -27.7110  0.00  0.00     0.000 C
ATOM     18  C2  BGC C   2       8.195 -21.031 -26.7710  0.00  0.00     0.000 C
ATOM     19  C3  BGC C   2       7.770 -22.154 -25.8360  0.00  0.00     0.000 C
ATOM     20  C4  BGC C   2       7.450 -23.374 -26.6330  0.00  0.00     0.000 C
ATOM     21  C5  BGC C   2       8.583 -23.712 -27.5970  0.00  0.00     0.000 C
ATOM     22  O5  BGC C   2       8.874 -22.626 -28.4250  0.00  0.00     0.000 O
ATOM     23   O  BGC C   2       8.675 -19.907 -26.0190  0.00  0.00     0.000 O
ATOM     25  HD  BGC C   2       8.411 -19.965 -25.1960  0.00  0.00     0.000 HD
ATOM     25   O  BGC C   2       6.623 -21.743 -25.1020  0.00  0.00     0.000 O
ATOM     27  HD  BGC C   2       6.358 -21.801 -24.2790  0.00  0.00     0.000 HD
ATOM     27   C  BGC C   2       8.331 -24.951 -28.4810  0.00  0.00     0.000 C
ATOM     28   O  BGC C   2       7.092 -24.836 -29.1990  0.00  0.00     0.000 O
ATOM     30  HD  BGC C   2       6.827 -24.894 -28.3760  0.00  0.00     0.000 HD
BRANCH 17 30
ATOM     30  O4  BGC C   3       9.590 -20.469 -28.6310  0.00  0.00     0.000 O
BRANCH 30 34
ATOM     31  C1  BGC C   3      13.079 -18.444 -28.8730  0.00  0.00     0.000 C
ATOM     32  C2  BGC C   3      12.399 -18.773 -30.2240  0.00  0.00     0.000 C
ATOM     33  C3  BGC C   3      10.985 -19.196 -30.0260  0.00  0.00     0.000 C
ATOM     34  C4  BGC C   3      10.958 -20.310 -28.9760  0.00  0.00     0.000 C
ATOM     35  C5  BGC C   3      11.760 -19.978 -27.6910  0.00  0.00     0.000 C
ATOM     36  O5  BGC C   3      13.061 -19.566 -28.0260  0.00  0.00     0.000 O
ATOM     37   O  BGC C   3      12.383 -17.776 -31.2280  0.00  0.00     0.000 O
ATOM     39  HD  BGC C   3      11.947 -18.418 -30.8440  0.00  0.00     0.000 HD
ATOM     39   O  BGC C   3      10.413 -19.649 -31.2880  0.00  0.00     0.000 O
ATOM     41  HD  BGC C   3       9.977 -20.291 -30.9040  0.00  0.00     0.000 HD
ATOM     41   C  BGC C   3      11.906 -21.146 -26.6890  0.00  0.00     0.000 C
ATOM     42   O  BGC C   3      12.671 -22.304 -27.1820  0.00  0.00     0.000 O
ATOM     44  HD  BGC C   3      12.235 -22.946 -26.7980  0.00  0.00     0.000 HD
BRANCH 31 44
ATOM     44  O4  BGC C   4      14.397 -18.048 -29.0630  0.00  0.00     0.000 O
BRANCH 44 48
ATOM     45  C1  BGC C   4      17.411 -15.694 -27.6030  0.00  0.00     0.000 C
ATOM     46  C2  BGC C   4      17.256 -17.003 -26.7660  0.00  0.00     0.000 C
ATOM     47  C3  BGC C   4      16.324 -17.839 -27.6530  0.00  0.00     0.000 C
ATOM     48  C4  BGC C   4      15.036 -17.209 -28.1460  0.00  0.00     0.000 C
ATOM     49  C5  BGC C   4      15.446 -15.947 -28.9210  0.00  0.00     0.000 C
ATOM     50  O5  BGC C   4      16.213 -15.106 -28.1320  0.00  0.00     0.000 O
ATOM     51   O  BGC C   4      18.449 -17.895 -26.3770  0.00  0.00     0.000 O
ATOM     53  HD  BGC C   4      18.187 -18.638 -26.0180  0.00  0.00     0.000 HD
ATOM     53   O  BGC C   4      15.874 -18.868 -26.6530  0.00  0.00     0.000 O
ATOM     55  HD  BGC C   4      15.611 -19.611 -26.2930  0.00  0.00     0.000 HD
ATOM     55   C  BGC C   4      14.243 -15.136 -29.3260  0.00  0.00     0.000 C
ATOM     56   O  BGC C   4      13.374 -14.741 -28.2590  0.00  0.00     0.000 O
ATOM     58  HD  BGC C   4      13.111 -15.484 -27.9000  0.00  0.00     0.000 HD
BRANCH 45 58
ATOM     58  O4  BGC C   5      18.033 -14.675 -26.8780  0.00  0.00     0.000 O
BRANCH 58 62
ATOM     59  C1  BGC C   5      17.257 -12.110 -25.4050  0.00  0.00     0.000 C
ATOM     60  C2  BGC C   5      18.606 -12.428 -24.9890  0.00  0.00     0.000 C
ATOM     61  C3  BGC C   5      18.811 -13.903 -24.6520  0.00  0.00     0.000 C
ATOM     62  C4  BGC C   5      17.814 -14.733 -25.4470  0.00  0.00     0.000 C
ATOM     63  C5  BGC C   5      16.472 -14.048 -25.3390  0.00  0.00     0.000 C
ATOM     64  O5  BGC C   5      16.436 -12.701 -24.8700  0.00  0.00     0.000 O
ATOM     65   O  BGC C   5      15.913 -14.978 -23.1800  0.00  0.00     0.000 O
ATOM     67  HD  BGC C   5      15.847 -15.052 -24.0410  0.00  0.00     0.000 HD
ATOM     67   O  BGC C   5      15.913 -14.978 -23.1800  0.00  0.00     0.000 O
ATOM     69  HD  BGC C   5      15.847 -15.052 -24.0410  0.00  0.00     0.000 HD
ENDBRANCH 58 62
ENDBRANCH 45 58
ENDBRANCH 44 48
ENDBRANCH 31 44
ENDBRANCH 30 34
ENDBRANCH 17 30
ENDBRANCH 16 20
ENDBRANCH 1 16
TORSDOF 8
ENDMDL
MODEL 67
REMARK VINA RESULT:      -5.6     15.472     24.399
ROOT
ATOM      1  C1  BGC C   1       4.670 -28.457 -25.2230  0.00  0.00     0.000 C
ATOM      2  C2  BGC C   1       4.700 -29.929 -25.6330  0.00  0.00     0.000 C
ATOM      3  C3  BGC C   1       3.330 -30.560 -25.4140  0.00  0.00     0.000 C
ATOM      4  C4  BGC C   1       2.789 -30.290 -24.0200  0.00  0.00     0.000 C
ATOM      5  C5  BGC C   1       2.957 -28.815 -23.6650  0.00  0.00     0.000 C
ATOM      6  O5  BGC C   1       4.229 -28.315 -23.9280  0.00  0.00     0.000 O
ATOM      7   O  BGC C   1       5.051 -29.982 -26.9960  0.00  0.00     0.000 O
ATOM      9  HD  BGC C   1       5.101 -30.633 -26.4270  0.00  0.00     0.000 HD
ATOM      9   O  BGC C   1       3.438 -31.964 -25.6850  0.00  0.00     0.000 O
ATOM     11  HD  BGC C   1       3.489 -32.615 -25.1160  0.00  0.00     0.000 HD
ATOM     11   O  BGC C   1       1.415 -30.661 -24.0330  0.00  0.00     0.000 O
ATOM     13  HD  BGC C   1       1.465 -31.312 -23.4640  0.00  0.00     0.000 HD
ATOM     13   O  BGC C   1       3.687 -29.277 -21.3430  0.00  0.00     0.000 O
ATOM     15  HD  BGC C   1       3.737 -29.928 -20.7740  0.00  0.00     0.000 HD
ATOM     15   C  BGC C   1       2.664 -28.648 -22.1630  0.00  0.00     0.000 C
ENDROOT
BRANCH 1 16
ATOM     16  O4  BGC C   2       5.983 -27.951 -25.2690  0.00  0.00     0.000 O
BRANCH 16 20
ATOM     17  C1  BGC C   2       7.894 -24.478 -26.2530  0.00  0.00     0.000 C
ATOM     18  C2  BGC C   2       6.947 -24.402 -25.0660  0.00  0.00     0.000 C
ATOM     19  C3  BGC C   2       6.586 -25.797 -24.5730  0.00  0.00     0.000 C
ATOM     20  C4  BGC C   2       6.105 -26.622 -25.7190  0.00  0.00     0.000 C
ATOM     21  C5  BGC C   2       7.089 -26.569 -26.8840  0.00  0.00     0.000 C
ATOM     22  O5  BGC C   2       7.329 -25.250 -27.2740  0.00  0.00     0.000 O
ATOM     23   O  BGC C   2       7.576 -23.648 -24.0190  0.00  0.00     0.000 O
ATOM     25  HD  BGC C   2       7.414 -24.013 -23.2510  0.00  0.00     0.000 HD
ATOM     25   O  BGC C   2       5.563 -25.695 -23.5900  0.00  0.00     0.000 O
ATOM     27  HD  BGC C   2       5.402 -26.060 -22.8220  0.00  0.00     0.000 HD
ATOM     27   C  BGC C   2       6.664 -27.380 -28.1260  0.00  0.00     0.000 C
ATOM     28   O  BGC C   2       5.352 -27.001 -28.5720  0.00  0.00     0.000 O
ATOM     30  HD  BGC C   2       5.190 -27.366 -27.8030  0.00  0.00     0.000 HD
BRANCH 17 30
ATOM     30  O4  BGC C   3       8.124 -23.177 -26.7490  0.00  0.00     0.000 O
BRANCH 30 34
ATOM     31  C1  BGC C   3      11.094 -21.059 -28.4890  0.00  0.00     0.000 C
ATOM     32  C2  BGC C   3      10.030 -21.637 -29.4520  0.00  0.00     0.000 C
ATOM     33  C3  BGC C   3       8.820 -22.088 -28.7090  0.00  0.00     0.000 C
ATOM     34  C4  BGC C   3       9.267 -23.013 -27.5740  0.00  0.00     0.000 C
ATOM     35  C5  BGC C   3      10.422 -22.436 -26.7160  0.00  0.00     0.000 C
ATOM     36  O5  BGC C   3      11.481 -22.026 -27.5440  0.00  0.00     0.000 O
ATOM     37   O  BGC C   3       9.570 -20.822 -30.5130  0.00  0.00     0.000 O
ATOM     39  HD  BGC C   3       9.359 -21.411 -29.9140  0.00  0.00     0.000 HD
ATOM     39   O  BGC C   3       7.900 -22.769 -29.6120  0.00  0.00     0.000 O
ATOM     41  HD  BGC C   3       7.689 -23.359 -29.0130  0.00  0.00     0.000 HD
ATOM     41   C  BGC C   3      11.020 -23.415 -25.6790  0.00  0.00     0.000 C
ATOM     42   O  BGC C   3      11.683 -24.601 -26.2460  0.00  0.00     0.000 O
ATOM     44  HD  BGC C   3      11.473 -25.190 -25.6470  0.00  0.00     0.000 HD
BRANCH 31 44
ATOM     44  O4  BGC C   4      12.220 -20.639 -29.1850  0.00  0.00     0.000 O
BRANCH 44 48
ATOM     45  C1  BGC C   4      15.185 -17.819 -29.3190  0.00  0.00     0.000 C
ATOM     46  C2  BGC C   4      15.139 -18.530 -27.9300  0.00  0.00     0.000 C
ATOM     47  C3  BGC C   4      14.205 -19.715 -28.2100  0.00  0.00     0.000 C
ATOM     48  C4  BGC C   4      12.863 -19.442 -28.8610  0.00  0.00     0.000 C
ATOM     49  C5  BGC C   4      13.169 -18.735 -30.1910  0.00  0.00     0.000 C
ATOM     50  O5  BGC C   4      13.932 -17.598 -29.9860  0.00  0.00     0.000 O
ATOM     51   O  BGC C   4      16.394 -19.083 -27.2300  0.00  0.00     0.000 O
ATOM     53  HD  BGC C   4      16.188 -19.548 -26.5290  0.00  0.00     0.000 HD
ATOM     53   O  BGC C   4      13.859 -20.107 -26.7990  0.00  0.00     0.000 O
ATOM     55  HD  BGC C   4      13.653 -20.572 -26.0980  0.00  0.00     0.000 HD
ATOM     55   C  BGC C   4      11.907 -18.260 -30.8630  0.00  0.00     0.000 C
ATOM     56   O  BGC C   4      11.076 -17.396 -30.0790  0.00  0.00     0.000 O
ATOM     58  HD  BGC C   4      10.869 -17.861 -29.3780  0.00  0.00     0.000 HD
BRANCH 45 58
ATOM     58  O4  BGC C   5      15.791 -16.562 -29.2490  0.00  0.00     0.000 O
BRANCH 58 62
ATOM     59  C1  BGC C   5      16.894 -13.717 -29.0420  0.00  0.00     0.000 C
ATOM     60  C2  BGC C   5      17.185 -14.361 -27.7790  0.00  0.00     0.000 C
ATOM     61  C3  BGC C   5      16.013 -15.160 -27.2140  0.00  0.00     0.000 C
ATOM     62  C4  BGC C   5      15.131 -15.623 -28.3650  0.00  0.00     0.000 C
ATOM     63  C5  BGC C   5      14.947 -14.444 -29.2920  0.00  0.00     0.000 C
ATOM     64  O5  BGC C   5      15.822 -13.327 -29.1470  0.00  0.00     0.000 O
ATOM     65   O  BGC C   5      13.174 -13.419 -28.0100  0.00  0.00     0.000 O
ATOM     67  HD  BGC C   5      13.385 -13.947 -28.6630  0.00  0.00     0.000 HD
ATOM     67   O  BGC C   5      13.174 -13.419 -28.0100  0.00  0.00     0.000 O
ATOM     69  HD  BGC C   5      13.385 -13.947 -28.6630  0.00  0.00     0.000 HD
ENDBRANCH 58 62
ENDBRANCH 45 58
ENDBRANCH 44 48
ENDBRANCH 31 44
ENDBRANCH 30 34
ENDBRANCH 17 30
ENDBRANCH 16 20
ENDBRANCH 1 16
TORSDOF 8
ENDMDL
MODEL 68
REMARK VINA RESULT:      -5.6     21.531     25.097
ROOT
ATOM      1  C1  BGC C   1      14.333 -26.721 -27.1510  0.00  0.00     0.000 C
ATOM      2  C2  BGC C   1      15.731 -26.237 -26.7680  0.00  0.00     0.000 C
ATOM      3  C3  BGC C   1      16.786 -27.140 -27.3950  0.00  0.00     0.000 C
ATOM      4  C4  BGC C   1      16.517 -28.612 -27.1260  0.00  0.00     0.000 C
ATOM      5  C5  BGC C   1      15.052 -28.938 -27.3960  0.00  0.00     0.000 C
ATOM      6  O5  BGC C   1      14.159 -28.043 -26.8130  0.00  0.00     0.000 O
ATOM      7   O  BGC C   1      15.869 -24.920 -27.2450  0.00  0.00     0.000 O
ATOM      9  HD  BGC C   1      16.351 -25.298 -26.6330  0.00  0.00     0.000 HD
ATOM      9   O  BGC C   1      18.070 -26.731 -26.9040  0.00  0.00     0.000 O
ATOM     11  HD  BGC C   1      18.553 -27.109 -26.2920  0.00  0.00     0.000 HD
ATOM     11   O  BGC C   1      17.375 -29.351 -27.9880  0.00  0.00     0.000 O
ATOM     13  HD  BGC C   1      17.857 -29.729 -27.3760  0.00  0.00     0.000 HD
ATOM     13   O  BGC C   1      14.821 -30.376 -25.3920  0.00  0.00     0.000 O
ATOM     15  HD  BGC C   1      15.303 -30.754 -24.7800  0.00  0.00     0.000 HD
ATOM     15   C  BGC C   1      14.765 -30.347 -26.8450  0.00  0.00     0.000 C
ENDROOT
BRANCH 1 16
ATOM     16  O4  BGC C   2      13.384 -25.980 -26.4200  0.00  0.00     0.000 O
BRANCH 16 20
ATOM     17  C1  BGC C   2       9.580 -24.571 -26.8860  0.00  0.00     0.000 C
ATOM     18  C2  BGC C   2       9.727 -26.084 -26.8360  0.00  0.00     0.000 C
ATOM     19  C3  BGC C   2      11.098 -26.475 -26.3030  0.00  0.00     0.000 C
ATOM     20  C4  BGC C   2      12.156 -25.759 -27.0720  0.00  0.00     0.000 C
ATOM     21  C5  BGC C   2      11.874 -24.260 -27.1270  0.00  0.00     0.000 C
ATOM     22  O5  BGC C   2      10.606 -24.010 -27.6540  0.00  0.00     0.000 O
ATOM     23   O  BGC C   2       8.691 -26.622 -26.0000  0.00  0.00     0.000 O
ATOM     25  HD  BGC C   2       9.008 -27.261 -25.5090  0.00  0.00     0.000 HD
ATOM     25   O  BGC C   2      11.269 -27.881 -26.4420  0.00  0.00     0.000 O
ATOM     27  HD  BGC C   2      11.586 -28.519 -25.9510  0.00  0.00     0.000 HD
ATOM     27   C  BGC C   2      12.909 -23.437 -27.9210  0.00  0.00     0.000 C
ATOM     28   O  BGC C   2      13.077 -23.955 -29.2510  0.00  0.00     0.000 O
ATOM     30  HD  BGC C   2      13.394 -24.593 -28.7590  0.00  0.00     0.000 HD
BRANCH 17 30
ATOM     30  O4  BGC C   3       8.343 -24.243 -27.4810  0.00  0.00     0.000 O
BRANCH 30 34
ATOM     31  C1  BGC C   3       5.271 -21.651 -27.0530  0.00  0.00     0.000 C
ATOM     32  C2  BGC C   3       6.441 -21.164 -27.9400  0.00  0.00     0.000 C
ATOM     33  C3  BGC C   3       7.338 -22.291 -28.3160  0.00  0.00     0.000 C
ATOM     34  C4  BGC C   3       7.734 -23.039 -27.0400  0.00  0.00     0.000 C
ATOM     35  C5  BGC C   3       6.534 -23.394 -26.1250  0.00  0.00     0.000 C
ATOM     36  O5  BGC C   3       5.759 -22.247 -25.8770  0.00  0.00     0.000 O
ATOM     37   O  BGC C   3       6.135 -20.478 -29.1400  0.00  0.00     0.000 O
ATOM     39  HD  BGC C   3       6.658 -21.047 -28.7490  0.00  0.00     0.000 HD
ATOM     39   O  BGC C   3       8.514 -21.788 -29.0170  0.00  0.00     0.000 O
ATOM     41  HD  BGC C   3       9.037 -22.358 -28.6260  0.00  0.00     0.000 HD
ATOM     41   C  BGC C   3       6.911 -23.984 -24.7470  0.00  0.00     0.000 C
ATOM     42   O  BGC C   3       7.656 -23.077 -23.8590  0.00  0.00     0.000 O
ATOM     44  HD  BGC C   3       8.179 -23.646 -23.4680  0.00  0.00     0.000 HD
BRANCH 31 44
ATOM     44  O4  BGC C   4       4.436 -20.597 -26.7060  0.00  0.00     0.000 O
BRANCH 44 48
ATOM     45  C1  BGC C   4       0.684 -19.641 -25.3760  0.00  0.00     0.000 C
ATOM     46  C2  BGC C   4       1.355 -20.715 -24.4620  0.00  0.00     0.000 C
ATOM     47  C3  BGC C   4       2.811 -20.681 -24.9470  0.00  0.00     0.000 C
ATOM     48  C4  BGC C   4       3.083 -20.809 -26.4330  0.00  0.00     0.000 C
ATOM     49  C5  BGC C   4       2.315 -19.662 -27.1090  0.00  0.00     0.000 C
ATOM     50  O5  BGC C   4       0.969 -19.704 -26.7820  0.00  0.00     0.000 O
ATOM     51   O  BGC C   4       1.375 -20.614 -22.9260  0.00  0.00     0.000 O
ATOM     53  HD  BGC C   4       1.883 -21.221 -22.5740  0.00  0.00     0.000 HD
ATOM     53   O  BGC C   4       3.304 -21.978 -24.3660  0.00  0.00     0.000 O
ATOM     55  HD  BGC C   4       3.812 -22.585 -24.0150  0.00  0.00     0.000 HD
ATOM     55   C  BGC C   4       2.369 -19.776 -28.6100  0.00  0.00     0.000 C
ATOM     56   O  BGC C   4       1.896 -21.012 -29.1560  0.00  0.00     0.000 O
ATOM     58  HD  BGC C   4       2.404 -21.619 -28.8050  0.00  0.00     0.000 HD
BRANCH 45 58
ATOM     58  O4  BGC C   5      -0.709 -19.664 -25.2810  0.00  0.00     0.000 O
BRANCH 58 62
ATOM     59  C1  BGC C   5      -2.267 -18.561 -22.8920  0.00  0.00     0.000 C
ATOM     60  C2  BGC C   5      -3.248 -18.890 -23.9030  0.00  0.00     0.000 C
ATOM     61  C3  BGC C   5      -2.861 -18.429 -25.3060  0.00  0.00     0.000 C
ATOM     62  C4  BGC C   5      -1.343 -18.367 -25.4030  0.00  0.00     0.000 C
ATOM     63  C5  BGC C   5      -0.841 -17.688 -24.1500  0.00  0.00     0.000 C
ATOM     64  O5  BGC C   5      -1.735 -17.559 -23.0460  0.00  0.00     0.000 O
ATOM     65   O  BGC C   5      -1.237 -15.437 -24.9340  0.00  0.00     0.000 O
ATOM     67  HD  BGC C   5      -0.672 -16.088 -24.8530  0.00  0.00     0.000 HD
ATOM     67   O  BGC C   5      -1.237 -15.437 -24.9340  0.00  0.00     0.000 O
ATOM     69  HD  BGC C   5      -0.672 -16.088 -24.8530  0.00  0.00     0.000 HD
ENDBRANCH 58 62
ENDBRANCH 45 58
ENDBRANCH 44 48
ENDBRANCH 31 44
ENDBRANCH 30 34
ENDBRANCH 17 30
ENDBRANCH 16 20
ENDBRANCH 1 16
TORSDOF 8
ENDMDL
MODEL 69
REMARK VINA RESULT:      -5.6     21.669     24.384
ROOT
ATOM      1  C1  BGC C   1       0.720 -19.374 -25.4560  0.00  0.00     0.000 C
ATOM      2  C2  BGC C   1      -0.253 -19.075 -24.3170  0.00  0.00     0.000 C
ATOM      3  C3  BGC C   1      -1.344 -18.126 -24.7990  0.00  0.00     0.000 C
ATOM      4  C4  BGC C   1      -0.775 -16.903 -25.4990  0.00  0.00     0.000 C
ATOM      5  C5  BGC C   1       0.297 -17.320 -26.5020  0.00  0.00     0.000 C
ATOM      6  O5  BGC C   1       1.233 -18.212 -25.9850  0.00  0.00     0.000 O
ATOM      7   O  BGC C   1      -0.816 -20.299 -23.9080  0.00  0.00     0.000 O
ATOM      9  HD  BGC C   1      -0.803 -19.562 -23.4540  0.00  0.00     0.000 HD
ATOM      9   O  BGC C   1      -2.155 -17.770 -23.6710  0.00  0.00     0.000 O
ATOM     11  HD  BGC C   1      -2.142 -17.033 -23.2170  0.00  0.00     0.000 HD
ATOM     11   O  BGC C   1      -1.863 -16.258 -26.1520  0.00  0.00     0.000 O
ATOM     13  HD  BGC C   1      -1.851 -15.521 -25.6970  0.00  0.00     0.000 HD
ATOM     13   O  BGC C   1       1.828 -15.467 -25.9000  0.00  0.00     0.000 O
ATOM     15  HD  BGC C   1       1.840 -14.729 -25.4460  0.00  0.00     0.000 HD
ATOM     15   C  BGC C   1       1.035 -16.052 -26.9700  0.00  0.00     0.000 C
ENDROOT
BRANCH 1 16
ATOM     16  O4  BGC C   2       1.807 -20.106 -24.9390  0.00  0.00     0.000 O
BRANCH 16 20
ATOM     17  C1  BGC C   2       4.622 -22.754 -26.2560  0.00  0.00     0.000 C
ATOM     18  C2  BGC C   2       4.703 -21.353 -26.8400  0.00  0.00     0.000 C
ATOM     19  C3  BGC C   2       3.864 -20.379 -26.0250  0.00  0.00     0.000 C
ATOM     20  C4  BGC C   2       2.484 -20.922 -25.8640  0.00  0.00     0.000 C
ATOM     21  C5  BGC C   2       2.516 -22.357 -25.3470  0.00  0.00     0.000 C
ATOM     22  O5  BGC C   2       3.288 -23.170 -26.1790  0.00  0.00     0.000 O
ATOM     23   O  BGC C   2       6.078 -20.937 -26.8580  0.00  0.00     0.000 O
ATOM     25  HD  BGC C   2       6.139 -20.105 -26.6270  0.00  0.00     0.000 HD
ATOM     25   O  BGC C   2       3.814 -19.127 -26.6990  0.00  0.00     0.000 O
ATOM     27  HD  BGC C   2       3.876 -18.295 -26.4680  0.00  0.00     0.000 HD
ATOM     27   C  BGC C   2       1.130 -23.010 -25.1680  0.00  0.00     0.000 C
ATOM     28   O  BGC C   2       0.361 -22.941 -26.3800  0.00  0.00     0.000 O
ATOM     30  HD  BGC C   2       0.423 -22.109 -26.1500  0.00  0.00     0.000 HD
BRANCH 17 30
ATOM     30  O4  BGC C   3       5.323 -23.649 -27.0930  0.00  0.00     0.000 O
BRANCH 30 34
ATOM     31  C1  BGC C   3       7.909 -26.752 -26.9410  0.00  0.00     0.000 C
ATOM     32  C2  BGC C   3       6.439 -27.085 -26.5900  0.00  0.00     0.000 C
ATOM     33  C3  BGC C   3       5.523 -25.987 -27.0060  0.00  0.00     0.000 C
ATOM     34  C4  BGC C   3       6.062 -24.670 -26.4410  0.00  0.00     0.000 C
ATOM     35  C5  BGC C   3       7.572 -24.444 -26.7130  0.00  0.00     0.000 C
ATOM     36  O5  BGC C   3       8.311 -25.566 -26.3010  0.00  0.00     0.000 O
ATOM     37   O  BGC C   3       5.883 -28.284 -27.0960  0.00  0.00     0.000 O
ATOM     39  HD  BGC C   3       5.746 -27.450 -26.9100  0.00  0.00     0.000 HD
ATOM     39   O  BGC C   3       4.171 -26.250 -26.5280  0.00  0.00     0.000 O
ATOM     41  HD  BGC C   3       4.034 -25.415 -26.3410  0.00  0.00     0.000 HD
ATOM     41   C  BGC C   3       8.190 -23.217 -26.0040  0.00  0.00     0.000 C
ATOM     42   O  BGC C   3       8.197 -23.282 -24.5320  0.00  0.00     0.000 O
ATOM     44  HD  BGC C   3       8.061 -22.448 -24.3460  0.00  0.00     0.000 HD
BRANCH 31 44
ATOM     44  O4  BGC C   4       8.758 -27.780 -26.5530  0.00  0.00     0.000 O
BRANCH 44 48
ATOM     45  C1  BGC C   4      12.022 -30.001 -27.6360  0.00  0.00     0.000 C
ATOM     46  C2  BGC C   4      12.392 -28.494 -27.4620  0.00  0.00     0.000 C
ATOM     47  C3  BGC C   4      11.140 -27.936 -26.7730  0.00  0.00     0.000 C
ATOM     48  C4  BGC C   4       9.785 -28.220 -27.3910  0.00  0.00     0.000 C
ATOM     49  C5  BGC C   4       9.662 -29.751 -27.4670  0.00  0.00     0.000 C
ATOM     50  O5  BGC C   4      10.722 -30.301 -28.1670  0.00  0.00     0.000 O
ATOM     51   O  BGC C   4      13.616 -28.019 -26.6570  0.00  0.00     0.000 O
ATOM     53  HD  BGC C   4      13.616 -27.159 -26.5580  0.00  0.00     0.000 HD
ATOM     53   O  BGC C   4      11.353 -26.466 -27.0070  0.00  0.00     0.000 O
ATOM     55  HD  BGC C   4      11.353 -25.605 -26.9070  0.00  0.00     0.000 HD
ATOM     55   C  BGC C   4       8.423 -30.165 -28.2170  0.00  0.00     0.000 C
ATOM     56   O  BGC C   4       8.298 -29.641 -29.5450  0.00  0.00     0.000 O
ATOM     58  HD  BGC C   4       8.298 -28.781 -29.4450  0.00  0.00     0.000 HD
BRANCH 45 58
ATOM     58  O4  BGC C   5      12.923 -30.673 -28.4650  0.00  0.00     0.000 O
BRANCH 58 62
ATOM     59  C1  BGC C   5      15.408 -31.260 -26.7810  0.00  0.00     0.000 C
ATOM     60  C2  BGC C   5      15.663 -31.814 -28.0930  0.00  0.00     0.000 C
ATOM     61  C3  BGC C   5      14.483 -32.592 -28.6700  0.00  0.00     0.000 C
ATOM     62  C4  BGC C   5      13.193 -32.043 -28.0770  0.00  0.00     0.000 C
ATOM     63  C5  BGC C   5      13.417 -31.877 -26.5920  0.00  0.00     0.000 C
ATOM     64  O5  BGC C   5      14.756 -31.912 -26.1020  0.00  0.00     0.000 O
ATOM     65   O  BGC C   5      12.988 -34.189 -26.0360  0.00  0.00     0.000 O
ATOM     67  HD  BGC C   5      12.664 -33.389 -26.1140  0.00  0.00     0.000 HD
ATOM     67   O  BGC C   5      12.988 -34.189 -26.0360  0.00  0.00     0.000 O
ATOM     69  HD  BGC C   5      12.664 -33.389 -26.1140  0.00  0.00     0.000 HD
ENDBRANCH 58 62
ENDBRANCH 45 58
ENDBRANCH 44 48
ENDBRANCH 31 44
ENDBRANCH 30 34
ENDBRANCH 17 30
ENDBRANCH 16 20
ENDBRANCH 1 16
TORSDOF 8
ENDMDL
MODEL 70
REMARK VINA RESULT:      -5.6     13.284     21.069
ROOT
ATOM      1  C1  BGC C   1      14.168 -23.171 -27.9710  0.00  0.00     0.000 C
ATOM      2  C2  BGC C   1      15.309 -23.990 -27.3690  0.00  0.00     0.000 C
ATOM      3  C3  BGC C   1      15.120 -25.467 -27.6950  0.00  0.00     0.000 C
ATOM      4  C4  BGC C   1      13.723 -25.957 -27.3520  0.00  0.00     0.000 C
ATOM      5  C5  BGC C   1      12.676 -24.976 -27.8710  0.00  0.00     0.000 C
ATOM      6  O5  BGC C   1      12.946 -23.647 -27.5550  0.00  0.00     0.000 O
ATOM      7   O  BGC C   1      16.511 -23.516 -27.9280  0.00  0.00     0.000 O
ATOM      9  HD  BGC C   1      16.430 -23.982 -27.2020  0.00  0.00     0.000 HD
ATOM      9   O  BGC C   1      16.134 -26.208 -27.0040  0.00  0.00     0.000 O
ATOM     11  HD  BGC C   1      16.053 -26.674 -26.2790  0.00  0.00     0.000 HD
ATOM     11   O  BGC C   1      13.574 -27.235 -27.9610  0.00  0.00     0.000 O
ATOM     13  HD  BGC C   1      13.493 -27.701 -27.2360  0.00  0.00     0.000 HD
ATOM     13   O  BGC C   1      11.281 -25.112 -25.8280  0.00  0.00     0.000 O
ATOM     15  HD  BGC C   1      11.201 -25.578 -25.1020  0.00  0.00     0.000 HD
ATOM     15   C  BGC C   1      11.315 -25.359 -27.2610  0.00  0.00     0.000 C
ENDROOT
BRANCH 1 16
ATOM     16  O4  BGC C   2      14.273 -21.845 -27.5080  0.00  0.00     0.000 O
BRANCH 16 20
ATOM     17  C1  BGC C   2      13.221 -18.098 -28.7430  0.00  0.00     0.000 C
ATOM     18  C2  BGC C   2      12.104 -18.938 -28.1450  0.00  0.00     0.000 C
ATOM     19  C3  BGC C   2      12.671 -20.139 -27.4020  0.00  0.00     0.000 C
ATOM     20  C4  BGC C   2      13.616 -20.876 -28.2900  0.00  0.00     0.000 C
ATOM     21  C5  BGC C   2      14.648 -19.930 -28.8980  0.00  0.00     0.000 C
ATOM     22  O5  BGC C   2      14.024 -18.883 -29.5780  0.00  0.00     0.000 O
ATOM     23   O  BGC C   2      11.331 -18.117 -27.2570  0.00  0.00     0.000 O
ATOM     25  HD  BGC C   2      11.120 -18.565 -26.5460  0.00  0.00     0.000 HD
ATOM     25   O  BGC C   2      11.604 -20.997 -27.0160  0.00  0.00     0.000 O
ATOM     27  HD  BGC C   2      11.392 -21.445 -26.3060  0.00  0.00     0.000 HD
ATOM     27   C  BGC C   2      15.659 -20.603 -29.8500  0.00  0.00     0.000 C
ATOM     28   O  BGC C   2      14.988 -21.334 -30.8890  0.00  0.00     0.000 O
ATOM     30  HD  BGC C   2      14.777 -21.782 -30.1790  0.00  0.00     0.000 HD
BRANCH 17 30
ATOM     30  O4  BGC C   3      12.659 -17.055 -29.5120  0.00  0.00     0.000 O
BRANCH 30 34
ATOM     31  C1  BGC C   3      13.851 -13.315 -30.4760  0.00  0.00     0.000 C
ATOM     32  C2  BGC C   3      13.636 -14.279 -31.6670  0.00  0.00     0.000 C
ATOM     33  C3  BGC C   3      12.879 -15.491 -31.2500  0.00  0.00     0.000 C
ATOM     34  C4  BGC C   3      13.568 -16.091 -30.0210  0.00  0.00     0.000 C
ATOM     35  C5  BGC C   3      13.873 -15.056 -28.9080  0.00  0.00     0.000 C
ATOM     36  O5  BGC C   3      14.562 -13.956 -29.4460  0.00  0.00     0.000 O
ATOM     37   O  BGC C   3      12.991 -13.783 -32.8260  0.00  0.00     0.000 O
ATOM     39  HD  BGC C   3      13.091 -14.455 -32.2900  0.00  0.00     0.000 HD
ATOM     39   O  BGC C   3      12.824 -16.453 -32.3440  0.00  0.00     0.000 O
ATOM     41  HD  BGC C   3      12.923 -17.126 -31.8080  0.00  0.00     0.000 HD
ATOM     41   C  BGC C   3      14.729 -15.588 -27.7350  0.00  0.00     0.000 C
ATOM     42   O  BGC C   3      16.097 -15.997 -28.0920  0.00  0.00     0.000 O
ATOM     44  HD  BGC C   3      16.197 -16.670 -27.5560  0.00  0.00     0.000 HD
BRANCH 31 44
ATOM     44  O4  BGC C   4      14.555 -12.185 -30.8700  0.00  0.00     0.000 O
BRANCH 44 48
ATOM     45  C1  BGC C   4      14.916  -8.136 -30.3880  0.00  0.00     0.000 C
ATOM     46  C2  BGC C   4      15.427  -8.907 -29.1290  0.00  0.00     0.000 C
ATOM     47  C3  BGC C   4      15.490 -10.350 -29.6440  0.00  0.00     0.000 C
ATOM     48  C4  BGC C   4      14.268 -10.931 -30.3270  0.00  0.00     0.000 C
ATOM     49  C5  BGC C   4      13.959 -10.002 -31.5130  0.00  0.00     0.000 C
ATOM     50  O5  BGC C   4      13.794  -8.693 -31.0890  0.00  0.00     0.000 O
ATOM     51   O  BGC C   4      16.771  -8.597 -28.4460  0.00  0.00     0.000 O
ATOM     53  HD  BGC C   4      16.961  -9.185 -27.8390  0.00  0.00     0.000 HD
ATOM     53   O  BGC C   4      15.567 -11.086 -28.3340  0.00  0.00     0.000 O
ATOM     55  HD  BGC C   4      15.757 -11.674 -27.7270  0.00  0.00     0.000 HD
ATOM     55   C  BGC C   4      12.661 -10.377 -32.1800  0.00  0.00     0.000 C
ATOM     56   O  BGC C   4      11.511 -10.409 -31.3270  0.00  0.00     0.000 O
ATOM     58  HD  BGC C   4      11.702 -10.997 -30.7200  0.00  0.00     0.000 HD
BRANCH 45 58
ATOM     58  O4  BGC C   5      14.548  -6.822 -30.0890  0.00  0.00     0.000 O
BRANCH 58 62
ATOM     59  C1  BGC C   5      13.286  -4.154 -29.2890  0.00  0.00     0.000 C
ATOM     60  C2  BGC C   5      14.641  -4.133 -28.7840  0.00  0.00     0.000 C
ATOM     61  C3  BGC C   5      15.061  -5.431 -28.1000  0.00  0.00     0.000 C
ATOM     62  C4  BGC C   5      14.259  -6.581 -28.6900  0.00  0.00     0.000 C
ATOM     63  C5  BGC C   5      12.819  -6.128 -28.7730  0.00  0.00     0.000 C
ATOM     64  O5  BGC C   5      12.540  -4.735 -28.6420  0.00  0.00     0.000 O
ATOM     65   O  BGC C   5      12.294  -6.609 -26.4650  0.00  0.00     0.000 O
ATOM     67  HD  BGC C   5      12.291  -6.892 -27.2830  0.00  0.00     0.000 HD
ATOM     67   O  BGC C   5      12.294  -6.609 -26.4650  0.00  0.00     0.000 O
ATOM     69  HD  BGC C   5      12.291  -6.892 -27.2830  0.00  0.00     0.000 HD
ENDBRANCH 58 62
ENDBRANCH 45 58
ENDBRANCH 44 48
ENDBRANCH 31 44
ENDBRANCH 30 34
ENDBRANCH 17 30
ENDBRANCH 16 20
ENDBRANCH 1 16
TORSDOF 8
ENDMDL
MODEL 71
REMARK VINA RESULT:      -5.5     12.688     18.919
ROOT
ATOM      1  C1  BGC C   1       6.275  -3.887 -28.3970  0.00  0.00     0.000 C
ATOM      2  C2  BGC C   1       5.252  -3.467 -29.4520  0.00  0.00     0.000 C
ATOM      3  C3  BGC C   1       3.905  -4.120 -29.1620  0.00  0.00     0.000 C
ATOM      4  C4  BGC C   1       4.028  -5.618 -28.9430  0.00  0.00     0.000 C
ATOM      5  C5  BGC C   1       5.182  -5.921 -27.9920  0.00  0.00     0.000 C
ATOM      6  O5  BGC C   1       6.363  -5.258 -28.3140  0.00  0.00     0.000 O
ATOM      7   O  BGC C   1       5.139  -2.065 -29.3960  0.00  0.00     0.000 O
ATOM      9  HD  BGC C   1       4.897  -2.575 -30.0530  0.00  0.00     0.000 HD
ATOM      9   O  BGC C   1       3.017  -3.806 -30.2430  0.00  0.00     0.000 O
ATOM     11  HD  BGC C   1       2.776  -4.315 -30.9000  0.00  0.00     0.000 HD
ATOM     11   O  BGC C   1       2.788  -6.057 -28.3990  0.00  0.00     0.000 O
ATOM     13  HD  BGC C   1       2.546  -6.567 -29.0560  0.00  0.00     0.000 HD
ATOM     13   O  BGC C   1       5.987  -7.860 -29.3080  0.00  0.00     0.000 O
ATOM     15  HD  BGC C   1       5.746  -8.369 -29.9650  0.00  0.00     0.000 HD
ATOM     15   C  BGC C   1       5.446  -7.438 -28.0250  0.00  0.00     0.000 C
ENDROOT
BRANCH 1 16
ATOM     16  O4  BGC C   2       7.543  -3.416 -28.7860  0.00  0.00     0.000 O
BRANCH 16 20
ATOM     17  C1  BGC C   2      10.783  -1.726 -26.9630  0.00  0.00     0.000 C
ATOM     18  C2  BGC C   2      10.804  -3.242 -27.0860  0.00  0.00     0.000 C
ATOM     19  C3  BGC C   2       9.756  -3.718 -28.0820  0.00  0.00     0.000 C
ATOM     20  C4  BGC C   2       8.432  -3.126 -27.7340  0.00  0.00     0.000 C
ATOM     21  C5  BGC C   2       8.536  -1.614 -27.5580  0.00  0.00     0.000 C
ATOM     22  O5  BGC C   2       9.503  -1.288 -26.6070  0.00  0.00     0.000 O
ATOM     23   O  BGC C   2      12.115  -3.655 -27.5010  0.00  0.00     0.000 O
ATOM     25  HD  BGC C   2      12.055  -4.293 -28.0830  0.00  0.00     0.000 HD
ATOM     25   O  BGC C   2       9.677  -5.137 -28.0350  0.00  0.00     0.000 O
ATOM     27  HD  BGC C   2       9.617  -5.775 -28.6170  0.00  0.00     0.000 HD
ATOM     27   C  BGC C   2       7.214  -0.916 -27.1770  0.00  0.00     0.000 C
ATOM     28   O  BGC C   2       6.632  -1.508 -26.0040  0.00  0.00     0.000 O
ATOM     30  HD  BGC C   2       6.572  -2.146 -26.5870  0.00  0.00     0.000 HD
BRANCH 17 30
ATOM     30  O4  BGC C   3      11.691  -1.328 -25.9580  0.00  0.00     0.000 O
BRANCH 30 34
ATOM     31  C1  BGC C   3      13.834   1.862 -24.7050  0.00  0.00     0.000 C
ATOM     32  C2  BGC C   3      12.302   1.964 -24.5090  0.00  0.00     0.000 C
ATOM     33  C3  BGC C   3      11.649   0.635 -24.6700  0.00  0.00     0.000 C
ATOM     34  C4  BGC C   3      12.114   0.027 -25.9960  0.00  0.00     0.000 C
ATOM     35  C5  BGC C   3      13.650   0.063 -26.1960  0.00  0.00     0.000 C
ATOM     36  O5  BGC C   3      14.135   1.366 -25.9860  0.00  0.00     0.000 O
ATOM     37   O  BGC C   3      11.815   2.507 -23.2960  0.00  0.00     0.000 O
ATOM     39  HD  BGC C   3      11.703   1.910 -23.9140  0.00  0.00     0.000 HD
ATOM     39   O  BGC C   3      10.199   0.780 -24.6370  0.00  0.00     0.000 O
ATOM     41  HD  BGC C   3      10.087   0.183 -25.2550  0.00  0.00     0.000 HD
ATOM     41   C  BGC C   3      14.140  -0.374 -27.5960  0.00  0.00     0.000 C
ATOM     42   O  BGC C   3      13.711   0.490 -28.7090  0.00  0.00     0.000 O
ATOM     44  HD  BGC C   3      13.600  -0.106 -29.3270  0.00  0.00     0.000 HD
BRANCH 31 44
ATOM     44  O4  BGC C   4      14.439   3.103 -24.5530  0.00  0.00     0.000 O
BRANCH 44 48
ATOM     45  C1  BGC C   4      17.706   5.027 -23.0100  0.00  0.00     0.000 C
ATOM     46  C2  BGC C   4      18.128   3.818 -23.9040  0.00  0.00     0.000 C
ATOM     47  C3  BGC C   4      16.808   3.462 -24.6010  0.00  0.00     0.000 C
ATOM     48  C4  BGC C   4      15.571   3.259 -23.7490  0.00  0.00     0.000 C
ATOM     49  C5  BGC C   4      15.373   4.564 -22.9630  0.00  0.00     0.000 C
ATOM     50  O5  BGC C   4      16.507   4.883 -22.2340  0.00  0.00     0.000 O
ATOM     51   O  BGC C   4      19.214   3.918 -24.9910  0.00  0.00     0.000 O
ATOM     53  HD  BGC C   4      19.248   3.200 -25.4730  0.00  0.00     0.000 HD
ATOM     53   O  BGC C   4      17.145   2.084 -25.1000  0.00  0.00     0.000 O
ATOM     55  HD  BGC C   4      17.179   1.366 -25.5830  0.00  0.00     0.000 HD
ATOM     55   C  BGC C   4      14.265   4.433 -21.9500  0.00  0.00     0.000 C
ATOM     56   O  BGC C   4      14.409   3.363 -21.0090  0.00  0.00     0.000 O
ATOM     58  HD  BGC C   4      14.443   2.645 -21.4920  0.00  0.00     0.000 HD
BRANCH 45 58
ATOM     58  O4  BGC C   5      18.700   5.375 -22.0910  0.00  0.00     0.000 O
BRANCH 58 62
ATOM     59  C1  BGC C   5      20.190   5.842 -19.4620  0.00  0.00     0.000 C
ATOM     60  C2  BGC C   5      21.200   5.570 -20.4610  0.00  0.00     0.000 C
ATOM     61  C3  BGC C   5      20.861   4.392 -21.3710  0.00  0.00     0.000 C
ATOM     62  C4  BGC C   5      19.348   4.249 -21.4490  0.00  0.00     0.000 C
ATOM     63  C5  BGC C   5      18.811   4.378 -20.0420  0.00  0.00     0.000 C
ATOM     64  O5  BGC C   5      19.670   4.913 -19.0370  0.00  0.00     0.000 O
ATOM     65   O  BGC C   5      19.251   2.086 -19.4180  0.00  0.00     0.000 O
ATOM     67  HD  BGC C   5      18.678   2.656 -19.7290  0.00  0.00     0.000 HD
ATOM     67   O  BGC C   5      19.251   2.086 -19.4180  0.00  0.00     0.000 O
ATOM     69  HD  BGC C   5      18.678   2.656 -19.7290  0.00  0.00     0.000 HD
ENDBRANCH 58 62
ENDBRANCH 45 58
ENDBRANCH 44 48
ENDBRANCH 31 44
ENDBRANCH 30 34
ENDBRANCH 17 30
ENDBRANCH 16 20
ENDBRANCH 1 16
TORSDOF 8
ENDMDL
MODEL 72
REMARK VINA RESULT:      -5.5      4.756      7.663
ROOT
ATOM      1  C1  BGC C   1      20.071   4.983 -12.3010  0.00  0.00     0.000 C
ATOM      2  C2  BGC C   1      21.175   5.480 -11.3680  0.00  0.00     0.000 C
ATOM      3  C3  BGC C   1      20.666   6.651 -10.5350  0.00  0.00     0.000 C
ATOM      4  C4  BGC C   1      20.013   7.724 -11.3910  0.00  0.00     0.000 C
ATOM      5  C5  BGC C   1      19.048   7.090 -12.3880  0.00  0.00     0.000 C
ATOM      6  O5  BGC C   1      19.586   6.008 -13.0800  0.00  0.00     0.000 O
ATOM      7   O  BGC C   1      21.537   4.407 -10.5320  0.00  0.00     0.000 O
ATOM      9  HD  BGC C   1      22.005   5.119 -10.6870  0.00  0.00     0.000 HD
ATOM      9   O  BGC C   1      21.766   7.167  -9.7740  0.00  0.00     0.000 O
ATOM     11  HD  BGC C   1      22.235   7.879  -9.9290  0.00  0.00     0.000 HD
ATOM     11   O  BGC C   1      19.329   8.600 -10.5020  0.00  0.00     0.000 O
ATOM     13  HD  BGC C   1      19.797   9.312 -10.6560  0.00  0.00     0.000 HD
ATOM     13   O  BGC C   1      19.747   8.554 -14.2610  0.00  0.00     0.000 O
ATOM     15  HD  BGC C   1      20.215   9.265 -14.4160  0.00  0.00     0.000 HD
ATOM     15   C  BGC C   1      18.635   8.168 -13.4070  0.00  0.00     0.000 C
ENDROOT
BRANCH 1 16
ATOM     16  O4  BGC C   2      20.619   4.025 -13.1760  0.00  0.00     0.000 O
BRANCH 16 20
ATOM     17  C1  BGC C   2      19.416   0.634 -15.1060  0.00  0.00     0.000 C
ATOM     18  C2  BGC C   2      19.008   1.948 -15.7540  0.00  0.00     0.000 C
ATOM     19  C3  BGC C   2      19.803   3.107 -15.1700  0.00  0.00     0.000 C
ATOM     20  C4  BGC C   2      19.711   3.076 -13.6810  0.00  0.00     0.000 C
ATOM     21  C5  BGC C   2      20.065   1.695 -13.1380  0.00  0.00     0.000 C
ATOM     22  O5  BGC C   2      19.262   0.711 -13.7170  0.00  0.00     0.000 O
ATOM     23   O  BGC C   2      19.225   1.853 -17.1700  0.00  0.00     0.000 O
ATOM     25  HD  BGC C   2      19.553   2.596 -17.4700  0.00  0.00     0.000 HD
ATOM     25   O  BGC C   2      19.271   4.332 -15.6600  0.00  0.00     0.000 O
ATOM     27  HD  BGC C   2      19.599   5.075 -15.9610  0.00  0.00     0.000 HD
ATOM     27   C  BGC C   2      19.979   1.562 -11.6040  0.00  0.00     0.000 C
ATOM     28   O  BGC C   2      18.688   1.965 -11.1190  0.00  0.00     0.000 O
ATOM     30  HD  BGC C   2      19.015   2.708 -11.4190  0.00  0.00     0.000 HD
BRANCH 17 30
ATOM     30  O4  BGC C   3      18.589  -0.402 -15.5930  0.00  0.00     0.000 O
BRANCH 30 34
ATOM     31  C1  BGC C   3      19.094  -4.027 -17.3080  0.00  0.00     0.000 C
ATOM     32  C2  BGC C   3      18.581  -4.041 -15.8480  0.00  0.00     0.000 C
ATOM     33  C3  BGC C   3      18.103  -2.693 -15.4320  0.00  0.00     0.000 C
ATOM     34  C4  BGC C   3      19.201  -1.674 -15.7440  0.00  0.00     0.000 C
ATOM     35  C5  BGC C   3      19.767  -1.786 -17.1830  0.00  0.00     0.000 C
ATOM     36  O5  BGC C   3      20.151  -3.111 -17.4500  0.00  0.00     0.000 O
ATOM     37   O  BGC C   3      17.556  -4.955 -15.5040  0.00  0.00     0.000 O
ATOM     39  HD  BGC C   3      17.879  -4.159 -15.3910  0.00  0.00     0.000 HD
ATOM     39   O  BGC C   3      17.773  -2.692 -14.0110  0.00  0.00     0.000 O
ATOM     41  HD  BGC C   3      18.096  -1.897 -13.8980  0.00  0.00     0.000 HD
ATOM     41   C  BGC C   3      20.998  -0.898 -17.4750  0.00  0.00     0.000 C
ATOM     42   O  BGC C   3      22.205  -1.222 -16.6940  0.00  0.00     0.000 O
ATOM     44  HD  BGC C   3      22.528  -0.426 -16.5810  0.00  0.00     0.000 HD
BRANCH 31 44
ATOM     44  O4  BGC C   4      19.537  -5.286 -17.6920  0.00  0.00     0.000 O
BRANCH 44 48
ATOM     45  C1  BGC C   4      20.124  -6.724 -21.4800  0.00  0.00     0.000 C
ATOM     46  C2  BGC C   4      19.342  -5.372 -21.4990  0.00  0.00     0.000 C
ATOM     47  C3  BGC C   4      19.513  -4.884 -20.0550  0.00  0.00     0.000 C
ATOM     48  C4  BGC C   4      19.171  -5.834 -18.9240  0.00  0.00     0.000 C
ATOM     49  C5  BGC C   4      20.051  -7.077 -19.1280  0.00  0.00     0.000 C
ATOM     50  O5  BGC C   4      19.862  -7.619 -20.3880  0.00  0.00     0.000 O
ATOM     51   O  BGC C   4      19.711  -4.204 -22.4310  0.00  0.00     0.000 O
ATOM     53  HD  BGC C   4      19.260  -3.490 -22.2400  0.00  0.00     0.000 HD
ATOM     53   O  BGC C   4      18.429  -3.843 -20.0060  0.00  0.00     0.000 O
ATOM     55  HD  BGC C   4      17.977  -3.130 -19.8140  0.00  0.00     0.000 HD
ATOM     55   C  BGC C   4      19.687  -8.172 -18.1580  0.00  0.00     0.000 C
ATOM     56   O  BGC C   4      18.317  -8.587 -18.1780  0.00  0.00     0.000 O
ATOM     58  HD  BGC C   4      17.865  -7.874 -17.9860  0.00  0.00     0.000 HD
BRANCH 45 58
ATOM     58  O4  BGC C   5      19.905  -7.477 -22.6350  0.00  0.00     0.000 O
BRANCH 58 62
ATOM     59  C1  BGC C   5      21.509  -9.901 -23.5870  0.00  0.00     0.000 C
ATOM     60  C2  BGC C   5      22.433  -9.060 -22.8590  0.00  0.00     0.000 C
ATOM     61  C3  BGC C   5      22.317  -7.578 -23.2060  0.00  0.00     0.000 C
ATOM     62  C4  BGC C   5      20.898  -7.291 -23.6740  0.00  0.00     0.000 C
ATOM     63  C5  BGC C   5      20.511  -8.390 -24.6360  0.00  0.00     0.000 C
ATOM     64  O5  BGC C   5      21.307  -9.573 -24.6650  0.00  0.00     0.000 O
ATOM     65   O  BGC C   5      21.612  -7.415 -26.5530  0.00  0.00     0.000 O
ATOM     67  HD  BGC C   5      20.876  -7.498 -26.1040  0.00  0.00     0.000 HD
ATOM     67   O  BGC C   5      21.612  -7.415 -26.5530  0.00  0.00     0.000 O
ATOM     69  HD  BGC C   5      20.876  -7.498 -26.1040  0.00  0.00     0.000 HD
ENDBRANCH 58 62
ENDBRANCH 45 58
ENDBRANCH 44 48
ENDBRANCH 31 44
ENDBRANCH 30 34
ENDBRANCH 17 30
ENDBRANCH 16 20
ENDBRANCH 1 16
TORSDOF 8
ENDMDL
MODEL 73
REMARK VINA RESULT:      -5.5     12.620     21.831
ROOT
ATOM      1  C1  BGC C   1       8.521 -24.898 -27.0170  0.00  0.00     0.000 C
ATOM      2  C2  BGC C   1       9.187 -26.270 -27.1190  0.00  0.00     0.000 C
ATOM      3  C3  BGC C   1       8.127 -27.366 -27.1210  0.00  0.00     0.000 C
ATOM      4  C4  BGC C   1       7.139 -27.213 -25.9770  0.00  0.00     0.000 C
ATOM      5  C5  BGC C   1       6.664 -25.766 -25.8800  0.00  0.00     0.000 C
ATOM      6  O5  BGC C   1       7.695 -24.832 -25.9180  0.00  0.00     0.000 O
ATOM      7   O  BGC C   1       9.920 -26.296 -28.3200  0.00  0.00     0.000 O
ATOM      9  HD  BGC C   1      10.025 -26.825 -27.6430  0.00  0.00     0.000 HD
ATOM      9   O  BGC C   1       8.798 -28.633 -27.0860  0.00  0.00     0.000 O
ATOM     11  HD  BGC C   1       8.903 -29.162 -26.4080  0.00  0.00     0.000 HD
ATOM     11   O  BGC C   1       6.053 -28.091 -26.2510  0.00  0.00     0.000 O
ATOM     13  HD  BGC C   1       6.158 -28.620 -25.5730  0.00  0.00     0.000 HD
ATOM     13   O  BGC C   1       6.788 -25.708 -23.4060  0.00  0.00     0.000 O
ATOM     15  HD  BGC C   1       6.893 -26.237 -22.7290  0.00  0.00     0.000 HD
ATOM     15   C  BGC C   1       5.900 -25.600 -24.5530  0.00  0.00     0.000 C
ENDROOT
BRANCH 1 16
ATOM     16  O4  BGC C   2       9.522 -23.924 -26.8400  0.00  0.00     0.000 O
BRANCH 16 20
ATOM     17  C1  BGC C   2      10.433 -20.187 -28.2100  0.00  0.00     0.000 C
ATOM     18  C2  BGC C   2       9.226 -20.282 -27.2910  0.00  0.00     0.000 C
ATOM     19  C3  BGC C   2       9.203 -21.620 -26.5660  0.00  0.00     0.000 C
ATOM     20  C4  BGC C   2       9.336 -22.727 -27.5570  0.00  0.00     0.000 C
ATOM     21  C5  BGC C   2      10.530 -22.497 -28.4780  0.00  0.00     0.000 C
ATOM     22  O5  BGC C   2      10.439 -21.257 -29.1120  0.00  0.00     0.000 O
ATOM     23   O  BGC C   2       9.276 -19.201 -26.3470  0.00  0.00     0.000 O
ATOM     25  HD  BGC C   2       9.036 -19.479 -25.5630  0.00  0.00     0.000 HD
ATOM     25   O  BGC C   2       7.974 -21.749 -25.8610  0.00  0.00     0.000 O
ATOM     27  HD  BGC C   2       7.734 -22.028 -25.0770  0.00  0.00     0.000 HD
ATOM     27   C  BGC C   2      10.736 -23.585 -29.5520  0.00  0.00     0.000 C
ATOM     28   O  BGC C   2       9.544 -23.781 -30.3310  0.00  0.00     0.000 O
ATOM     30  HD  BGC C   2       9.304 -24.059 -29.5470  0.00  0.00     0.000 HD
BRANCH 17 30
ATOM     30  O4  BGC C   3      10.367 -18.982 -28.9430  0.00  0.00     0.000 O
BRANCH 30 34
ATOM     31  C1  BGC C   3      13.385 -16.414 -29.7390  0.00  0.00     0.000 C
ATOM     32  C2  BGC C   3      12.421 -16.702 -30.9150  0.00  0.00     0.000 C
ATOM     33  C3  BGC C   3      11.174 -17.363 -30.4400  0.00  0.00     0.000 C
ATOM     34  C4  BGC C   3      11.564 -18.572 -29.5850  0.00  0.00     0.000 C
ATOM     35  C5  BGC C   3      12.627 -18.254 -28.5020  0.00  0.00     0.000 C
ATOM     36  O5  BGC C   3      13.732 -17.609 -29.0830  0.00  0.00     0.000 O
ATOM     37   O  BGC C   3      12.015 -15.620 -31.7320  0.00  0.00     0.000 O
ATOM     39  HD  BGC C   3      11.780 -16.360 -31.3480  0.00  0.00     0.000 HD
ATOM     39   O  BGC C   3      10.353 -17.765 -31.5760  0.00  0.00     0.000 O
ATOM     41  HD  BGC C   3      10.118 -18.505 -31.1920  0.00  0.00     0.000 HD
ATOM     41   C  BGC C   3      13.177 -19.484 -27.7430  0.00  0.00     0.000 C
ATOM     42   O  BGC C   3      13.926 -20.447 -28.5690  0.00  0.00     0.000 O
ATOM     44  HD  BGC C   3      13.691 -21.187 -28.1850  0.00  0.00     0.000 HD
BRANCH 31 44
ATOM     44  O4  BGC C   4      14.545 -15.796 -30.1860  0.00  0.00     0.000 O
BRANCH 44 48
ATOM     45  C1  BGC C   4      17.393 -12.999 -29.2780  0.00  0.00     0.000 C
ATOM     46  C2  BGC C   4      17.645 -14.337 -28.5120  0.00  0.00     0.000 C
ATOM     47  C3  BGC C   4      16.683 -15.297 -29.2230  0.00  0.00     0.000 C
ATOM     48  C4  BGC C   4      15.232 -14.884 -29.3820  0.00  0.00     0.000 C
ATOM     49  C5  BGC C   4      15.248 -13.551 -30.1460  0.00  0.00     0.000 C
ATOM     50  O5  BGC C   4      16.027 -12.611 -29.4920  0.00  0.00     0.000 O
ATOM     51   O  BGC C   4      19.023 -15.021 -28.4500  0.00  0.00     0.000 O
ATOM     53  HD  BGC C   4      18.971 -15.806 -28.0900  0.00  0.00     0.000 HD
ATOM     53   O  BGC C   4      16.642 -16.413 -28.2150  0.00  0.00     0.000 O
ATOM     55  HD  BGC C   4      16.591 -17.198 -27.8550  0.00  0.00     0.000 HD
ATOM     55   C  BGC C   4      13.869 -12.948 -30.2260  0.00  0.00     0.000 C
ATOM     56   O  BGC C   4      13.213 -12.735 -28.9700  0.00  0.00     0.000 O
ATOM     58  HD  BGC C   4      13.161 -13.521 -28.6100  0.00  0.00     0.000 HD
BRANCH 45 58
ATOM     58  O4  BGC C   5      17.991 -11.908 -28.6440  0.00  0.00     0.000 O
BRANCH 58 62
ATOM     59  C1  BGC C   5      19.235  -9.990 -26.6120  0.00  0.00     0.000 C
ATOM     60  C2  BGC C   5      18.709 -11.105 -25.8540  0.00  0.00     0.000 C
ATOM     61  C3  BGC C   5      17.311 -11.536 -26.2870  0.00  0.00     0.000 C
ATOM     62  C4  BGC C   5      17.115 -11.174 -27.7520  0.00  0.00     0.000 C
ATOM     63  C5  BGC C   5      17.633  -9.768 -27.9400  0.00  0.00     0.000 C
ATOM     64  O5  BGC C   5      18.457  -9.208 -26.9190  0.00  0.00     0.000 O
ATOM     65   O  BGC C   5      15.632  -8.677 -27.1410  0.00  0.00     0.000 O
ATOM     67  HD  BGC C   5      16.073  -8.971 -27.8250  0.00  0.00     0.000 HD
ATOM     67   O  BGC C   5      15.632  -8.677 -27.1410  0.00  0.00     0.000 O
ATOM     69  HD  BGC C   5      16.073  -8.971 -27.8250  0.00  0.00     0.000 HD
ENDBRANCH 58 62
ENDBRANCH 45 58
ENDBRANCH 44 48
ENDBRANCH 31 44
ENDBRANCH 30 34
ENDBRANCH 17 30
ENDBRANCH 16 20
ENDBRANCH 1 16
TORSDOF 8
ENDMDL
MODEL 74
REMARK VINA RESULT:      -5.4     20.265     22.479
ROOT
ATOM      1  C1  BGC C   1      -0.865 -11.419 -29.7060  0.00  0.00     0.000 C
ATOM      2  C2  BGC C   1      -1.640 -11.044 -30.9680  0.00  0.00     0.000 C
ATOM      3  C3  BGC C   1      -2.152  -9.612 -30.8620  0.00  0.00     0.000 C
ATOM      4  C4  BGC C   1      -2.886  -9.360 -29.5560  0.00  0.00     0.000 C
ATOM      5  C5  BGC C   1      -2.084  -9.917 -28.3830  0.00  0.00     0.000 C
ATOM      6  O5  BGC C   1      -1.630 -11.218 -28.5800  0.00  0.00     0.000 O
ATOM      7   O  BGC C   1      -0.759 -11.169 -32.0590  0.00  0.00     0.000 O
ATOM      9  HD  BGC C   1      -1.624 -11.149 -32.0970  0.00  0.00     0.000 HD
ATOM      9   O  BGC C   1      -2.979  -9.350 -32.0030  0.00  0.00     0.000 O
ATOM     11  HD  BGC C   1      -3.844  -9.330 -32.0410  0.00  0.00     0.000 HD
ATOM     11   O  BGC C   1      -3.050  -7.951 -29.4410  0.00  0.00     0.000 O
ATOM     13  HD  BGC C   1      -3.915  -7.931 -29.4790  0.00  0.00     0.000 HD
ATOM     13   O  BGC C   1      -4.074 -10.853 -27.2410  0.00  0.00     0.000 O
ATOM     15  HD  BGC C   1      -4.939 -10.833 -27.2790  0.00  0.00     0.000 HD
ATOM     15   C  BGC C   1      -2.984  -9.895 -27.1330  0.00  0.00     0.000 C
ENDROOT
BRANCH 1 16
ATOM     16  O4  BGC C   2      -0.559 -12.792 -29.7560  0.00  0.00     0.000 O
BRANCH 16 20
ATOM     17  C1  BGC C   2       2.522 -15.282 -28.7640  0.00  0.00     0.000 C
ATOM     18  C2  BGC C   2       1.812 -14.607 -27.6010  0.00  0.00     0.000 C
ATOM     19  C3  BGC C   2       0.485 -14.012 -28.0510  0.00  0.00     0.000 C
ATOM     20  C4  BGC C   2       0.704 -13.151 -29.2490  0.00  0.00     0.000 C
ATOM     21  C5  BGC C   2       1.490 -13.896 -30.3240  0.00  0.00     0.000 C
ATOM     22  O5  BGC C   2       2.698 -14.376 -29.8150  0.00  0.00     0.000 O
ATOM     23   O  BGC C   2       1.601 -15.574 -26.5620  0.00  0.00     0.000 O
ATOM     25  HD  BGC C   2       0.817 -15.467 -26.2100  0.00  0.00     0.000 HD
ATOM     25   O  BGC C   2      -0.061 -13.234 -26.9920  0.00  0.00     0.000 O
ATOM     27  HD  BGC C   2      -0.845 -13.127 -26.6410  0.00  0.00     0.000 HD
ATOM     27   C  BGC C   2       1.782 -13.076 -31.5970  0.00  0.00     0.000 C
ATOM     28   O  BGC C   2       2.438 -11.837 -31.2790  0.00  0.00     0.000 O
ATOM     30  HD  BGC C   2       1.653 -11.730 -30.9270  0.00  0.00     0.000 HD
BRANCH 17 30
ATOM     30  O4  BGC C   3       3.791 -15.729 -28.3380  0.00  0.00     0.000 O
BRANCH 30 34
ATOM     31  C1  BGC C   3       6.165 -18.973 -28.7610  0.00  0.00     0.000 C
ATOM     32  C2  BGC C   3       6.514 -17.765 -29.6620  0.00  0.00     0.000 C
ATOM     33  C3  BGC C   3       5.825 -16.529 -29.1970  0.00  0.00     0.000 C
ATOM     34  C4  BGC C   3       4.334 -16.837 -29.0400  0.00  0.00     0.000 C
ATOM     35  C5  BGC C   3       4.044 -18.129 -28.2330  0.00  0.00     0.000 C
ATOM     36  O5  BGC C   3       4.778 -19.205 -28.7620  0.00  0.00     0.000 O
ATOM     37   O  BGC C   3       7.877 -17.425 -29.8330  0.00  0.00     0.000 O
ATOM     39  HD  BGC C   3       7.068 -17.130 -29.7390  0.00  0.00     0.000 HD
ATOM     39   O  BGC C   3       6.041 -15.444 -30.1460  0.00  0.00     0.000 O
ATOM     41  HD  BGC C   3       5.232 -15.149 -30.0510  0.00  0.00     0.000 HD
ATOM     41   C  BGC C   3       2.562 -18.569 -28.2100  0.00  0.00     0.000 C
ATOM     42   O  BGC C   3       2.000 -18.947 -29.5180  0.00  0.00     0.000 O
ATOM     44  HD  BGC C   3       1.191 -18.653 -29.4230  0.00  0.00     0.000 HD
BRANCH 31 44
ATOM     44  O4  BGC C   4       6.811 -20.123 -29.1980  0.00  0.00     0.000 O
BRANCH 44 48
ATOM     45  C1  BGC C   4       8.915 -23.402 -27.9420  0.00  0.00     0.000 C
ATOM     46  C2  BGC C   4       7.380 -23.690 -27.9780  0.00  0.00     0.000 C
ATOM     47  C3  BGC C   4       6.846 -22.477 -28.7510  0.00  0.00     0.000 C
ATOM     48  C4  BGC C   4       7.251 -21.090 -28.2920  0.00  0.00     0.000 C
ATOM     49  C5  BGC C   4       8.788 -21.058 -28.3310  0.00  0.00     0.000 C
ATOM     50  O5  BGC C   4       9.326 -22.079 -27.5660  0.00  0.00     0.000 O
ATOM     51   O  BGC C   4       6.779 -24.953 -28.6220  0.00  0.00     0.000 O
ATOM     53  HD  BGC C   4       5.915 -24.908 -28.6640  0.00  0.00     0.000 HD
ATOM     53   O  BGC C   4       5.387 -22.572 -28.4000  0.00  0.00     0.000 O
ATOM     55  HD  BGC C   4       4.523 -22.527 -28.4410  0.00  0.00     0.000 HD
ATOM     55   C  BGC C   4       9.325 -19.782 -27.7380  0.00  0.00     0.000 C
ATOM     56   O  BGC C   4       8.907 -19.496 -26.3980  0.00  0.00     0.000 O
ATOM     58  HD  BGC C   4       8.043 -19.451 -26.4400  0.00  0.00     0.000 HD
BRANCH 45 58
ATOM     58  O4  BGC C   5       9.592 -24.261 -27.0730  0.00  0.00     0.000 O
BRANCH 58 62
ATOM     59  C1  BGC C   5      10.231 -27.155 -27.8260  0.00  0.00     0.000 C
ATOM     60  C2  BGC C   5      10.910 -26.899 -26.5750  0.00  0.00     0.000 C
ATOM     61  C3  BGC C   5      11.638 -25.558 -26.5350  0.00  0.00     0.000 C
ATOM     62  C4  BGC C   5      10.942 -24.591 -27.4830  0.00  0.00     0.000 C
ATOM     63  C5  BGC C   5      10.672 -25.339 -28.7680  0.00  0.00     0.000 C
ATOM     64  O5  BGC C   5      10.771 -26.762 -28.7560  0.00  0.00     0.000 O
ATOM     65   O  BGC C   5      12.889 -25.036 -29.6800  0.00  0.00     0.000 O
ATOM     67  HD  BGC C   5      12.076 -24.741 -29.6370  0.00  0.00     0.000 HD
ATOM     67   O  BGC C   5      12.889 -25.036 -29.6800  0.00  0.00     0.000 O
ATOM     69  HD  BGC C   5      12.076 -24.741 -29.6370  0.00  0.00     0.000 HD
ENDBRANCH 58 62
ENDBRANCH 45 58
ENDBRANCH 44 48
ENDBRANCH 31 44
ENDBRANCH 30 34
ENDBRANCH 17 30
ENDBRANCH 16 20
ENDBRANCH 1 16
TORSDOF 8
ENDMDL
MODEL 75
REMARK VINA RESULT:      -5.4     21.558     26.635
ROOT
ATOM      1  C1  BGC C   1      12.975 -30.421 -27.2050  0.00  0.00     0.000 C
ATOM      2  C2  BGC C   1      14.083 -30.705 -26.1910  0.00  0.00     0.000 C
ATOM      3  C3  BGC C   1      15.093 -31.682 -26.7810  0.00  0.00     0.000 C
ATOM      4  C4  BGC C   1      14.425 -32.915 -27.3670  0.00  0.00     0.000 C
ATOM      5  C5  BGC C   1      13.238 -32.510 -28.2360  0.00  0.00     0.000 C
ATOM      6  O5  BGC C   1      12.386 -31.590 -27.6310  0.00  0.00     0.000 O
ATOM      7   O  BGC C   1      14.706 -29.478 -25.8920  0.00  0.00     0.000 O
ATOM      9  HD  BGC C   1      14.744 -30.202 -25.4190  0.00  0.00     0.000 HD
ATOM      9   O  BGC C   1      16.037 -32.019 -25.7560  0.00  0.00     0.000 O
ATOM     11  HD  BGC C   1      16.075 -32.743 -25.2820  0.00  0.00     0.000 HD
ATOM     11   O  BGC C   1      15.414 -33.592 -28.1350  0.00  0.00     0.000 O
ATOM     13  HD  BGC C   1      15.452 -34.317 -27.6610  0.00  0.00     0.000 HD
ATOM     13   O  BGC C   1      11.777 -34.324 -27.3920  0.00  0.00     0.000 O
ATOM     15  HD  BGC C   1      11.815 -35.048 -26.9180  0.00  0.00     0.000 HD
ATOM     15   C  BGC C   1      12.433 -33.779 -28.5700  0.00  0.00     0.000 C
ENDROOT
BRANCH 1 16
ATOM     16  O4  BGC C   2      11.971 -29.661 -26.5740  0.00  0.00     0.000 O
BRANCH 16 20
ATOM     17  C1  BGC C   2       9.260 -26.776 -27.5730  0.00  0.00     0.000 C
ATOM     18  C2  BGC C   2       8.888 -28.199 -27.9570  0.00  0.00     0.000 C
ATOM     19  C3  BGC C   2       9.769 -29.203 -27.2280  0.00  0.00     0.000 C
ATOM     20  C4  BGC C   2      11.204 -28.845 -27.4260  0.00  0.00     0.000 C
ATOM     21  C5  BGC C   2      11.455 -27.379 -27.0860  0.00  0.00     0.000 C
ATOM     22  O5  BGC C   2      10.616 -26.545 -27.8270  0.00  0.00     0.000 O
ATOM     23   O  BGC C   2       7.506 -28.419 -27.6370  0.00  0.00     0.000 O
ATOM     25  HD  BGC C   2       7.401 -29.211 -27.3020  0.00  0.00     0.000 HD
ATOM     25   O  BGC C   2       9.522 -30.505 -27.7450  0.00  0.00     0.000 O
ATOM     27  HD  BGC C   2       9.417 -31.297 -27.4100  0.00  0.00     0.000 HD
ATOM     27   C  BGC C   2      12.912 -26.911 -27.2810  0.00  0.00     0.000 C
ATOM     28   O  BGC C   2      13.377 -27.194 -28.6110  0.00  0.00     0.000 O
ATOM     30  HD  BGC C   2      13.272 -27.986 -28.2760  0.00  0.00     0.000 HD
BRANCH 17 30
ATOM     30  O4  BGC C   3       8.498 -25.871 -28.3430  0.00  0.00     0.000 O
BRANCH 30 34
ATOM     31  C1  BGC C   3       6.602 -22.318 -27.9940  0.00  0.00     0.000 C
ATOM     32  C2  BGC C   3       8.088 -22.247 -28.4200  0.00  0.00     0.000 C
ATOM     33  C3  BGC C   3       8.589 -23.581 -28.8530  0.00  0.00     0.000 C
ATOM     34  C4  BGC C   3       8.256 -24.599 -27.7600  0.00  0.00     0.000 C
ATOM     35  C5  BGC C   3       6.782 -24.543 -27.2810  0.00  0.00     0.000 C
ATOM     36  O5  BGC C   3       6.437 -23.226 -26.9330  0.00  0.00     0.000 O
ATOM     37   O  BGC C   3       8.453 -21.332 -29.4360  0.00  0.00     0.000 O
ATOM     39  HD  BGC C   3       8.581 -22.117 -29.0950  0.00  0.00     0.000 HD
ATOM     39   O  BGC C   3      10.025 -23.524 -29.0990  0.00  0.00     0.000 O
ATOM     41  HD  BGC C   3      10.153 -24.310 -28.7580  0.00  0.00     0.000 HD
ATOM     41   C  BGC C   3       6.457 -25.428 -26.0560  0.00  0.00     0.000 C
ATOM     42   O  BGC C   3       7.150 -25.056 -24.8110  0.00  0.00     0.000 O
ATOM     44  HD  BGC C   3       7.277 -25.842 -24.4710  0.00  0.00     0.000 HD
BRANCH 31 44
ATOM     44  O4  BGC C   4       6.139 -21.072 -27.5920  0.00  0.00     0.000 O
BRANCH 44 48
ATOM     45  C1  BGC C   4       2.973 -18.480 -27.7310  0.00  0.00     0.000 C
ATOM     46  C2  BGC C   4       2.649 -19.728 -26.8490  0.00  0.00     0.000 C
ATOM     47  C3  BGC C   4       4.032 -20.373 -26.6890  0.00  0.00     0.000 C
ATOM     48  C4  BGC C   4       4.857 -20.635 -27.9340  0.00  0.00     0.000 C
ATOM     49  C5  BGC C   4       5.029 -19.275 -28.6290  0.00  0.00     0.000 C
ATOM     50  O5  BGC C   4       3.800 -18.689 -28.8860  0.00  0.00     0.000 O
ATOM     51   O  BGC C   4       2.021 -19.622 -25.4470  0.00  0.00     0.000 O
ATOM     53  HD  BGC C   4       2.013 -20.388 -25.0440  0.00  0.00     0.000 HD
ATOM     53   O  BGC C   4       3.623 -21.742 -26.2200  0.00  0.00     0.000 O
ATOM     55  HD  BGC C   4       3.615 -22.508 -25.8170  0.00  0.00     0.000 HD
ATOM     55   C  BGC C   4       5.695 -19.425 -29.9720  0.00  0.00     0.000 C
ATOM     56   O  BGC C   4       5.048 -20.316 -30.8880  0.00  0.00     0.000 O
ATOM     58  HD  BGC C   4       5.040 -21.082 -30.4850  0.00  0.00     0.000 HD
BRANCH 45 58
ATOM     58  O4  BGC C   5       1.818 -17.860 -28.2130  0.00  0.00     0.000 O
BRANCH 58 62
ATOM     59  C1  BGC C   5      -0.308 -16.614 -26.4010  0.00  0.00     0.000 C
ATOM     60  C2  BGC C   5      -0.660 -16.249 -27.7560  0.00  0.00     0.000 C
ATOM     61  C3  BGC C   5       0.526 -15.776 -28.5920  0.00  0.00     0.000 C
ATOM     62  C4  BGC C   5       1.796 -16.420 -28.0540  0.00  0.00     0.000 C
ATOM     63  C5  BGC C   5       1.756 -16.302 -26.5480  0.00  0.00     0.000 C
ATOM     64  O5  BGC C   5       0.514 -15.973 -25.9280  0.00  0.00     0.000 O
ATOM     65   O  BGC C   5       2.573 -14.030 -26.4740  0.00  0.00     0.000 O
ATOM     67  HD  BGC C   5       2.769 -14.873 -26.4400  0.00  0.00     0.000 HD
ATOM     67   O  BGC C   5       2.573 -14.030 -26.4740  0.00  0.00     0.000 O
ATOM     69  HD  BGC C   5       2.769 -14.873 -26.4400  0.00  0.00     0.000 HD
ENDBRANCH 58 62
ENDBRANCH 45 58
ENDBRANCH 44 48
ENDBRANCH 31 44
ENDBRANCH 30 34
ENDBRANCH 17 30
ENDBRANCH 16 20
ENDBRANCH 1 16
TORSDOF 8
ENDMDL
MODEL 76
REMARK VINA RESULT:      -5.4     10.272     15.772
ROOT
ATOM      1  C1  BGC C   1      18.987 -10.307 -26.6690  0.00  0.00     0.000 C
ATOM      2  C2  BGC C   1      18.625  -8.843 -26.9160  0.00  0.00     0.000 C
ATOM      3  C3  BGC C   1      19.826  -7.952 -26.6250  0.00  0.00     0.000 C
ATOM      4  C4  BGC C   1      20.442  -8.243 -25.2660  0.00  0.00     0.000 C
ATOM      5  C5  BGC C   1      20.611  -9.747 -25.0740  0.00  0.00     0.000 C
ATOM      6  O5  BGC C   1      19.475 -10.486 -25.3950  0.00  0.00     0.000 O
ATOM      7   O  BGC C   1      18.244  -8.724 -28.2660  0.00  0.00     0.000 O
ATOM      9  HD  BGC C   1      18.063  -8.165 -27.6300  0.00  0.00     0.000 HD
ATOM      9   O  BGC C   1      19.406  -6.586 -26.7420  0.00  0.00     0.000 O
ATOM     11  HD  BGC C   1      19.225  -6.027 -26.1060  0.00  0.00     0.000 HD
ATOM     11   O  BGC C   1      21.700  -7.578 -25.2330  0.00  0.00     0.000 O
ATOM     13  HD  BGC C   1      21.519  -7.019 -24.5970  0.00  0.00     0.000 HD
ATOM     13   O  BGC C   1      19.843  -9.709 -22.7190  0.00  0.00     0.000 O
ATOM     15  HD  BGC C   1      19.663  -9.150 -22.0830  0.00  0.00     0.000 HD
ATOM     15   C  BGC C   1      20.964 -10.006 -23.5980  0.00  0.00     0.000 C
ENDROOT
BRANCH 1 16
ATOM     16  O4  BGC C   2      17.817 -11.084 -26.7740  0.00  0.00     0.000 O
BRANCH 16 20
ATOM     17  C1  BGC C   2      16.765 -14.859 -27.9210  0.00  0.00     0.000 C
ATOM     18  C2  BGC C   2      17.368 -14.731 -26.5310  0.00  0.00     0.000 C
ATOM     19  C3  BGC C   2      17.377 -13.277 -26.0790  0.00  0.00     0.000 C
ATOM     20  C4  BGC C   2      18.015 -12.431 -27.1300  0.00  0.00     0.000 C
ATOM     21  C5  BGC C   2      17.390 -12.692 -28.4970  0.00  0.00     0.000 C
ATOM     22  O5  BGC C   2      17.457 -14.047 -28.8260  0.00  0.00     0.000 O
ATOM     23   O  BGC C   2      16.605 -15.535 -25.6190  0.00  0.00     0.000 O
ATOM     25  HD  BGC C   2      16.504 -15.116 -24.8670  0.00  0.00     0.000 HD
ATOM     25   O  BGC C   2      18.110 -13.170 -24.8650  0.00  0.00     0.000 O
ATOM     27  HD  BGC C   2      18.009 -12.752 -24.1130  0.00  0.00     0.000 HD
ATOM     27   C  BGC C   2      18.000 -11.874 -29.6540  0.00  0.00     0.000 C
ATOM     28   O  BGC C   2      19.424 -12.052 -29.7220  0.00  0.00     0.000 O
ATOM     30  HD  BGC C   2      19.323 -11.633 -28.9700  0.00  0.00     0.000 HD
BRANCH 17 30
ATOM     30  O4  BGC C   3      16.867 -16.200 -28.3510  0.00  0.00     0.000 O
BRANCH 30 34
ATOM     31  C1  BGC C   3      13.778 -18.714 -29.0400  0.00  0.00     0.000 C
ATOM     32  C2  BGC C   3      14.965 -18.824 -30.0260  0.00  0.00     0.000 C
ATOM     33  C3  BGC C   3      16.171 -18.127 -29.4980  0.00  0.00     0.000 C
ATOM     34  C4  BGC C   3      15.768 -16.707 -29.0930  0.00  0.00     0.000 C
ATOM     35  C5  BGC C   3      14.498 -16.646 -28.2060  0.00  0.00     0.000 C
ATOM     36  O5  BGC C   3      13.452 -17.366 -28.8090  0.00  0.00     0.000 O
ATOM     37   O  BGC C   3      15.390 -20.113 -30.4260  0.00  0.00     0.000 O
ATOM     39  HD  BGC C   3      15.632 -19.310 -30.2120  0.00  0.00     0.000 HD
ATOM     39   O  BGC C   3      17.224 -18.108 -30.5060  0.00  0.00     0.000 O
ATOM     41  HD  BGC C   3      17.466 -17.304 -30.2920  0.00  0.00     0.000 HD
ATOM     41   C  BGC C   3      13.958 -15.224 -27.9300  0.00  0.00     0.000 C
ATOM     42   O  BGC C   3      13.483 -14.492 -29.1170  0.00  0.00     0.000 O
ATOM     44  HD  BGC C   3      13.725 -13.688 -28.9030  0.00  0.00     0.000 HD
BRANCH 31 44
ATOM     44  O4  BGC C   4      12.657 -19.367 -29.5360  0.00  0.00     0.000 O
BRANCH 44 48
ATOM     45  C1  BGC C   4       9.464 -21.732 -28.5500  0.00  0.00     0.000 C
ATOM     46  C2  BGC C   4       9.238 -20.254 -28.0980  0.00  0.00     0.000 C
ATOM     47  C3  BGC C   4      10.372 -19.522 -28.8270  0.00  0.00     0.000 C
ATOM     48  C4  BGC C   4      11.786 -20.051 -28.6840  0.00  0.00     0.000 C
ATOM     49  C5  BGC C   4      11.749 -21.507 -29.1750  0.00  0.00     0.000 C
ATOM     50  O5  BGC C   4      10.804 -22.243 -28.4790  0.00  0.00     0.000 O
ATOM     51   O  BGC C   4       7.934 -19.483 -28.3760  0.00  0.00     0.000 O
ATOM     53  HD  BGC C   4       8.010 -18.646 -28.1690  0.00  0.00     0.000 HD
ATOM     53   O  BGC C   4      10.381 -18.230 -28.0560  0.00  0.00     0.000 O
ATOM     55  HD  BGC C   4      10.457 -17.393 -27.8480  0.00  0.00     0.000 HD
ATOM     55   C  BGC C   4      13.064 -22.202 -28.9300  0.00  0.00     0.000 C
ATOM     56   O  BGC C   4      13.522 -22.200 -27.5730  0.00  0.00     0.000 O
ATOM     58  HD  BGC C   4      13.598 -21.362 -27.3650  0.00  0.00     0.000 HD
BRANCH 45 58
ATOM     58  O4  BGC C   5       8.687 -22.632 -27.8160  0.00  0.00     0.000 O
BRANCH 58 62
ATOM     59  C1  BGC C   5       7.139 -24.471 -25.9260  0.00  0.00     0.000 C
ATOM     60  C2  BGC C   5       7.659 -23.393 -25.1130  0.00  0.00     0.000 C
ATOM     61  C3  BGC C   5       9.117 -23.050 -25.4090  0.00  0.00     0.000 C
ATOM     62  C4  BGC C   5       9.427 -23.420 -26.8520  0.00  0.00     0.000 C
ATOM     63  C5  BGC C   5       8.842 -24.791 -27.0990  0.00  0.00     0.000 C
ATOM     64  O5  BGC C   5       7.892 -25.300 -26.1640  0.00  0.00     0.000 O
ATOM     65   O  BGC C   5      10.687 -26.008 -26.1220  0.00  0.00     0.000 O
ATOM     67  HD  BGC C   5      10.331 -25.685 -26.8430  0.00  0.00     0.000 HD
ATOM     67   O  BGC C   5      10.687 -26.008 -26.1220  0.00  0.00     0.000 O
ATOM     69  HD  BGC C   5      10.331 -25.685 -26.8430  0.00  0.00     0.000 HD
ENDBRANCH 58 62
ENDBRANCH 45 58
ENDBRANCH 44 48
ENDBRANCH 31 44
ENDBRANCH 30 34
ENDBRANCH 17 30
ENDBRANCH 16 20
ENDBRANCH 1 16
TORSDOF 8
ENDMDL
MODEL 77
REMARK VINA RESULT:      -5.4     14.601     22.073
ROOT
ATOM      1  C1  BGC C   1       6.419 -24.383 -25.2160  0.00  0.00     0.000 C
ATOM      2  C2  BGC C   1       6.609 -25.597 -24.3070  0.00  0.00     0.000 C
ATOM      3  C3  BGC C   1       5.255 -26.198 -23.9490  0.00  0.00     0.000 C
ATOM      4  C4  BGC C   1       4.280 -25.153 -23.4330  0.00  0.00     0.000 C
ATOM      5  C5  BGC C   1       4.294 -23.925 -24.3380  0.00  0.00     0.000 C
ATOM      6  O5  BGC C   1       5.573 -23.463 -24.6390  0.00  0.00     0.000 O
ATOM      7   O  BGC C   1       7.390 -26.533 -25.0110  0.00  0.00     0.000 O
ATOM      9  HD  BGC C   1       7.262 -26.511 -24.1540  0.00  0.00     0.000 HD
ATOM      9   O  BGC C   1       5.472 -27.247 -22.9960  0.00  0.00     0.000 O
ATOM     11  HD  BGC C   1       5.344 -27.225 -22.1400  0.00  0.00     0.000 HD
ATOM     11   O  BGC C   1       2.994 -25.763 -23.4180  0.00  0.00     0.000 O
ATOM     13  HD  BGC C   1       2.866 -25.741 -22.5610  0.00  0.00     0.000 HD
ATOM     13   O  BGC C   1       4.228 -22.319 -22.4530  0.00  0.00     0.000 O
ATOM     15  HD  BGC C   1       4.099 -22.297 -21.5970  0.00  0.00     0.000 HD
ATOM     15   C  BGC C   1       3.520 -22.798 -23.6300  0.00  0.00     0.000 C
ENDROOT
BRANCH 1 16
ATOM     16  O4  BGC C   2       7.665 -23.747 -25.3840  0.00  0.00     0.000 O
BRANCH 16 20
ATOM     17  C1  BGC C   2       9.533 -21.347 -28.1090  0.00  0.00     0.000 C
ATOM     18  C2  BGC C   2       8.388 -20.710 -27.3360  0.00  0.00     0.000 C
ATOM     19  C3  BGC C   2       8.020 -21.554 -26.1240  0.00  0.00     0.000 C
ATOM     20  C4  BGC C   2       7.794 -22.966 -26.5480  0.00  0.00     0.000 C
ATOM     21  C5  BGC C   2       8.963 -23.483 -27.3790  0.00  0.00     0.000 C
ATOM     22  O5  BGC C   2       9.199 -22.655 -28.4780  0.00  0.00     0.000 O
ATOM     23   O  BGC C   2       8.782 -19.391 -26.9290  0.00  0.00     0.000 O
ATOM     25  HD  BGC C   2       8.506 -19.234 -26.1230  0.00  0.00     0.000 HD
ATOM     25   O  BGC C   2       6.836 -21.032 -25.5340  0.00  0.00     0.000 O
ATOM     27  HD  BGC C   2       6.561 -20.875 -24.7280  0.00  0.00     0.000 HD
ATOM     27   C  BGC C   2       8.808 -24.934 -27.8800  0.00  0.00     0.000 C
ATOM     28   O  BGC C   2       7.578 -25.107 -28.6020  0.00  0.00     0.000 O
ATOM     30  HD  BGC C   2       7.302 -24.950 -27.7960  0.00  0.00     0.000 HD
BRANCH 17 30
ATOM     30  O4  BGC C   3       9.778 -20.598 -29.2800  0.00  0.00     0.000 O
BRANCH 30 34
ATOM     31  C1  BGC C   3      12.885 -18.505 -30.7960  0.00  0.00     0.000 C
ATOM     32  C2  BGC C   3      12.509 -19.796 -31.5610  0.00  0.00     0.000 C
ATOM     33  C3  BGC C   3      11.169 -20.296 -31.1480  0.00  0.00     0.000 C
ATOM     34  C4  BGC C   3      11.141 -20.393 -29.6200  0.00  0.00     0.000 C
ATOM     35  C5  BGC C   3      11.646 -19.116 -28.9030  0.00  0.00     0.000 C
ATOM     36  O5  BGC C   3      12.903 -18.741 -29.4100  0.00  0.00     0.000 O
ATOM     37   O  BGC C   3      12.505 -19.761 -32.9760  0.00  0.00     0.000 O
ATOM     39  HD  BGC C   3      12.119 -20.062 -32.2620  0.00  0.00     0.000 HD
ATOM     39   O  BGC C   3      10.903 -21.591 -31.7620  0.00  0.00     0.000 O
ATOM     41  HD  BGC C   3      10.516 -21.893 -31.0480  0.00  0.00     0.000 HD
ATOM     41   C  BGC C   3      11.804 -19.243 -27.3700  0.00  0.00     0.000 C
ATOM     42   O  BGC C   3      12.818 -20.212 -26.9220  0.00  0.00     0.000 O
ATOM     44  HD  BGC C   3      12.432 -20.513 -26.2080  0.00  0.00     0.000 HD
BRANCH 31 44
ATOM     44  O4  BGC C   4      14.135 -18.040 -31.1860  0.00  0.00     0.000 O
BRANCH 44 48
ATOM     45  C1  BGC C   4      16.762 -14.923 -30.8160  0.00  0.00     0.000 C
ATOM     46  C2  BGC C   4      16.975 -15.983 -29.6890  0.00  0.00     0.000 C
ATOM     47  C3  BGC C   4      16.133 -17.161 -30.1970  0.00  0.00     0.000 C
ATOM     48  C4  BGC C   4      14.695 -16.902 -30.6020  0.00  0.00     0.000 C
ATOM     49  C5  BGC C   4      14.747 -15.828 -31.7000  0.00  0.00     0.000 C
ATOM     50  O5  BGC C   4      15.415 -14.697 -31.2600  0.00  0.00     0.000 O
ATOM     51   O  BGC C   4      18.362 -16.534 -29.3080  0.00  0.00     0.000 O
ATOM     53  HD  BGC C   4      18.299 -17.194 -28.7510  0.00  0.00     0.000 HD
ATOM     53   O  BGC C   4      16.022 -17.962 -28.9280  0.00  0.00     0.000 O
ATOM     55  HD  BGC C   4      15.959 -18.622 -28.3720  0.00  0.00     0.000 HD
ATOM     55   C  BGC C   4      13.365 -15.360 -32.0760  0.00  0.00     0.000 C
ATOM     56   O  BGC C   4      12.566 -14.858 -30.9980  0.00  0.00     0.000 O
ATOM     58  HD  BGC C   4      12.504 -15.518 -30.4410  0.00  0.00     0.000 HD
BRANCH 45 58
ATOM     58  O4  BGC C   5      17.246 -13.664 -30.4530  0.00  0.00     0.000 O
BRANCH 58 62
ATOM     59  C1  BGC C   5      17.721 -10.767 -29.5940  0.00  0.00     0.000 C
ATOM     60  C2  BGC C   5      18.763 -11.554 -28.9720  0.00  0.00     0.000 C
ATOM     61  C3  BGC C   5      18.259 -12.849 -28.3400  0.00  0.00     0.000 C
ATOM     62  C4  BGC C   5      17.003 -13.299 -29.0720  0.00  0.00     0.000 C
ATOM     63  C5  BGC C   5      16.128 -12.080 -29.2510  0.00  0.00     0.000 C
ATOM     64  O5  BGC C   5      16.711 -10.794 -29.0540  0.00  0.00     0.000 O
ATOM     65   O  BGC C   5      15.170 -12.158 -27.0350  0.00  0.00     0.000 O
ATOM     67  HD  BGC C   5      15.091 -12.383 -27.8670  0.00  0.00     0.000 HD
ATOM     67   O  BGC C   5      15.170 -12.158 -27.0350  0.00  0.00     0.000 O
ATOM     69  HD  BGC C   5      15.091 -12.383 -27.8670  0.00  0.00     0.000 HD
ENDBRANCH 58 62
ENDBRANCH 45 58
ENDBRANCH 44 48
ENDBRANCH 31 44
ENDBRANCH 30 34
ENDBRANCH 17 30
ENDBRANCH 16 20
ENDBRANCH 1 16
TORSDOF 8
ENDMDL
MODEL 78
REMARK VINA RESULT:      -5.4     22.234     27.213
ROOT
ATOM      1  C1  BGC C   1      10.694 -29.127 -28.3260  0.00  0.00     0.000 C
ATOM      2  C2  BGC C   1      11.981 -29.820 -27.8830  0.00  0.00     0.000 C
ATOM      3  C3  BGC C   1      12.942 -29.938 -29.0610  0.00  0.00     0.000 C
ATOM      4  C4  BGC C   1      12.277 -30.538 -30.2880  0.00  0.00     0.000 C
ATOM      5  C5  BGC C   1      10.928 -29.869 -30.5370  0.00  0.00     0.000 C
ATOM      6  O5  BGC C   1      10.129 -29.775 -29.4010  0.00  0.00     0.000 O
ATOM      7   O  BGC C   1      12.553 -29.038 -26.8620  0.00  0.00     0.000 O
ATOM      9  HD  BGC C   1      12.728 -29.869 -27.0320  0.00  0.00     0.000 HD
ATOM      9   O  BGC C   1      14.075 -30.708 -28.6350  0.00  0.00     0.000 O
ATOM     11  HD  BGC C   1      14.250 -31.538 -28.8050  0.00  0.00     0.000 HD
ATOM     11   O  BGC C   1      13.163 -30.326 -31.3820  0.00  0.00     0.000 O
ATOM     13  HD  BGC C   1      13.338 -31.157 -31.5520  0.00  0.00     0.000 HD
ATOM     13   O  BGC C   1       9.780 -31.994 -31.0900  0.00  0.00     0.000 O
ATOM     15  HD  BGC C   1       9.955 -32.825 -31.2600  0.00  0.00     0.000 HD
ATOM     15   C  BGC C   1      10.175 -30.690 -31.6000  0.00  0.00     0.000 C
ENDROOT
BRANCH 1 16
ATOM     16  O4  BGC C   2       9.763 -29.190 -27.2720  0.00  0.00     0.000 O
BRANCH 16 20
ATOM     17  C1  BGC C   2       6.862 -26.767 -25.7250  0.00  0.00     0.000 C
ATOM     18  C2  BGC C   2       6.400 -27.780 -26.7610  0.00  0.00     0.000 C
ATOM     19  C3  BGC C   2       7.464 -28.845 -26.9870  0.00  0.00     0.000 C
ATOM     20  C4  BGC C   2       8.772 -28.190 -27.2770  0.00  0.00     0.000 C
ATOM     21  C5  BGC C   2       9.105 -27.139 -26.2220  0.00  0.00     0.000 C
ATOM     22  O5  BGC C   2       8.080 -26.199 -26.1140  0.00  0.00     0.000 O
ATOM     23   O  BGC C   2       5.177 -28.381 -26.3080  0.00  0.00     0.000 O
ATOM     25  HD  BGC C   2       5.181 -29.229 -26.4820  0.00  0.00     0.000 HD
ATOM     25   O  BGC C   2       7.080 -29.663 -28.0860  0.00  0.00     0.000 O
ATOM     27  HD  BGC C   2       7.084 -30.511 -28.2590  0.00  0.00     0.000 HD
ATOM     27   C  BGC C   2      10.436 -26.393 -26.4520  0.00  0.00     0.000 C
ATOM     28   O  BGC C   2      10.485 -25.806 -27.7620  0.00  0.00     0.000 O
ATOM     30  HD  BGC C   2      10.489 -26.655 -27.9360  0.00  0.00     0.000 HD
BRANCH 17 30
ATOM     30  O4  BGC C   3       5.900 -25.740 -25.6170  0.00  0.00     0.000 O
BRANCH 30 34
ATOM     31  C1  BGC C   3       3.964 -23.485 -22.8770  0.00  0.00     0.000 C
ATOM     32  C2  BGC C   3       5.469 -23.173 -23.0600  0.00  0.00     0.000 C
ATOM     33  C3  BGC C   3       6.000 -23.795 -24.3050  0.00  0.00     0.000 C
ATOM     34  C4  BGC C   3       5.621 -25.278 -24.3040  0.00  0.00     0.000 C
ATOM     35  C5  BGC C   3       4.125 -25.541 -23.9910  0.00  0.00     0.000 C
ATOM     36  O5  BGC C   3       3.754 -24.874 -22.8110  0.00  0.00     0.000 O
ATOM     37   O  BGC C   3       5.876 -21.818 -23.0830  0.00  0.00     0.000 O
ATOM     39  HD  BGC C   3       5.992 -22.610 -23.4130  0.00  0.00     0.000 HD
ATOM     39   O  BGC C   3       7.446 -23.621 -24.3780  0.00  0.00     0.000 O
ATOM     41  HD  BGC C   3       7.562 -24.413 -24.7070  0.00  0.00     0.000 HD
ATOM     41   C  BGC C   3       3.747 -27.027 -23.8020  0.00  0.00     0.000 C
ATOM     42   O  BGC C   3       4.375 -27.693 -22.6480  0.00  0.00     0.000 O
ATOM     44  HD  BGC C   3       4.492 -28.485 -22.9770  0.00  0.00     0.000 HD
BRANCH 31 44
ATOM     44  O4  BGC C   4       3.473 -22.903 -21.7160  0.00  0.00     0.000 O
BRANCH 44 48
ATOM     45  C1  BGC C   4      -0.043 -21.682 -20.0100  0.00  0.00     0.000 C
ATOM     46  C2  BGC C   4       0.501 -22.978 -19.3280  0.00  0.00     0.000 C
ATOM     47  C3  BGC C   4       1.924 -23.061 -19.8930  0.00  0.00     0.000 C
ATOM     48  C4  BGC C   4       2.115 -22.971 -21.3940  0.00  0.00     0.000 C
ATOM     49  C5  BGC C   4       1.496 -21.631 -21.8240  0.00  0.00     0.000 C
ATOM     50  O5  BGC C   4       0.173 -21.543 -21.4230  0.00  0.00     0.000 O
ATOM     51   O  BGC C   4       0.596 -23.143 -17.8010  0.00  0.00     0.000 O
ATOM     53  HD  BGC C   4       1.024 -23.865 -17.5860  0.00  0.00     0.000 HD
ATOM     53   O  BGC C   4       2.246 -24.493 -19.5650  0.00  0.00     0.000 O
ATOM     55  HD  BGC C   4       2.674 -25.215 -19.3500  0.00  0.00     0.000 HD
ATOM     55   C  BGC C   4       1.473 -21.493 -23.3250  0.00  0.00     0.000 C
ATOM     56   O  BGC C   4       0.803 -22.542 -24.0330  0.00  0.00     0.000 O
ATOM     58  HD  BGC C   4       1.230 -23.264 -23.8180  0.00  0.00     0.000 HD
BRANCH 45 58
ATOM     58  O4  BGC C   5      -1.420 -21.529 -19.8310  0.00  0.00     0.000 O
BRANCH 58 62
ATOM     59  C1  BGC C   5      -4.167 -20.476 -18.9960  0.00  0.00     0.000 C
ATOM     60  C2  BGC C   5      -4.359 -21.169 -20.2520  0.00  0.00     0.000 C
ATOM     61  C3  BGC C   5      -3.298 -20.844 -21.3000  0.00  0.00     0.000 C
ATOM     62  C4  BGC C   5      -2.010 -20.447 -20.5920  0.00  0.00     0.000 C
ATOM     63  C5  BGC C   5      -2.385 -19.492 -19.4820  0.00  0.00     0.000 C
ATOM     64  O5  BGC C   5      -3.754 -19.412 -19.0920  0.00  0.00     0.000 O
ATOM     65   O  BGC C   5      -2.510 -17.536 -20.8950  0.00  0.00     0.000 O
ATOM     67  HD  BGC C   5      -2.023 -18.019 -20.3660  0.00  0.00     0.000 HD
ATOM     67   O  BGC C   5      -2.510 -17.536 -20.8950  0.00  0.00     0.000 O
ATOM     69  HD  BGC C   5      -2.023 -18.019 -20.3660  0.00  0.00     0.000 HD
ENDBRANCH 58 62
ENDBRANCH 45 58
ENDBRANCH 44 48
ENDBRANCH 31 44
ENDBRANCH 30 34
ENDBRANCH 17 30
ENDBRANCH 16 20
ENDBRANCH 1 16
TORSDOF 8
ENDMDL
MODEL 79
REMARK VINA RESULT:      -5.4     19.922     22.563
ROOT
ATOM      1  C1  BGC C   1       0.151 -19.143 -25.2580  0.00  0.00     0.000 C
ATOM      2  C2  BGC C   1      -0.982 -18.929 -26.2610  0.00  0.00     0.000 C
ATOM      3  C3  BGC C   1      -1.895 -17.805 -25.7860  0.00  0.00     0.000 C
ATOM      4  C4  BGC C   1      -2.339 -17.996 -24.3450  0.00  0.00     0.000 C
ATOM      5  C5  BGC C   1      -1.143 -18.358 -23.4680  0.00  0.00     0.000 C
ATOM      6  O5  BGC C   1      -0.346 -19.370 -23.9950  0.00  0.00     0.000 O
ATOM      7   O  BGC C   1      -0.395 -18.593 -27.4960  0.00  0.00     0.000 O
ATOM      9  HD  BGC C   1      -1.201 -18.885 -27.3720  0.00  0.00     0.000 HD
ATOM      9   O  BGC C   1      -3.010 -17.728 -26.6840  0.00  0.00     0.000 O
ATOM     11  HD  BGC C   1      -3.816 -18.020 -26.5610  0.00  0.00     0.000 HD
ATOM     11   O  BGC C   1      -2.925 -16.767 -23.9290  0.00  0.00     0.000 O
ATOM     13  HD  BGC C   1      -3.731 -17.059 -23.8060  0.00  0.00     0.000 HD
ATOM     13   O  BGC C   1      -2.381 -20.083 -22.1910  0.00  0.00     0.000 O
ATOM     15  HD  BGC C   1      -3.187 -20.375 -22.0680  0.00  0.00     0.000 HD
ATOM     15   C  BGC C   1      -1.675 -18.814 -22.0970  0.00  0.00     0.000 C
ENDROOT
BRANCH 1 16
ATOM     16  O4  BGC C   2       0.871 -20.294 -25.6300  0.00  0.00     0.000 O
BRANCH 16 20
ATOM     17  C1  BGC C   2       4.723 -21.640 -25.4890  0.00  0.00     0.000 C
ATOM     18  C2  BGC C   2       3.922 -21.783 -24.2040  0.00  0.00     0.000 C
ATOM     19  C3  BGC C   2       2.435 -21.598 -24.4730  0.00  0.00     0.000 C
ATOM     20  C4  BGC C   2       2.217 -20.325 -25.2210  0.00  0.00     0.000 C
ATOM     21  C5  BGC C   2       3.123 -20.248 -26.4460  0.00  0.00     0.000 C
ATOM     22  O5  BGC C   2       4.462 -20.403 -26.0870  0.00  0.00     0.000 O
ATOM     23   O  BGC C   2       4.172 -23.081 -23.6430  0.00  0.00     0.000 O
ATOM     25  HD  BGC C   2       3.438 -23.416 -23.3320  0.00  0.00     0.000 HD
ATOM     25   O  BGC C   2       1.738 -21.553 -23.2330  0.00  0.00     0.000 O
ATOM     27  HD  BGC C   2       1.004 -21.889 -22.9210  0.00  0.00     0.000 HD
ATOM     27   C  BGC C   2       2.981 -18.954 -27.2740  0.00  0.00     0.000 C
ATOM     28   O  BGC C   2       3.163 -17.789 -26.4530  0.00  0.00     0.000 O
ATOM     30  HD  BGC C   2       2.428 -18.125 -26.1410  0.00  0.00     0.000 HD
BRANCH 17 30
ATOM     30  O4  BGC C   3       6.101 -21.713 -25.1880  0.00  0.00     0.000 O
BRANCH 30 34
ATOM     31  C1  BGC C   3       9.625 -22.926 -26.7510  0.00  0.00     0.000 C
ATOM     32  C2  BGC C   3       8.882 -21.826 -27.5460  0.00  0.00     0.000 C
ATOM     33  C3  BGC C   3       7.799 -21.211 -26.7300  0.00  0.00     0.000 C
ATOM     34  C4  BGC C   3       6.924 -22.332 -26.1650  0.00  0.00     0.000 C
ATOM     35  C5  BGC C   3       7.729 -23.471 -25.4870  0.00  0.00     0.000 C
ATOM     36  O5  BGC C   3       8.732 -23.937 -26.3550  0.00  0.00     0.000 O
ATOM     37   O  BGC C   3       9.638 -20.757 -28.0820  0.00  0.00     0.000 O
ATOM     39  HD  BGC C   3       8.896 -20.996 -27.7040  0.00  0.00     0.000 HD
ATOM     39   O  BGC C   3       7.013 -20.292 -27.5460  0.00  0.00     0.000 O
ATOM     41  HD  BGC C   3       6.272 -20.531 -27.1690  0.00  0.00     0.000 HD
ATOM     41   C  BGC C   3       6.895 -24.704 -25.0680  0.00  0.00     0.000 C
ATOM     42   O  BGC C   3       6.273 -25.447 -26.1770  0.00  0.00     0.000 O
ATOM     44  HD  BGC C   3       5.531 -25.686 -25.7990  0.00  0.00     0.000 HD
BRANCH 31 44
ATOM     44  O4  BGC C   4      10.635 -23.496 -27.5150  0.00  0.00     0.000 O
BRANCH 44 48
ATOM     45  C1  BGC C   4      14.527 -24.767 -27.4960  0.00  0.00     0.000 C
ATOM     46  C2  BGC C   4      13.628 -25.672 -26.5940  0.00  0.00     0.000 C
ATOM     47  C3  BGC C   4      12.218 -25.219 -26.9930  0.00  0.00     0.000 C
ATOM     48  C4  BGC C   4      11.900 -23.737 -26.9730  0.00  0.00     0.000 C
ATOM     49  C5  BGC C   4      12.914 -23.069 -27.9160  0.00  0.00     0.000 C
ATOM     50  O5  BGC C   4      14.214 -23.367 -27.5400  0.00  0.00     0.000 O
ATOM     51   O  BGC C   4      13.657 -27.210 -26.6570  0.00  0.00     0.000 O
ATOM     53  HD  BGC C   4      13.022 -27.559 -26.1830  0.00  0.00     0.000 HD
ATOM     53   O  BGC C   4      11.432 -25.782 -25.8410  0.00  0.00     0.000 O
ATOM     55  HD  BGC C   4      10.797 -26.131 -25.3660  0.00  0.00     0.000 HD
ATOM     55   C  BGC C   4      12.811 -21.567 -27.8580  0.00  0.00     0.000 C
ATOM     56   O  BGC C   4      12.960 -20.985 -26.5570  0.00  0.00     0.000 O
ATOM     58  HD  BGC C   4      12.325 -21.334 -26.0830  0.00  0.00     0.000 HD
BRANCH 45 58
ATOM     58  O4  BGC C   5      15.874 -24.832 -27.1320  0.00  0.00     0.000 O
BRANCH 58 62
ATOM     59  C1  BGC C   5      18.839 -24.109 -27.3180  0.00  0.00     0.000 C
ATOM     60  C2  BGC C   5      18.234 -23.674 -28.5580  0.00  0.00     0.000 C
ATOM     61  C3  BGC C   5      17.284 -24.701 -29.1690  0.00  0.00     0.000 C
ATOM     62  C4  BGC C   5      16.713 -25.568 -28.0560  0.00  0.00     0.000 C
ATOM     63  C5  BGC C   5      17.861 -25.951 -27.1520  0.00  0.00     0.000 C
ATOM     64  O5  BGC C   5      19.084 -25.226 -27.2680  0.00  0.00     0.000 O
ATOM     65   O  BGC C   5      18.635 -27.781 -28.5270  0.00  0.00     0.000 O
ATOM     67  HD  BGC C   5      18.143 -27.534 -27.8590  0.00  0.00     0.000 HD
ATOM     67   O  BGC C   5      18.635 -27.781 -28.5270  0.00  0.00     0.000 O
ATOM     69  HD  BGC C   5      18.143 -27.534 -27.8590  0.00  0.00     0.000 HD
ENDBRANCH 58 62
ENDBRANCH 45 58
ENDBRANCH 44 48
ENDBRANCH 31 44
ENDBRANCH 30 34
ENDBRANCH 17 30
ENDBRANCH 16 20
ENDBRANCH 1 16
TORSDOF 8
ENDMDL
MODEL 80
REMARK VINA RESULT:      -5.4     20.777     25.888
ROOT
ATOM      1  C1  BGC C   1       9.794 -27.176 -27.6950  0.00  0.00     0.000 C
ATOM      2  C2  BGC C   1      10.756 -27.723 -26.6410  0.00  0.00     0.000 C
ATOM      3  C3  BGC C   1      11.380 -29.025 -27.1290  0.00  0.00     0.000 C
ATOM      4  C4  BGC C   1      10.337 -30.013 -27.6240  0.00  0.00     0.000 C
ATOM      5  C5  BGC C   1       9.342 -29.313 -28.5460  0.00  0.00     0.000 C
ATOM      6  O5  BGC C   1       8.848 -28.116 -28.0340  0.00  0.00     0.000 O
ATOM      7   O  BGC C   1      11.752 -26.750 -26.4330  0.00  0.00     0.000 O
ATOM      9  HD  BGC C   1      11.553 -27.404 -25.9010  0.00  0.00     0.000 HD
ATOM      9   O  BGC C   1      12.169 -29.567 -26.0610  0.00  0.00     0.000 O
ATOM     11  HD  BGC C   1      11.970 -30.220 -25.5290  0.00  0.00     0.000 HD
ATOM     11   O  BGC C   1      11.038 -31.041 -28.3130  0.00  0.00     0.000 O
ATOM     13  HD  BGC C   1      10.839 -31.695 -27.7810  0.00  0.00     0.000 HD
ATOM     13   O  BGC C   1       7.372 -30.465 -27.5820  0.00  0.00     0.000 O
ATOM     15  HD  BGC C   1       7.172 -31.118 -27.0490  0.00  0.00     0.000 HD
ATOM     15   C  BGC C   1       8.159 -30.269 -28.7880  0.00  0.00     0.000 C
ENDROOT
BRANCH 1 16
ATOM     16  O4  BGC C   2       9.104 -26.077 -27.1480  0.00  0.00     0.000 O
BRANCH 16 20
ATOM     17  C1  BGC C   2       7.261 -22.677 -28.4610  0.00  0.00     0.000 C
ATOM     18  C2  BGC C   2       6.482 -23.970 -28.6460  0.00  0.00     0.000 C
ATOM     19  C3  BGC C   2       7.086 -25.089 -27.8100  0.00  0.00     0.000 C
ATOM     20  C4  BGC C   2       8.549 -25.183 -28.0840  0.00  0.00     0.000 C
ATOM     21  C5  BGC C   2       9.222 -23.821 -27.9460  0.00  0.00     0.000 C
ATOM     22  O5  BGC C   2       8.611 -22.876 -28.7720  0.00  0.00     0.000 O
ATOM     23   O  BGC C   2       5.115 -23.744 -28.2710  0.00  0.00     0.000 O
ATOM     25  HD  BGC C   2       4.811 -24.427 -27.8320  0.00  0.00     0.000 HD
ATOM     25   O  BGC C   2       6.453 -26.317 -28.1460  0.00  0.00     0.000 O
ATOM     27  HD  BGC C   2       6.149 -27.000 -27.7080  0.00  0.00     0.000 HD
ATOM     27   C  BGC C   2      10.738 -23.817 -28.2310  0.00  0.00     0.000 C
ATOM     28   O  BGC C   2      11.027 -24.379 -29.5210  0.00  0.00     0.000 O
ATOM     30  HD  BGC C   2      10.723 -25.061 -29.0830  0.00  0.00     0.000 HD
BRANCH 17 30
ATOM     30  O4  BGC C   3       6.741 -21.691 -29.3270  0.00  0.00     0.000 O
BRANCH 30 34
ATOM     31  C1  BGC C   3       5.771 -17.769 -29.4500  0.00  0.00     0.000 C
ATOM     32  C2  BGC C   3       7.278 -18.083 -29.2940  0.00  0.00     0.000 C
ATOM     33  C3  BGC C   3       7.566 -19.511 -29.6050  0.00  0.00     0.000 C
ATOM     34  C4  BGC C   3       6.614 -20.385 -28.7860  0.00  0.00     0.000 C
ATOM     35  C5  BGC C   3       5.129 -19.950 -28.8800  0.00  0.00     0.000 C
ATOM     36  O5  BGC C   3       5.007 -18.579 -28.5910  0.00  0.00     0.000 O
ATOM     37   O  BGC C   3       8.205 -17.315 -30.0380  0.00  0.00     0.000 O
ATOM     39  HD  BGC C   3       8.003 -18.099 -29.7300  0.00  0.00     0.000 HD
ATOM     39   O  BGC C   3       8.958 -19.822 -29.3010  0.00  0.00     0.000 O
ATOM     41  HD  BGC C   3       8.755 -20.605 -28.9930  0.00  0.00     0.000 HD
ATOM     41   C  BGC C   3       4.166 -20.693 -27.9260  0.00  0.00     0.000 C
ATOM     42   O  BGC C   3       4.411 -20.473 -26.4900  0.00  0.00     0.000 O
ATOM     44  HD  BGC C   3       4.209 -21.257 -26.1830  0.00  0.00     0.000 HD
BRANCH 31 44
ATOM     44  O4  BGC C   4       5.507 -16.437 -29.1610  0.00  0.00     0.000 O
BRANCH 44 48
ATOM     45  C1  BGC C   4       2.591 -13.564 -29.1640  0.00  0.00     0.000 C
ATOM     46  C2  BGC C   4       2.574 -14.390 -27.8390  0.00  0.00     0.000 C
ATOM     47  C3  BGC C   4       3.899 -15.159 -27.9260  0.00  0.00     0.000 C
ATOM     48  C4  BGC C   4       4.203 -15.938 -29.1910  0.00  0.00     0.000 C
ATOM     49  C5  BGC C   4       4.150 -14.921 -30.3430  0.00  0.00     0.000 C
ATOM     50  O5  BGC C   4       2.931 -14.264 -30.3710  0.00  0.00     0.000 O
ATOM     51   O  BGC C   4       2.506 -13.738 -26.4460  0.00  0.00     0.000 O
ATOM     53  HD  BGC C   4       2.623 -14.321 -25.8160  0.00  0.00     0.000 HD
ATOM     53   O  BGC C   4       3.648 -16.219 -26.8890  0.00  0.00     0.000 O
ATOM     55  HD  BGC C   4       3.765 -16.802 -26.2600  0.00  0.00     0.000 HD
ATOM     55   C  BGC C   4       4.273 -15.602 -31.6810  0.00  0.00     0.000 C
ATOM     56   O  BGC C   4       3.309 -16.627 -31.9470  0.00  0.00     0.000 O
ATOM     58  HD  BGC C   4       3.426 -17.210 -31.3170  0.00  0.00     0.000 HD
BRANCH 45 58
ATOM     58  O4  BGC C   5       1.359 -12.959 -29.4240  0.00  0.00     0.000 O
BRANCH 58 62
ATOM     59  C1  BGC C   5      -1.449 -11.855 -29.9220  0.00  0.00     0.000 C
ATOM     60  C2  BGC C   5      -1.539 -12.681 -28.7380  0.00  0.00     0.000 C
ATOM     61  C3  BGC C   5      -0.815 -14.018 -28.8670  0.00  0.00     0.000 C
ATOM     62  C4  BGC C   5       0.322 -13.869 -29.8680  0.00  0.00     0.000 C
ATOM     63  C5  BGC C   5      -0.225 -13.115 -31.0580  0.00  0.00     0.000 C
ATOM     64  O5  BGC C   5      -1.467 -12.430 -30.9130  0.00  0.00     0.000 O
ATOM     65   O  BGC C   5      -1.234 -15.044 -32.1060  0.00  0.00     0.000 O
ATOM     67  HD  BGC C   5      -0.540 -14.528 -32.0520  0.00  0.00     0.000 HD
ATOM     67   O  BGC C   5      -1.234 -15.044 -32.1060  0.00  0.00     0.000 O
ATOM     69  HD  BGC C   5      -0.540 -14.528 -32.0520  0.00  0.00     0.000 HD
ENDBRANCH 58 62
ENDBRANCH 45 58
ENDBRANCH 44 48
ENDBRANCH 31 44
ENDBRANCH 30 34
ENDBRANCH 17 30
ENDBRANCH 16 20
ENDBRANCH 1 16
TORSDOF 8
ENDMDL
MODEL 81
REMARK VINA RESULT:      -5.4     19.881     24.044
ROOT
ATOM      1  C1  BGC C   1      14.724 -26.509 -26.6650  0.00  0.00     0.000 C
ATOM      2  C2  BGC C   1      15.914 -26.662 -25.7190  0.00  0.00     0.000 C
ATOM      3  C3  BGC C   1      16.826 -27.782 -26.2050  0.00  0.00     0.000 C
ATOM      4  C4  BGC C   1      16.061 -29.064 -26.4910  0.00  0.00     0.000 C
ATOM      5  C5  BGC C   1      14.811 -28.761 -27.3110  0.00  0.00     0.000 C
ATOM      6  O5  BGC C   1      14.055 -27.703 -26.8130  0.00  0.00     0.000 O
ATOM      7   O  BGC C   1      16.607 -25.437 -25.7090  0.00  0.00     0.000 O
ATOM      9  HD  BGC C   1      16.664 -26.064 -25.1150  0.00  0.00     0.000 HD
ATOM      9   O  BGC C   1      17.853 -27.978 -25.2220  0.00  0.00     0.000 O
ATOM     11  HD  BGC C   1      17.910 -28.605 -24.6280  0.00  0.00     0.000 HD
ATOM     11   O  BGC C   1      16.946 -29.921 -27.2040  0.00  0.00     0.000 O
ATOM     13  HD  BGC C   1      17.003 -30.549 -26.6100  0.00  0.00     0.000 HD
ATOM     13   O  BGC C   1      13.374 -30.311 -26.0190  0.00  0.00     0.000 O
ATOM     15  HD  BGC C   1      13.432 -30.939 -25.4250  0.00  0.00     0.000 HD
ATOM     15   C  BGC C   1      13.932 -30.025 -27.3310  0.00  0.00     0.000 C
ENDROOT
BRANCH 1 16
ATOM     16  O4  BGC C   2      13.814 -25.595 -26.1000  0.00  0.00     0.000 O
BRANCH 16 20
ATOM     17  C1  BGC C   2      10.958 -23.018 -27.4710  0.00  0.00     0.000 C
ATOM     18  C2  BGC C   2      10.470 -24.403 -27.0760  0.00  0.00     0.000 C
ATOM     19  C3  BGC C   2      11.523 -25.133 -26.2550  0.00  0.00     0.000 C
ATOM     20  C4  BGC C   2      12.829 -25.101 -26.9750  0.00  0.00     0.000 C
ATOM     21  C5  BGC C   2      13.189 -23.678 -27.3940  0.00  0.00     0.000 C
ATOM     22  O5  BGC C   2      12.171 -23.111 -28.1620  0.00  0.00     0.000 O
ATOM     23   O  BGC C   2       9.253 -24.268 -26.3250  0.00  0.00     0.000 O
ATOM     25  HD  BGC C   2       9.249 -24.827 -25.6640  0.00  0.00     0.000 HD
ATOM     25   O  BGC C   2      11.113 -26.481 -26.0620  0.00  0.00     0.000 O
ATOM     27  HD  BGC C   2      11.109 -27.040 -25.4000  0.00  0.00     0.000 HD
ATOM     27   C  BGC C   2      14.519 -23.549 -28.1650  0.00  0.00     0.000 C
ATOM     28   O  BGC C   2      14.545 -24.419 -29.3080  0.00  0.00     0.000 O
ATOM     30  HD  BGC C   2      14.540 -24.978 -28.6470  0.00  0.00     0.000 HD
BRANCH 17 30
ATOM     30  O4  BGC C   3      10.004 -22.411 -28.3160  0.00  0.00     0.000 O
BRANCH 30 34
ATOM     31  C1  BGC C   3       8.415 -18.782 -29.1160  0.00  0.00     0.000 C
ATOM     32  C2  BGC C   3       9.952 -18.817 -28.9410  0.00  0.00     0.000 C
ATOM     33  C3  BGC C   3      10.469 -20.213 -28.9990  0.00  0.00     0.000 C
ATOM     34  C4  BGC C   3       9.665 -21.066 -28.0140  0.00  0.00     0.000 C
ATOM     35  C5  BGC C   3       8.130 -20.898 -28.1500  0.00  0.00     0.000 C
ATOM     36  O5  BGC C   3       7.787 -19.535 -28.1090  0.00  0.00     0.000 O
ATOM     37   O  BGC C   3      10.747 -18.058 -29.8320  0.00  0.00     0.000 O
ATOM     39  HD  BGC C   3      10.672 -18.795 -29.3840  0.00  0.00     0.000 HD
ATOM     39   O  BGC C   3      11.891 -20.238 -28.6770  0.00  0.00     0.000 O
ATOM     41  HD  BGC C   3      11.815 -20.975 -28.2290  0.00  0.00     0.000 HD
ATOM     41   C  BGC C   3       7.293 -21.601 -27.0560  0.00  0.00     0.000 C
ATOM     42   O  BGC C   3       7.492 -21.090 -25.6900  0.00  0.00     0.000 O
ATOM     44  HD  BGC C   3       7.416 -21.828 -25.2420  0.00  0.00     0.000 HD
BRANCH 31 44
ATOM     44  O4  BGC C   4       7.938 -17.479 -29.0640  0.00  0.00     0.000 O
BRANCH 44 48
ATOM     45  C1  BGC C   4       5.300 -14.818 -30.7140  0.00  0.00     0.000 C
ATOM     46  C2  BGC C   4       4.559 -15.910 -29.8790  0.00  0.00     0.000 C
ATOM     47  C3  BGC C   4       5.718 -16.577 -29.1270  0.00  0.00     0.000 C
ATOM     48  C4  BGC C   4       6.921 -17.049 -29.9200  0.00  0.00     0.000 C
ATOM     49  C5  BGC C   4       7.462 -15.812 -30.6540  0.00  0.00     0.000 C
ATOM     50  O5  BGC C   4       6.476 -15.224 -31.4310  0.00  0.00     0.000 O
ATOM     51   O  BGC C   4       3.465 -15.578 -28.8480  0.00  0.00     0.000 O
ATOM     53  HD  BGC C   4       3.238 -16.277 -28.3900  0.00  0.00     0.000 HD
ATOM     53   O  BGC C   4       5.042 -17.846 -28.6880  0.00  0.00     0.000 O
ATOM     55  HD  BGC C   4       4.815 -18.545 -28.2300  0.00  0.00     0.000 HD
ATOM     55   C  BGC C   4       8.565 -16.181 -31.6120  0.00  0.00     0.000 C
ATOM     56   O  BGC C   4       8.229 -17.170 -32.5920  0.00  0.00     0.000 O
ATOM     58  HD  BGC C   4       8.002 -17.869 -32.1330  0.00  0.00     0.000 HD
BRANCH 45 58
ATOM     58  O4  BGC C   5       4.469 -14.231 -31.6710  0.00  0.00     0.000 O
BRANCH 58 62
ATOM     59  C1  BGC C   5       2.136 -12.291 -32.0460  0.00  0.00     0.000 C
ATOM     60  C2  BGC C   5       2.748 -12.450 -33.3470  0.00  0.00     0.000 C
ATOM     61  C3  BGC C   5       4.273 -12.387 -33.3190  0.00  0.00     0.000 C
ATOM     62  C4  BGC C   5       4.760 -12.840 -31.9500  0.00  0.00     0.000 C
ATOM     63  C5  BGC C   5       3.893 -12.157 -30.9180  0.00  0.00     0.000 C
ATOM     64  O5  BGC C   5       2.672 -11.558 -31.3480  0.00  0.00     0.000 O
ATOM     65   O  BGC C   5       5.108 -10.069 -30.9420  0.00  0.00     0.000 O
ATOM     67  HD  BGC C   5       5.005 -10.844 -30.5700  0.00  0.00     0.000 HD
ATOM     67   O  BGC C   5       5.108 -10.069 -30.9420  0.00  0.00     0.000 O
ATOM     69  HD  BGC C   5       5.005 -10.844 -30.5700  0.00  0.00     0.000 HD
ENDBRANCH 58 62
ENDBRANCH 45 58
ENDBRANCH 44 48
ENDBRANCH 31 44
ENDBRANCH 30 34
ENDBRANCH 17 30
ENDBRANCH 16 20
ENDBRANCH 1 16
TORSDOF 8
ENDMDL
MODEL 82
REMARK VINA RESULT:      -5.4     25.641     28.289
ROOT
ATOM      1  C1  BGC C   1       8.540 -26.464  -0.0300  0.00  0.00     0.000 C
ATOM      2  C2  BGC C   1       9.960 -26.435   0.5340  0.00  0.00     0.000 C
ATOM      3  C3  BGC C   1       9.932 -25.998   1.9940  0.00  0.00     0.000 C
ATOM      4  C4  BGC C   1       9.131 -24.723   2.1980  0.00  0.00     0.000 C
ATOM      5  C5  BGC C   1       7.799 -24.813   1.4590  0.00  0.00     0.000 C
ATOM      6  O5  BGC C   1       7.915 -25.250   0.1420  0.00  0.00     0.000 O
ATOM      7   O  BGC C   1      10.486 -27.735   0.4220  0.00  0.00     0.000 O
ATOM      9  HD  BGC C   1      10.939 -27.005   0.5320  0.00  0.00     0.000 HD
ATOM      9   O  BGC C   1      11.287 -25.858   2.4420  0.00  0.00     0.000 O
ATOM     11  HD  BGC C   1      11.740 -25.128   2.5520  0.00  0.00     0.000 HD
ATOM     11   O  BGC C   1       8.930 -24.584   3.6000  0.00  0.00     0.000 O
ATOM     13  HD  BGC C   1       9.382 -23.854   3.7100  0.00  0.00     0.000 HD
ATOM     13   O  BGC C   1       7.905 -22.482   0.6260  0.00  0.00     0.000 O
ATOM     15  HD  BGC C   1       8.358 -21.752   0.7360  0.00  0.00     0.000 HD
ATOM     15   C  BGC C   1       7.157 -23.413   1.4560  0.00  0.00     0.000 C
ENDROOT
BRANCH 1 16
ATOM     16  O4  BGC C   2       8.611 -26.697  -1.4170  0.00  0.00     0.000 O
BRANCH 16 20
ATOM     17  C1  BGC C   2       6.554 -28.753  -4.2840  0.00  0.00     0.000 C
ATOM     18  C2  BGC C   2       5.768 -27.687  -3.5370  0.00  0.00     0.000 C
ATOM     19  C3  BGC C   2       6.704 -26.760  -2.7760  0.00  0.00     0.000 C
ATOM     20  C4  BGC C   2       7.635 -27.569  -1.9360  0.00  0.00     0.000 C
ATOM     21  C5  BGC C   2       8.314 -28.656  -2.7630  0.00  0.00     0.000 C
ATOM     22  O5  BGC C   2       7.369 -29.465  -3.3960  0.00  0.00     0.000 O
ATOM     23   O  BGC C   2       4.983 -26.944  -4.4820  0.00  0.00     0.000 O
ATOM     25  HD  BGC C   2       4.996 -26.101  -4.2810  0.00  0.00     0.000 HD
ATOM     25   O  BGC C   2       5.935 -25.897  -1.9470  0.00  0.00     0.000 O
ATOM     27  HD  BGC C   2       5.948 -25.054  -1.7460  0.00  0.00     0.000 HD
ATOM     27   C  BGC C   2       9.284 -29.559  -1.9720  0.00  0.00     0.000 C
ATOM     28   O  BGC C   2       8.637 -30.141  -0.8290  0.00  0.00     0.000 O
ATOM     30  HD  BGC C   2       8.650 -29.299  -0.6280  0.00  0.00     0.000 HD
BRANCH 17 30
ATOM     30  O4  BGC C   3       5.655 -29.656  -4.8910  0.00  0.00     0.000 O
BRANCH 30 34
ATOM     31  C1  BGC C   3       5.051 -31.562  -8.4040  0.00  0.00     0.000 C
ATOM     32  C2  BGC C   3       5.952 -32.301  -7.3860  0.00  0.00     0.000 C
ATOM     33  C3  BGC C   3       5.832 -31.703  -6.0270  0.00  0.00     0.000 C
ATOM     34  C4  BGC C   3       6.055 -30.193  -6.1430  0.00  0.00     0.000 C
ATOM     35  C5  BGC C   3       5.218 -29.522  -7.2630  0.00  0.00     0.000 C
ATOM     36  O5  BGC C   3       5.404 -30.203  -8.4780  0.00  0.00     0.000 O
ATOM     37   O  BGC C   3       5.782 -33.697  -7.2260  0.00  0.00     0.000 O
ATOM     39  HD  BGC C   3       5.945 -32.942  -6.8340  0.00  0.00     0.000 HD
ATOM     39   O  BGC C   3       6.802 -32.310  -5.1220  0.00  0.00     0.000 O
ATOM     41  HD  BGC C   3       6.965 -31.555  -4.7300  0.00  0.00     0.000 HD
ATOM     41   C  BGC C   3       5.551 -28.036  -7.5290  0.00  0.00     0.000 C
ATOM     42   O  BGC C   3       6.912 -27.778  -8.0290  0.00  0.00     0.000 O
ATOM     44  HD  BGC C   3       7.075 -27.023  -7.6370  0.00  0.00     0.000 HD
BRANCH 31 44
ATOM     44  O4  BGC C   4       5.165 -32.124  -9.6690  0.00  0.00     0.000 O
BRANCH 44 48
ATOM     45  C1  BGC C   4       3.160 -32.948 -13.1410  0.00  0.00     0.000 C
ATOM     46  C2  BGC C   4       3.582 -31.446 -13.0710  0.00  0.00     0.000 C
ATOM     47  C3  BGC C   4       4.555 -31.444 -11.8850  0.00  0.00     0.000 C
ATOM     48  C4  BGC C   4       4.106 -32.070 -10.5790  0.00  0.00     0.000 C
ATOM     49  C5  BGC C   4       3.737 -33.526 -10.9070  0.00  0.00     0.000 C
ATOM     50  O5  BGC C   4       2.784 -33.584 -11.9100  0.00  0.00     0.000 O
ATOM     51   O  BGC C   4       4.270 -30.713 -14.2370  0.00  0.00     0.000 O
ATOM     53  HD  BGC C   4       4.543 -29.926 -14.0010  0.00  0.00     0.000 HD
ATOM     53   O  BGC C   4       4.599 -29.969 -11.5920  0.00  0.00     0.000 O
ATOM     55  HD  BGC C   4       4.872 -29.182 -11.3560  0.00  0.00     0.000 HD
ATOM     55   C  BGC C   4       3.117 -34.216  -9.7190  0.00  0.00     0.000 C
ATOM     56   O  BGC C   4       1.961 -33.577  -9.1650  0.00  0.00     0.000 O
ATOM     58  HD  BGC C   4       2.234 -32.790  -8.9290  0.00  0.00     0.000 HD
BRANCH 45 58
ATOM     58  O4  BGC C   5       2.082 -33.153 -14.0060  0.00  0.00     0.000 O
BRANCH 58 62
ATOM     59  C1  BGC C   5      -0.552 -33.587 -15.4980  0.00  0.00     0.000 C
ATOM     60  C2  BGC C   5       0.191 -32.603 -16.2560  0.00  0.00     0.000 C
ATOM     61  C3  BGC C   5       0.832 -31.520 -15.3930  0.00  0.00     0.000 C
ATOM     62  C4  BGC C   5       1.099 -32.088 -14.0070  0.00  0.00     0.000 C
ATOM     63  C5  BGC C   5      -0.139 -32.845 -13.5860  0.00  0.00     0.000 C
ATOM     64  O5  BGC C   5      -1.103 -33.173 -14.5840  0.00  0.00     0.000 O
ATOM     65   O  BGC C   5      -1.353 -30.898 -12.8310  0.00  0.00     0.000 O
ATOM     67  HD  BGC C   5      -0.832 -31.556 -12.6170  0.00  0.00     0.000 HD
ATOM     67   O  BGC C   5      -1.353 -30.898 -12.8310  0.00  0.00     0.000 O
ATOM     69  HD  BGC C   5      -0.832 -31.556 -12.6170  0.00  0.00     0.000 HD
ENDBRANCH 58 62
ENDBRANCH 45 58
ENDBRANCH 44 48
ENDBRANCH 31 44
ENDBRANCH 30 34
ENDBRANCH 17 30
ENDBRANCH 16 20
ENDBRANCH 1 16
TORSDOF 8
ENDMDL
MODEL 83
REMARK VINA RESULT:      -5.3      3.610      6.612
ROOT
ATOM      1  C1  BGC C   1      21.758   4.303 -11.9820  0.00  0.00     0.000 C
ATOM      2  C2  BGC C   1      22.921   5.284 -12.1280  0.00  0.00     0.000 C
ATOM      3  C3  BGC C   1      22.896   6.295 -10.9880  0.00  0.00     0.000 C
ATOM      4  C4  BGC C   1      21.529   6.937 -10.8180  0.00  0.00     0.000 C
ATOM      5  C5  BGC C   1      20.438   5.870 -10.8440  0.00  0.00     0.000 C
ATOM      6  O5  BGC C   1      20.558   4.970 -11.8990  0.00  0.00     0.000 O
ATOM      7   O  BGC C   1      24.113   4.535 -12.0920  0.00  0.00     0.000 O
ATOM      9  HD  BGC C   1      24.020   5.340 -12.3990  0.00  0.00     0.000 HD
ATOM      9   O  BGC C   1      23.919   7.269 -11.2360  0.00  0.00     0.000 O
ATOM     11  HD  BGC C   1      23.827   8.074 -11.5430  0.00  0.00     0.000 HD
ATOM     11   O  BGC C   1      21.548   7.620  -9.5690  0.00  0.00     0.000 O
ATOM     13  HD  BGC C   1      21.455   8.425  -9.8760  0.00  0.00     0.000 HD
ATOM     13   O  BGC C   1      18.909   7.219 -12.2510  0.00  0.00     0.000 O
ATOM     15  HD  BGC C   1      18.817   8.024 -12.5570  0.00  0.00     0.000 HD
ATOM     15   C  BGC C   1      19.077   6.580 -10.9550  0.00  0.00     0.000 C
ENDROOT
BRANCH 1 16
ATOM     16  O4  BGC C   2      21.702   3.496 -13.1350  0.00  0.00     0.000 O
BRANCH 16 20
ATOM     17  C1  BGC C   2      20.324  -0.204 -14.1750  0.00  0.00     0.000 C
ATOM     18  C2  BGC C   2      19.293   0.913 -14.1750  0.00  0.00     0.000 C
ATOM     19  C3  BGC C   2      19.973   2.275 -14.1360  0.00  0.00     0.000 C
ATOM     20  C4  BGC C   2      20.951   2.312 -13.0110  0.00  0.00     0.000 C
ATOM     21  C5  BGC C   2      21.889   1.109 -13.0590  0.00  0.00     0.000 C
ATOM     22  O5  BGC C   2      21.167  -0.085 -13.0640  0.00  0.00     0.000 O
ATOM     23   O  BGC C   2      18.479   0.792 -15.3510  0.00  0.00     0.000 O
ATOM     25  HD  BGC C   2      18.322   1.575 -15.6860  0.00  0.00     0.000 HD
ATOM     25   O  BGC C   2      18.987   3.284 -13.9510  0.00  0.00     0.000 O
ATOM     27  HD  BGC C   2      18.830   4.067 -14.2860  0.00  0.00     0.000 HD
ATOM     27   C  BGC C   2      22.926   1.053 -11.9190  0.00  0.00     0.000 C
ATOM     28   O  BGC C   2      22.291   1.131 -10.6320  0.00  0.00     0.000 O
ATOM     30  HD  BGC C   2      22.134   1.914 -10.9670  0.00  0.00     0.000 HD
BRANCH 17 30
ATOM     30  O4  BGC C   3      19.662  -1.449 -14.1050  0.00  0.00     0.000 O
BRANCH 30 34
ATOM     31  C1  BGC C   3      20.734  -5.154 -15.3150  0.00  0.00     0.000 C
ATOM     32  C2  BGC C   3      20.316  -5.028 -13.8310  0.00  0.00     0.000 C
ATOM     33  C3  BGC C   3      19.620  -3.736 -13.5750  0.00  0.00     0.000 C
ATOM     34  C4  BGC C   3      20.490  -2.602 -14.1220  0.00  0.00     0.000 C
ATOM     35  C5  BGC C   3      20.985  -2.838 -15.5720  0.00  0.00     0.000 C
ATOM     36  O5  BGC C   3      21.594  -4.101 -15.6760  0.00  0.00     0.000 O
ATOM     37   O  BGC C   3      19.500  -6.041 -13.2740  0.00  0.00     0.000 O
ATOM     39  HD  BGC C   3      19.675  -5.193 -13.3040  0.00  0.00     0.000 HD
ATOM     39   O  BGC C   3      19.375  -3.570 -12.1470  0.00  0.00     0.000 O
ATOM     41  HD  BGC C   3      19.550  -2.722 -12.1780  0.00  0.00     0.000 HD
ATOM     41   C  BGC C   3      22.012  -1.805 -16.0910  0.00  0.00     0.000 C
ATOM     42   O  BGC C   3      23.299  -1.786 -15.3750  0.00  0.00     0.000 O
ATOM     44  HD  BGC C   3      23.475  -0.939 -15.4060  0.00  0.00     0.000 HD
BRANCH 31 44
ATOM     44  O4  BGC C   4      21.382  -6.360 -15.5490  0.00  0.00     0.000 O
BRANCH 44 48
ATOM     45  C1  BGC C   4      22.031  -8.173 -19.1620  0.00  0.00     0.000 C
ATOM     46  C2  BGC C   4      20.974  -7.028 -19.2810  0.00  0.00     0.000 C
ATOM     47  C3  BGC C   4      21.125  -6.314 -17.9320  0.00  0.00     0.000 C
ATOM     48  C4  BGC C   4      21.068  -7.142 -16.6630  0.00  0.00     0.000 C
ATOM     49  C5  BGC C   4      22.182  -8.194 -16.7870  0.00  0.00     0.000 C
ATOM     50  O5  BGC C   4      22.037  -8.937 -17.9470  0.00  0.00     0.000 O
ATOM     51   O  BGC C   4      21.022  -5.955 -20.3830  0.00  0.00     0.000 O
ATOM     53  HD  BGC C   4      20.440  -5.330 -20.2430  0.00  0.00     0.000 HD
ATOM     53   O  BGC C   4      19.845  -5.524 -17.9160  0.00  0.00     0.000 O
ATOM     55  HD  BGC C   4      19.263  -4.898 -17.7760  0.00  0.00     0.000 HD
ATOM     55   C  BGC C   4      22.125  -9.189 -15.6580  0.00  0.00     0.000 C
ATOM     56   O  BGC C   4      20.879  -9.877 -15.5000  0.00  0.00     0.000 O
ATOM     58  HD  BGC C   4      20.296  -9.252 -15.3600  0.00  0.00     0.000 HD
BRANCH 45 58
ATOM     58  O4  BGC C   5      21.909  -9.112 -20.1880  0.00  0.00     0.000 O
BRANCH 58 62
ATOM     59  C1  BGC C   5      21.385 -10.971 -22.5600  0.00  0.00     0.000 C
ATOM     60  C2  BGC C   5      20.777  -9.702 -22.8930  0.00  0.00     0.000 C
ATOM     61  C3  BGC C   5      19.979  -9.085 -21.7480  0.00  0.00     0.000 C
ATOM     62  C4  BGC C   5      20.556  -9.572 -20.4260  0.00  0.00     0.000 C
ATOM     63  C5  BGC C   5      20.782 -11.061 -20.5580  0.00  0.00     0.000 C
ATOM     64  O5  BGC C   5      20.764 -11.635 -21.8630  0.00  0.00     0.000 O
ATOM     65   O  BGC C   5      18.496 -11.683 -20.0830  0.00  0.00     0.000 O
ATOM     67  HD  BGC C   5      19.293 -11.552 -19.7690  0.00  0.00     0.000 HD
ATOM     67   O  BGC C   5      18.496 -11.683 -20.0830  0.00  0.00     0.000 O
ATOM     69  HD  BGC C   5      19.293 -11.552 -19.7690  0.00  0.00     0.000 HD
ENDBRANCH 58 62
ENDBRANCH 45 58
ENDBRANCH 44 48
ENDBRANCH 31 44
ENDBRANCH 30 34
ENDBRANCH 17 30
ENDBRANCH 16 20
ENDBRANCH 1 16
TORSDOF 8
ENDMDL
MODEL 84
REMARK VINA RESULT:      -5.3     22.049     25.237
ROOT
ATOM      1  C1  BGC C   1       0.958 -15.701 -27.7110  0.00  0.00     0.000 C
ATOM      2  C2  BGC C   1       0.248 -14.458 -27.1770  0.00  0.00     0.000 C
ATOM      3  C3  BGC C   1      -0.145 -13.545 -28.3330  0.00  0.00     0.000 C
ATOM      4  C4  BGC C   1       1.019 -13.270 -29.2710  0.00  0.00     0.000 C
ATOM      5  C5  BGC C   1       1.744 -14.570 -29.6070  0.00  0.00     0.000 C
ATOM      6  O5  BGC C   1       2.035 -15.356 -28.4960  0.00  0.00     0.000 O
ATOM      7   O  BGC C   1      -0.898 -14.890 -26.4840  0.00  0.00     0.000 O
ATOM      9  HD  BGC C   1      -0.513 -14.118 -26.4090  0.00  0.00     0.000 HD
ATOM      9   O  BGC C   1      -0.687 -12.338 -27.7820  0.00  0.00     0.000 O
ATOM     11  HD  BGC C   1      -0.301 -11.566 -27.7070  0.00  0.00     0.000 HD
ATOM     11   O  BGC C   1       0.473 -12.671 -30.4400  0.00  0.00     0.000 O
ATOM     13  HD  BGC C   1       0.858 -11.899 -30.3660  0.00  0.00     0.000 HD
ATOM     13   O  BGC C   1       4.001 -13.567 -29.4090  0.00  0.00     0.000 O
ATOM     15  HD  BGC C   1       4.386 -12.795 -29.3340  0.00  0.00     0.000 HD
ATOM     15   C  BGC C   1       3.064 -14.214 -30.3150  0.00  0.00     0.000 C
ENDROOT
BRANCH 1 16
ATOM     16  O4  BGC C   2       1.463 -16.434 -26.6190  0.00  0.00     0.000 O
BRANCH 16 20
ATOM     17  C1  BGC C   2       2.004 -20.345 -25.5740  0.00  0.00     0.000 C
ATOM     18  C2  BGC C   2       3.045 -19.758 -26.5140  0.00  0.00     0.000 C
ATOM     19  C3  BGC C   2       2.955 -18.239 -26.5390  0.00  0.00     0.000 C
ATOM     20  C4  BGC C   2       1.547 -17.826 -26.8120  0.00  0.00     0.000 C
ATOM     21  C5  BGC C   2       0.577 -18.529 -25.8660  0.00  0.00     0.000 C
ATOM     22  O5  BGC C   2       0.724 -19.915 -25.9410  0.00  0.00     0.000 O
ATOM     23   O  BGC C   2       4.349 -20.176 -26.0800  0.00  0.00     0.000 O
ATOM     25  HD  BGC C   2       4.910 -19.520 -26.1530  0.00  0.00     0.000 HD
ATOM     25   O  BGC C   2       3.810 -17.736 -27.5580  0.00  0.00     0.000 O
ATOM     27  HD  BGC C   2       4.372 -17.081 -27.6310  0.00  0.00     0.000 HD
ATOM     27   C  BGC C   2      -0.909 -18.178 -26.0880  0.00  0.00     0.000 C
ATOM     28   O  BGC C   2      -1.300 -18.405 -27.4510  0.00  0.00     0.000 O
ATOM     30  HD  BGC C   2      -0.738 -17.750 -27.5240  0.00  0.00     0.000 HD
BRANCH 17 30
ATOM     30  O4  BGC C   3       2.046 -21.753 -25.6540  0.00  0.00     0.000 O
BRANCH 30 34
ATOM     31  C1  BGC C   3       1.677 -25.067 -23.3690  0.00  0.00     0.000 C
ATOM     32  C2  BGC C   3       0.452 -24.122 -23.3840  0.00  0.00     0.000 C
ATOM     33  C3  BGC C   3       0.543 -23.139 -24.4980  0.00  0.00     0.000 C
ATOM     34  C4  BGC C   3       1.911 -22.456 -24.4280  0.00  0.00     0.000 C
ATOM     35  C5  BGC C   3       3.097 -23.445 -24.2880  0.00  0.00     0.000 C
ATOM     36  O5  BGC C   3       2.866 -24.330 -23.2210  0.00  0.00     0.000 O
ATOM     37   O  BGC C   3      -0.839 -24.698 -23.4610  0.00  0.00     0.000 O
ATOM     39  HD  BGC C   3      -0.325 -24.047 -23.7100  0.00  0.00     0.000 HD
ATOM     39   O  BGC C   3      -0.537 -22.164 -24.4000  0.00  0.00     0.000 O
ATOM     41  HD  BGC C   3      -0.023 -21.513 -24.6480  0.00  0.00     0.000 HD
ATOM     41   C  BGC C   3       4.473 -22.787 -24.0320  0.00  0.00     0.000 C
ATOM     42   O  BGC C   3       4.591 -22.057 -22.7590  0.00  0.00     0.000 O
ATOM     44  HD  BGC C   3       5.105 -21.406 -23.0080  0.00  0.00     0.000 HD
BRANCH 31 44
ATOM     44  O4  BGC C   4       1.587 -25.983 -22.3300  0.00  0.00     0.000 O
BRANCH 44 48
ATOM     45  C1  BGC C   4       2.177 -29.895 -21.2750  0.00  0.00     0.000 C
ATOM     46  C2  BGC C   4       3.499 -29.237 -21.7850  0.00  0.00     0.000 C
ATOM     47  C3  BGC C   4       3.123 -27.750 -21.8160  0.00  0.00     0.000 C
ATOM     48  C4  BGC C   4       1.855 -27.338 -22.5380  0.00  0.00     0.000 C
ATOM     49  C5  BGC C   4       0.711 -28.118 -21.8720  0.00  0.00     0.000 C
ATOM     50  O5  BGC C   4       0.953 -29.482 -21.9030  0.00  0.00     0.000 O
ATOM     51   O  BGC C   4       4.839 -29.362 -21.0360  0.00  0.00     0.000 O
ATOM     53  HD  BGC C   4       5.444 -28.848 -21.3820  0.00  0.00     0.000 HD
ATOM     53   O  BGC C   4       4.232 -27.224 -22.6850  0.00  0.00     0.000 O
ATOM     55  HD  BGC C   4       4.838 -26.710 -23.0300  0.00  0.00     0.000 HD
ATOM     55   C  BGC C   4      -0.589 -27.922 -22.6090  0.00  0.00     0.000 C
ATOM     56   O  BGC C   4      -0.570 -28.260 -24.0010  0.00  0.00     0.000 O
ATOM     58  HD  BGC C   4       0.036 -27.746 -24.3460  0.00  0.00     0.000 HD
BRANCH 45 58
ATOM     58  O4  BGC C   5       2.200 -31.287 -21.3940  0.00  0.00     0.000 O
BRANCH 58 62
ATOM     59  C1  BGC C   5       2.350 -34.341 -21.4390  0.00  0.00     0.000 C
ATOM     60  C2  BGC C   5       1.048 -34.003 -20.9060  0.00  0.00     0.000 C
ATOM     61  C3  BGC C   5       1.083 -32.888 -19.8640  0.00  0.00     0.000 C
ATOM     62  C4  BGC C   5       2.287 -31.998 -20.1350  0.00  0.00     0.000 C
ATOM     63  C5  BGC C   5       3.465 -32.905 -20.4030  0.00  0.00     0.000 C
ATOM     64  O5  BGC C   5       3.209 -34.280 -20.6860  0.00  0.00     0.000 O
ATOM     65   O  BGC C   5       3.972 -33.316 -18.0770  0.00  0.00     0.000 O
ATOM     67  HD  BGC C   5       4.133 -32.838 -18.7810  0.00  0.00     0.000 HD
ATOM     67   O  BGC C   5       3.972 -33.316 -18.0770  0.00  0.00     0.000 O
ATOM     69  HD  BGC C   5       4.133 -32.838 -18.7810  0.00  0.00     0.000 HD
ENDBRANCH 58 62
ENDBRANCH 45 58
ENDBRANCH 44 48
ENDBRANCH 31 44
ENDBRANCH 30 34
ENDBRANCH 17 30
ENDBRANCH 16 20
ENDBRANCH 1 16
TORSDOF 8
ENDMDL
MODEL 85
REMARK VINA RESULT:      -5.3     13.669     21.638
ROOT
ATOM      1  C1  BGC C   1      11.100 -23.990 -27.7300  0.00  0.00     0.000 C
ATOM      2  C2  BGC C   1      11.843 -25.145 -27.0590  0.00  0.00     0.000 C
ATOM      3  C3  BGC C   1      10.980 -26.401 -27.0760  0.00  0.00     0.000 C
ATOM      4  C4  BGC C   1       9.579 -26.143 -26.5470  0.00  0.00     0.000 C
ATOM      5  C5  BGC C   1       9.003 -24.877 -27.1750  0.00  0.00     0.000 C
ATOM      6  O5  BGC C   1       9.871 -23.789 -27.1450  0.00  0.00     0.000 O
ATOM      7   O  BGC C   1      13.032 -25.359 -27.7820  0.00  0.00     0.000 O
ATOM      9  HD  BGC C   1      12.866 -25.627 -26.9760  0.00  0.00     0.000 HD
ATOM      9   O  BGC C   1      11.659 -27.417 -26.3250  0.00  0.00     0.000 O
ATOM     11  HD  BGC C   1      11.492 -27.685 -25.5190  0.00  0.00     0.000 HD
ATOM     11   O  BGC C   1       8.796 -27.283 -26.8830  0.00  0.00     0.000 O
ATOM     13  HD  BGC C   1       8.630 -27.551 -26.0760  0.00  0.00     0.000 HD
ATOM     13   O  BGC C   1       8.014 -24.066 -25.0530  0.00  0.00     0.000 O
ATOM     15  HD  BGC C   1       7.848 -24.334 -24.2460  0.00  0.00     0.000 HD
ATOM     15   C  BGC C   1       7.721 -24.503 -26.4080  0.00  0.00     0.000 C
ENDROOT
BRANCH 1 16
ATOM     16  O4  BGC C   2      11.843 -22.808 -27.5440  0.00  0.00     0.000 O
BRANCH 16 20
ATOM     17  C1  BGC C   2      11.962 -19.035 -29.0990  0.00  0.00     0.000 C
ATOM     18  C2  BGC C   2      10.934 -19.270 -28.0040  0.00  0.00     0.000 C
ATOM     19  C3  BGC C   2      11.222 -20.567 -27.2620  0.00  0.00     0.000 C
ATOM     20  C4  BGC C   2      11.373 -21.681 -28.2430  0.00  0.00     0.000 C
ATOM     21  C5  BGC C   2      12.368 -21.314 -29.3400  0.00  0.00     0.000 C
ATOM     22  O5  BGC C   2      11.997 -20.126 -29.9730  0.00  0.00     0.000 O
ATOM     23   O  BGC C   2      10.959 -18.157 -27.0970  0.00  0.00     0.000 O
ATOM     25  HD  BGC C   2      10.883 -18.437 -26.2810  0.00  0.00     0.000 HD
ATOM     25   O  BGC C   2      10.146 -20.849 -26.3760  0.00  0.00     0.000 O
ATOM     27  HD  BGC C   2      10.070 -21.129 -25.5600  0.00  0.00     0.000 HD
ATOM     27   C  BGC C   2      12.575 -22.401 -30.4150  0.00  0.00     0.000 C
ATOM     28   O  BGC C   2      11.324 -22.800 -30.9990  0.00  0.00     0.000 O
ATOM     30  HD  BGC C   2      11.248 -23.080 -30.1830  0.00  0.00     0.000 HD
BRANCH 17 30
ATOM     30  O4  BGC C   3      11.605 -17.882 -29.8320  0.00  0.00     0.000 O
BRANCH 30 34
ATOM     31  C1  BGC C   3      13.634 -14.483 -30.6480  0.00  0.00     0.000 C
ATOM     32  C2  BGC C   3      13.048 -15.225 -31.8730  0.00  0.00     0.000 C
ATOM     33  C3  BGC C   3      12.046 -16.245 -31.4570  0.00  0.00     0.000 C
ATOM     34  C4  BGC C   3      12.678 -17.130 -30.3790  0.00  0.00     0.000 C
ATOM     35  C5  BGC C   3      13.360 -16.334 -29.2370  0.00  0.00     0.000 C
ATOM     36  O5  BGC C   3      14.255 -15.391 -29.7720  0.00  0.00     0.000 O
ATOM     37   O  BGC C   3      12.440 -14.458 -32.8950  0.00  0.00     0.000 O
ATOM     39  HD  BGC C   3      12.414 -15.189 -32.4310  0.00  0.00     0.000 HD
ATOM     39   O  BGC C   3      11.625 -17.036 -32.6060  0.00  0.00     0.000 O
ATOM     41  HD  BGC C   3      11.599 -17.767 -32.1420  0.00  0.00     0.000 HD
ATOM     41   C  BGC C   3      14.163 -17.189 -28.2300  0.00  0.00     0.000 C
ATOM     42   O  BGC C   3      15.330 -17.889 -28.7930  0.00  0.00     0.000 O
ATOM     44  HD  BGC C   3      15.304 -18.620 -28.3290  0.00  0.00     0.000 HD
BRANCH 31 44
ATOM     44  O4  BGC C   4      14.566 -13.531 -31.0410  0.00  0.00     0.000 O
BRANCH 44 48
ATOM     45  C1  BGC C   4      15.940  -9.737 -30.3520  0.00  0.00     0.000 C
ATOM     46  C2  BGC C   4      15.974 -10.600 -29.0500  0.00  0.00     0.000 C
ATOM     47  C3  BGC C   4      15.729 -12.012 -29.5970  0.00  0.00     0.000 C
ATOM     48  C4  BGC C   4      14.543 -12.238 -30.5130  0.00  0.00     0.000 C
ATOM     49  C5  BGC C   4      14.728 -11.279 -31.7000  0.00  0.00     0.000 C
ATOM     50  O5  BGC C   4      14.857  -9.970 -31.2660  0.00  0.00     0.000 O
ATOM     51   O  BGC C   4      17.201 -10.667 -28.1220  0.00  0.00     0.000 O
ATOM     53  HD  BGC C   4      17.105 -11.275 -27.5130  0.00  0.00     0.000 HD
ATOM     53   O  BGC C   4      15.355 -12.719 -28.3240  0.00  0.00     0.000 O
ATOM     55  HD  BGC C   4      15.259 -13.326 -27.7140  0.00  0.00     0.000 HD
ATOM     55   C  BGC C   4      13.525 -11.288 -32.6060  0.00  0.00     0.000 C
ATOM     56   O  BGC C   4      12.274 -10.984 -31.9790  0.00  0.00     0.000 O
ATOM     58  HD  BGC C   4      12.178 -11.591 -31.3690  0.00  0.00     0.000 HD
BRANCH 45 58
ATOM     58  O4  BGC C   5      15.902  -8.368 -30.0760  0.00  0.00     0.000 O
BRANCH 58 62
ATOM     59  C1  BGC C   5      15.633  -5.407 -29.3590  0.00  0.00     0.000 C
ATOM     60  C2  BGC C   5      16.125  -6.073 -28.1720  0.00  0.00     0.000 C
ATOM     61  C3  BGC C   5      15.401  -7.379 -27.8570  0.00  0.00     0.000 C
ATOM     62  C4  BGC C   5      14.860  -7.968 -29.1520  0.00  0.00     0.000 C
ATOM     63  C5  BGC C   5      14.216  -6.840 -29.9230  0.00  0.00     0.000 C
ATOM     64  O5  BGC C   5      14.504  -5.500 -29.5290  0.00  0.00     0.000 O
ATOM     65   O  BGC C   5      12.122  -6.907 -28.7200  0.00  0.00     0.000 O
ATOM     67  HD  BGC C   5      12.570  -7.174 -29.4110  0.00  0.00     0.000 HD
ATOM     67   O  BGC C   5      12.122  -6.907 -28.7200  0.00  0.00     0.000 O
ATOM     69  HD  BGC C   5      12.570  -7.174 -29.4110  0.00  0.00     0.000 HD
ENDBRANCH 58 62
ENDBRANCH 45 58
ENDBRANCH 44 48
ENDBRANCH 31 44
ENDBRANCH 30 34
ENDBRANCH 17 30
ENDBRANCH 16 20
ENDBRANCH 1 16
TORSDOF 8
ENDMDL
MODEL 86
REMARK VINA RESULT:      -5.3     14.228     16.269
ROOT
ATOM      1  C1  BGC C   1      16.316   4.026 -23.2170  0.00  0.00     0.000 C
ATOM      2  C2  BGC C   1      17.035   5.191 -23.8960  0.00  0.00     0.000 C
ATOM      3  C3  BGC C   1      18.466   5.293 -23.3790  0.00  0.00     0.000 C
ATOM      4  C4  BGC C   1      18.530   5.293 -21.8610  0.00  0.00     0.000 C
ATOM      5  C5  BGC C   1      17.648   4.183 -21.2950  0.00  0.00     0.000 C
ATOM      6  O5  BGC C   1      16.371   4.144 -21.8470  0.00  0.00     0.000 O
ATOM      7   O  BGC C   1      17.033   4.939 -25.2810  0.00  0.00     0.000 O
ATOM      9  HD  BGC C   1      17.166   5.705 -24.8980  0.00  0.00     0.000 HD
ATOM      9   O  BGC C   1      19.058   6.471 -23.9410  0.00  0.00     0.000 O
ATOM     11  HD  BGC C   1      19.192   7.236 -23.5580  0.00  0.00     0.000 HD
ATOM     11   O  BGC C   1      19.894   5.094 -21.5070  0.00  0.00     0.000 O
ATOM     13  HD  BGC C   1      20.027   5.859 -21.1230  0.00  0.00     0.000 HD
ATOM     13   O  BGC C   1      16.747   5.592 -19.4680  0.00  0.00     0.000 O
ATOM     15  HD  BGC C   1      16.880   6.357 -19.0840  0.00  0.00     0.000 HD
ATOM     15   C  BGC C   1      17.521   4.400 -19.7760  0.00  0.00     0.000 C
ENDROOT
BRANCH 1 16
ATOM     16  O4  BGC C   2      14.955   4.065 -23.5790  0.00  0.00     0.000 O
BRANCH 16 20
ATOM     17  C1  BGC C   2      11.927   1.434 -24.3400  0.00  0.00     0.000 C
ATOM     18  C2  BGC C   2      12.276   1.639 -22.8750  0.00  0.00     0.000 C
ATOM     19  C3  BGC C   2      13.139   2.880 -22.6940  0.00  0.00     0.000 C
ATOM     20  C4  BGC C   2      14.304   2.818 -23.6240  0.00  0.00     0.000 C
ATOM     21  C5  BGC C   2      13.851   2.533 -25.0530  0.00  0.00     0.000 C
ATOM     22  O5  BGC C   2      13.092   1.363 -25.1110  0.00  0.00     0.000 O
ATOM     23   O  BGC C   2      11.061   1.759 -22.1210  0.00  0.00     0.000 O
ATOM     25  HD  BGC C   2      11.144   2.376 -21.5190  0.00  0.00     0.000 HD
ATOM     25   O  BGC C   2      13.599   2.937 -21.3490  0.00  0.00     0.000 O
ATOM     27  HD  BGC C   2      13.682   3.555 -20.7470  0.00  0.00     0.000 HD
ATOM     27   C  BGC C   2      14.993   2.431 -26.0840  0.00  0.00     0.000 C
ATOM     28   O  BGC C   2      15.977   1.466 -25.6790  0.00  0.00     0.000 O
ATOM     30  HD  BGC C   2      16.061   2.083 -25.0770  0.00  0.00     0.000 HD
BRANCH 17 30
ATOM     30  O4  BGC C   3      11.217   0.222 -24.4850  0.00  0.00     0.000 O
BRANCH 30 34
ATOM     31  C1  BGC C   3       9.188  -1.914 -27.2520  0.00  0.00     0.000 C
ATOM     32  C2  BGC C   3      10.725  -2.097 -27.2580  0.00  0.00     0.000 C
ATOM     33  C3  BGC C   3      11.336  -1.559 -26.0110  0.00  0.00     0.000 C
ATOM     34  C4  BGC C   3      10.834  -0.127 -25.8070  0.00  0.00     0.000 C
ATOM     35  C5  BGC C   3       9.297   0.021 -25.9350  0.00  0.00     0.000 C
ATOM     36  O5  BGC C   3       8.854  -0.553 -27.1400  0.00  0.00     0.000 O
ATOM     37   O  BGC C   3      11.245  -3.402 -27.4290  0.00  0.00     0.000 O
ATOM     39  HD  BGC C   3      11.330  -2.640 -27.0260  0.00  0.00     0.000 HD
ATOM     39   O  BGC C   3      12.790  -1.599 -26.1040  0.00  0.00     0.000 O
ATOM     41  HD  BGC C   3      12.875  -0.837 -25.7010  0.00  0.00     0.000 HD
ATOM     41   C  BGC C   3       8.774   1.476 -25.9170  0.00  0.00     0.000 C
ATOM     42   O  BGC C   3       9.212   2.315 -27.0460  0.00  0.00     0.000 O
ATOM     44  HD  BGC C   3       9.297   3.076 -26.6420  0.00  0.00     0.000 HD
BRANCH 31 44
ATOM     44  O4  BGC C   4       8.622  -2.418 -28.4160  0.00  0.00     0.000 O
BRANCH 44 48
ATOM     45  C1  BGC C   4       5.350  -4.307 -29.9920  0.00  0.00     0.000 C
ATOM     46  C2  BGC C   4       4.981  -2.891 -29.4450  0.00  0.00     0.000 C
ATOM     47  C3  BGC C   4       6.365  -2.272 -29.2070  0.00  0.00     0.000 C
ATOM     48  C4  BGC C   4       7.379  -3.054 -28.3950  0.00  0.00     0.000 C
ATOM     49  C5  BGC C   4       7.562  -4.397 -29.1200  0.00  0.00     0.000 C
ATOM     50  O5  BGC C   4       6.350  -5.048 -29.2760  0.00  0.00     0.000 O
ATOM     51   O  BGC C   4       4.149  -1.874 -30.2480  0.00  0.00     0.000 O
ATOM     53  HD  BGC C   4       4.132  -1.101 -29.8580  0.00  0.00     0.000 HD
ATOM     53   O  BGC C   4       5.981  -1.125 -28.3130  0.00  0.00     0.000 O
ATOM     55  HD  BGC C   4       5.963  -0.351 -27.9240  0.00  0.00     0.000 HD
ATOM     55   C  BGC C   4       8.427  -5.338 -28.3210  0.00  0.00     0.000 C
ATOM     56   O  BGC C   4       7.980  -5.608 -26.9870  0.00  0.00     0.000 O
ATOM     58  HD  BGC C   4       7.963  -4.835 -26.5980  0.00  0.00     0.000 HD
BRANCH 45 58
ATOM     58  O4  BGC C   5       4.240  -5.153 -30.0580  0.00  0.00     0.000 O
BRANCH 58 62
ATOM     59  C1  BGC C   5       1.640  -6.729 -30.3870  0.00  0.00     0.000 C
ATOM     60  C2  BGC C   5       2.694  -7.562 -30.9230  0.00  0.00     0.000 C
ATOM     61  C3  BGC C   5       3.676  -6.809 -31.8170  0.00  0.00     0.000 C
ATOM     62  C4  BGC C   5       3.709  -5.348 -31.3920  0.00  0.00     0.000 C
ATOM     63  C5  BGC C   5       2.278  -4.906 -31.1940  0.00  0.00     0.000 C
ATOM     64  O5  BGC C   5       1.268  -5.909 -31.0940  0.00  0.00     0.000 O
ATOM     65   O  BGC C   5       1.844  -4.480 -33.5320  0.00  0.00     0.000 O
ATOM     67  HD  BGC C   5       2.090  -4.153 -32.7680  0.00  0.00     0.000 HD
ATOM     67   O  BGC C   5       1.844  -4.480 -33.5320  0.00  0.00     0.000 O
ATOM     69  HD  BGC C   5       2.090  -4.153 -32.7680  0.00  0.00     0.000 HD
ENDBRANCH 58 62
ENDBRANCH 45 58
ENDBRANCH 44 48
ENDBRANCH 31 44
ENDBRANCH 30 34
ENDBRANCH 17 30
ENDBRANCH 16 20
ENDBRANCH 1 16
TORSDOF 8
ENDMDL
MODEL 87
REMARK VINA RESULT:      -5.2     23.454     25.843
ROOT
ATOM      1  C1  BGC C   1       4.622   8.116  -1.4600  0.00  0.00     0.000 C
ATOM      2  C2  BGC C   1       3.824   7.568  -2.6430  0.00  0.00     0.000 C
ATOM      3  C3  BGC C   1       2.989   8.678  -3.2680  0.00  0.00     0.000 C
ATOM      4  C4  BGC C   1       2.172   9.435  -2.2340  0.00  0.00     0.000 C
ATOM      5  C5  BGC C   1       3.041   9.792  -1.0320  0.00  0.00     0.000 C
ATOM      6  O5  BGC C   1       3.794   8.726  -0.5470  0.00  0.00     0.000 O
ATOM      7   O  BGC C   1       4.748   7.064  -3.5780  0.00  0.00     0.000 O
ATOM      9  HD  BGC C   1       3.904   6.874  -3.5350  0.00  0.00     0.000 HD
ATOM      9   O  BGC C   1       2.162   8.095  -4.2840  0.00  0.00     0.000 O
ATOM     11  HD  BGC C   1       1.319   7.904  -4.2410  0.00  0.00     0.000 HD
ATOM     11   O  BGC C   1       1.679  10.606  -2.8760  0.00  0.00     0.000 O
ATOM     13  HD  BGC C   1       0.836  10.416  -2.8330  0.00  0.00     0.000 HD
ATOM     13   O  BGC C   1       1.288   9.225   0.6240  0.00  0.00     0.000 O
ATOM     15  HD  BGC C   1       0.444   9.035   0.6670  0.00  0.00     0.000 HD
ATOM     15   C  BGC C   1       2.119  10.295   0.0940  0.00  0.00     0.000 C
ENDROOT
BRANCH 1 16
ATOM     16  O4  BGC C   2       5.243   7.039  -0.7980  0.00  0.00     0.000 O
BRANCH 16 20
ATOM     17  C1  BGC C   2       8.657   6.335   1.3290  0.00  0.00     0.000 C
ATOM     18  C2  BGC C   2       7.536   7.032   2.0830  0.00  0.00     0.000 C
ATOM     19  C3  BGC C   2       6.220   6.913   1.3270  0.00  0.00     0.000 C
ATOM     20  C4  BGC C   2       6.412   7.359  -0.0830  0.00  0.00     0.000 C
ATOM     21  C5  BGC C   2       7.606   6.657  -0.7230  0.00  0.00     0.000 C
ATOM     22  O5  BGC C   2       8.763   6.852   0.0340  0.00  0.00     0.000 O
ATOM     23   O  BGC C   2       7.419   6.445   3.3880  0.00  0.00     0.000 O
ATOM     25  HD  BGC C   2       6.585   6.359   3.6020  0.00  0.00     0.000 HD
ATOM     25   O  BGC C   2       5.241   7.726   1.9610  0.00  0.00     0.000 O
ATOM     27  HD  BGC C   2       4.406   7.641   2.1750  0.00  0.00     0.000 HD
ATOM     27   C  BGC C   2       7.895   7.072  -2.1800  0.00  0.00     0.000 C
ATOM     28   O  BGC C   2       8.042   8.497  -2.2970  0.00  0.00     0.000 O
ATOM     30  HD  BGC C   2       7.207   8.411  -2.0830  0.00  0.00     0.000 HD
BRANCH 17 30
ATOM     30  O4  BGC C   3       9.878   6.555   2.0030  0.00  0.00     0.000 O
BRANCH 30 34
ATOM     31  C1  BGC C   3      13.342   4.711   2.9690  0.00  0.00     0.000 C
ATOM     32  C2  BGC C   3      13.156   5.046   1.4700  0.00  0.00     0.000 C
ATOM     33  C3  BGC C   3      12.041   6.013   1.2680  0.00  0.00     0.000 C
ATOM     34  C4  BGC C   3      10.803   5.478   1.9920  0.00  0.00     0.000 C
ATOM     35  C5  BGC C   3      11.073   5.039   3.4540  0.00  0.00     0.000 C
ATOM     36  O5  BGC C   3      12.165   4.154   3.4990  0.00  0.00     0.000 O
ATOM     37   O  BGC C   3      14.265   5.557   0.7530  0.00  0.00     0.000 O
ATOM     39  HD  BGC C   3      13.408   5.592   0.8750  0.00  0.00     0.000 HD
ATOM     39   O  BGC C   3      11.782   6.194  -0.1550  0.00  0.00     0.000 O
ATOM     41  HD  BGC C   3      10.925   6.229  -0.0330  0.00  0.00     0.000 HD
ATOM     41   C  BGC C   3       9.893   4.327   4.1540  0.00  0.00     0.000 C
ATOM     42   O  BGC C   3       9.500   3.036   3.5630  0.00  0.00     0.000 O
ATOM     44  HD  BGC C   3       8.643   3.071   3.6840  0.00  0.00     0.000 HD
BRANCH 31 44
ATOM     44  O4  BGC C   4      14.384   3.811   3.1520  0.00  0.00     0.000 O
BRANCH 44 48
ATOM     45  C1  BGC C   4      17.546   2.831   5.5600  0.00  0.00     0.000 C
ATOM     46  C2  BGC C   4      16.200   2.292   6.1410  0.00  0.00     0.000 C
ATOM     47  C3  BGC C   4      15.242   2.492   4.9610  0.00  0.00     0.000 C
ATOM     48  C4  BGC C   4      15.181   3.854   4.2990  0.00  0.00     0.000 C
ATOM     49  C5  BGC C   4      16.610   4.164   3.8260  0.00  0.00     0.000 C
ATOM     50  O5  BGC C   4      17.509   4.094   4.8780  0.00  0.00     0.000 O
ATOM     51   O  BGC C   4      16.024   0.848   6.6440  0.00  0.00     0.000 O
ATOM     53  HD  BGC C   4      15.195   0.673   6.8240  0.00  0.00     0.000 HD
ATOM     53   O  BGC C   4      13.925   2.369   5.6770  0.00  0.00     0.000 O
ATOM     55  HD  BGC C   4      13.096   2.195   5.8570  0.00  0.00     0.000 HD
ATOM     55   C  BGC C   4      16.720   5.570   3.2940  0.00  0.00     0.000 C
ATOM     56   O  BGC C   4      16.313   6.607   4.1950  0.00  0.00     0.000 O
ATOM     58  HD  BGC C   4      15.484   6.432   4.3740  0.00  0.00     0.000 HD
BRANCH 45 58
ATOM     58  O4  BGC C   5      18.527   2.974   6.5450  0.00  0.00     0.000 O
BRANCH 58 62
ATOM     59  C1  BGC C   5      21.275   1.810   7.2100  0.00  0.00     0.000 C
ATOM     60  C2  BGC C   5      21.121   2.990   8.0320  0.00  0.00     0.000 C
ATOM     61  C3  BGC C   5      20.559   4.193   7.2790  0.00  0.00     0.000 C
ATOM     62  C4  BGC C   5      19.709   3.695   6.1190  0.00  0.00     0.000 C
ATOM     63  C5  BGC C   5      20.483   2.591   5.4370  0.00  0.00     0.000 C
ATOM     64  O5  BGC C   5      21.590   2.015   6.1280  0.00  0.00     0.000 O
ATOM     65   O  BGC C   5      21.872   4.065   4.1200  0.00  0.00     0.000 O
ATOM     67  HD  BGC C   5      21.150   3.587   4.1550  0.00  0.00     0.000 HD
ATOM     67   O  BGC C   5      21.872   4.065   4.1200  0.00  0.00     0.000 O
ATOM     69  HD  BGC C   5      21.150   3.587   4.1550  0.00  0.00     0.000 HD
ENDBRANCH 58 62
ENDBRANCH 45 58
ENDBRANCH 44 48
ENDBRANCH 31 44
ENDBRANCH 30 34
ENDBRANCH 17 30
ENDBRANCH 16 20
ENDBRANCH 1 16
TORSDOF 8
ENDMDL
MODEL 88
REMARK VINA RESULT:      -5.2     15.787     17.719
ROOT
ATOM      1  C1  BGC C   1      14.199   2.346 -25.0060  0.00  0.00     0.000 C
ATOM      2  C2  BGC C   1      15.005   3.398 -25.7660  0.00  0.00     0.000 C
ATOM      3  C3  BGC C   1      16.291   3.716 -25.0130  0.00  0.00     0.000 C
ATOM      4  C4  BGC C   1      16.036   4.034 -23.5490  0.00  0.00     0.000 C
ATOM      5  C5  BGC C   1      15.094   2.999 -22.9400  0.00  0.00     0.000 C
ATOM      6  O5  BGC C   1      13.962   2.747 -23.7110  0.00  0.00     0.000 O
ATOM      7   O  BGC C   1      15.301   2.867 -27.0360  0.00  0.00     0.000 O
ATOM      9  HD  BGC C   1      15.325   3.703 -26.8100  0.00  0.00     0.000 HD
ATOM      9   O  BGC C   1      16.948   4.796 -25.6900  0.00  0.00     0.000 O
ATOM     11  HD  BGC C   1      16.972   5.631 -25.4630  0.00  0.00     0.000 HD
ATOM     11   O  BGC C   1      17.302   4.019 -22.8980  0.00  0.00     0.000 O
ATOM     13  HD  BGC C   1      17.325   4.855 -22.6720  0.00  0.00     0.000 HD
ATOM     13   O  BGC C   1      13.782   4.679 -21.6780  0.00  0.00     0.000 O
ATOM     15  HD  BGC C   1      13.806   5.515 -21.4520  0.00  0.00     0.000 HD
ATOM     15   C  BGC C   1      14.643   3.513 -21.5600  0.00  0.00     0.000 C
ENDROOT
BRANCH 1 16
ATOM     16  O4  BGC C   2      12.944   2.203 -25.6290  0.00  0.00     0.000 O
BRANCH 16 20
ATOM     17  C1  BGC C   2      10.174  -0.727 -26.2740  0.00  0.00     0.000 C
ATOM     18  C2  BGC C   2      10.222  -0.156 -24.8650  0.00  0.00     0.000 C
ATOM     19  C3  BGC C   2      11.010   1.146 -24.8370  0.00  0.00     0.000 C
ATOM     20  C4  BGC C   2      12.337   0.941 -25.4860  0.00  0.00     0.000 C
ATOM     21  C5  BGC C   2      12.181   0.295 -26.8600  0.00  0.00     0.000 C
ATOM     22  O5  BGC C   2      11.470  -0.903 -26.7700  0.00  0.00     0.000 O
ATOM     23   O  BGC C   2       8.879   0.059 -24.4060  0.00  0.00     0.000 O
ATOM     25  HD  BGC C   2       8.831   0.806 -23.9700  0.00  0.00     0.000 HD
ATOM     25   O  BGC C   2      11.192   1.552 -23.4860  0.00  0.00     0.000 O
ATOM     27  HD  BGC C   2      11.144   2.299 -23.0500  0.00  0.00     0.000 HD
ATOM     27   C  BGC C   2      13.507   0.025 -27.6010  0.00  0.00     0.000 C
ATOM     28   O  BGC C   2      14.408  -0.749 -26.7930  0.00  0.00     0.000 O
ATOM     30  HD  BGC C   2      14.359  -0.002 -26.3570  0.00  0.00     0.000 HD
BRANCH 17 30
ATOM     30  O4  BGC C   3       9.529  -1.982 -26.2460  0.00  0.00     0.000 O
BRANCH 30 34
ATOM     31  C1  BGC C   3       6.952  -4.135 -28.4950  0.00  0.00     0.000 C
ATOM     32  C2  BGC C   3       8.448  -4.494 -28.6610  0.00  0.00     0.000 C
ATOM     33  C3  BGC C   3       9.267  -3.908 -27.5630  0.00  0.00     0.000 C
ATOM     34  C4  BGC C   3       8.945  -2.415 -27.4650  0.00  0.00     0.000 C
ATOM     35  C5  BGC C   3       7.426  -2.104 -27.4280  0.00  0.00     0.000 C
ATOM     36  O5  BGC C   3       6.776  -2.740 -28.4990  0.00  0.00     0.000 O
ATOM     37   O  BGC C   3       8.807  -5.860 -28.7440  0.00  0.00     0.000 O
ATOM     39  HD  BGC C   3       9.020  -5.077 -28.4420  0.00  0.00     0.000 HD
ATOM     39   O  BGC C   3      10.685  -4.124 -27.8220  0.00  0.00     0.000 O
ATOM     41  HD  BGC C   3      10.899  -3.341 -27.5200  0.00  0.00     0.000 HD
ATOM     41   C  BGC C   3       7.062  -0.604 -27.5130  0.00  0.00     0.000 C
ATOM     42   O  BGC C   3       7.433   0.061 -28.7730  0.00  0.00     0.000 O
ATOM     44  HD  BGC C   3       7.647   0.845 -28.4710  0.00  0.00     0.000 HD
BRANCH 31 44
ATOM     44  O4  BGC C   4       6.192  -4.685 -29.5200  0.00  0.00     0.000 O
BRANCH 44 48
ATOM     45  C1  BGC C   4       2.513  -6.202 -30.4820  0.00  0.00     0.000 C
ATOM     46  C2  BGC C   4       2.519  -4.641 -30.5440  0.00  0.00     0.000 C
ATOM     47  C3  BGC C   4       4.018  -4.325 -30.4640  0.00  0.00     0.000 C
ATOM     48  C4  BGC C   4       4.831  -4.949 -29.3460  0.00  0.00     0.000 C
ATOM     49  C5  BGC C   4       4.659  -6.469 -29.4890  0.00  0.00     0.000 C
ATOM     50  O5  BGC C   4       3.320  -6.822 -29.4690  0.00  0.00     0.000 O
ATOM     51   O  BGC C   4       1.940  -3.848 -31.7300  0.00  0.00     0.000 O
ATOM     53  HD  BGC C   4       2.124  -3.004 -31.6670  0.00  0.00     0.000 HD
ATOM     53   O  BGC C   4       3.953  -2.866 -30.1040  0.00  0.00     0.000 O
ATOM     55  HD  BGC C   4       4.137  -2.022 -30.0420  0.00  0.00     0.000 HD
ATOM     55   C  BGC C   4       5.287  -7.204 -28.3330  0.00  0.00     0.000 C
ATOM     56   O  BGC C   4       4.826  -6.822 -27.0320  0.00  0.00     0.000 O
ATOM     58  HD  BGC C   4       5.010  -5.978 -26.9690  0.00  0.00     0.000 HD
BRANCH 45 58
ATOM     58  O4  BGC C   5       1.228  -6.717 -30.2980  0.00  0.00     0.000 O
BRANCH 58 62
ATOM     59  C1  BGC C   5      -0.875  -8.935 -30.1980  0.00  0.00     0.000 C
ATOM     60  C2  BGC C   5       0.252  -9.473 -30.9280  0.00  0.00     0.000 C
ATOM     61  C3  BGC C   5       0.828  -8.512 -31.9640  0.00  0.00     0.000 C
ATOM     62  C4  BGC C   5       0.545  -7.083 -31.5220  0.00  0.00     0.000 C
ATOM     63  C5  BGC C   5      -0.896  -7.032 -31.0680  0.00  0.00     0.000 C
ATOM     64  O5  BGC C   5      -1.569  -8.263 -30.8130  0.00  0.00     0.000 O
ATOM     65   O  BGC C   5      -1.827  -6.801 -33.2850  0.00  0.00     0.000 O
ATOM     67  HD  BGC C   5      -1.548  -6.399 -32.5700  0.00  0.00     0.000 HD
ATOM     67   O  BGC C   5      -1.827  -6.801 -33.2850  0.00  0.00     0.000 O
ATOM     69  HD  BGC C   5      -1.548  -6.399 -32.5700  0.00  0.00     0.000 HD
ENDBRANCH 58 62
ENDBRANCH 45 58
ENDBRANCH 44 48
ENDBRANCH 31 44
ENDBRANCH 30 34
ENDBRANCH 17 30
ENDBRANCH 16 20
ENDBRANCH 1 16
TORSDOF 8
ENDMDL
MODEL 89
REMARK VINA RESULT:      -5.2     26.863     28.743
ROOT
ATOM      1  C1  BGC C   1       8.229 -28.715  -0.8840  0.00  0.00     0.000 C
ATOM      2  C2  BGC C   1       9.624 -28.229  -0.4940  0.00  0.00     0.000 C
ATOM      3  C3  BGC C   1       9.845 -28.423   1.0020  0.00  0.00     0.000 C
ATOM      4  C4  BGC C   1       8.708 -27.850   1.8310  0.00  0.00     0.000 C
ATOM      5  C5  BGC C   1       7.363 -28.279   1.2500  0.00  0.00     0.000 C
ATOM      6  O5  BGC C   1       7.261 -28.096  -0.1260  0.00  0.00     0.000 O
ATOM      7   O  BGC C   1      10.557 -28.985  -1.2280  0.00  0.00     0.000 O
ATOM      9  HD  BGC C   1      10.704 -28.226  -0.8390  0.00  0.00     0.000 HD
ATOM      9   O  BGC C   1      11.108 -27.836   1.3450  0.00  0.00     0.000 O
ATOM     11  HD  BGC C   1      11.255 -27.076   1.7340  0.00  0.00     0.000 HD
ATOM     11   O  BGC C   1       8.874 -28.343   3.1550  0.00  0.00     0.000 O
ATOM     13  HD  BGC C   1       9.021 -27.584   3.5440  0.00  0.00     0.000 HD
ATOM     13   O  BGC C   1       6.322 -26.052   1.5590  0.00  0.00     0.000 O
ATOM     15  HD  BGC C   1       6.469 -25.293   1.9480  0.00  0.00     0.000 HD
ATOM     15   C  BGC C   1       6.259 -27.455   1.9380  0.00  0.00     0.000 C
ENDROOT
BRANCH 1 16
ATOM     16  O4  BGC C   2       7.989 -28.363  -2.2260  0.00  0.00     0.000 O
BRANCH 16 20
ATOM     17  C1  BGC C   2       6.108 -29.911  -5.5030  0.00  0.00     0.000 C
ATOM     18  C2  BGC C   2       5.200 -29.400  -4.3950  0.00  0.00     0.000 C
ATOM     19  C3  BGC C   2       5.979 -28.533  -3.4170  0.00  0.00     0.000 C
ATOM     20  C4  BGC C   2       7.194 -29.266  -2.9560  0.00  0.00     0.000 C
ATOM     21  C5  BGC C   2       7.992 -29.802  -4.1410  0.00  0.00     0.000 C
ATOM     22  O5  BGC C   2       7.194 -30.604  -4.9580  0.00  0.00     0.000 O
ATOM     23   O  BGC C   2       4.126 -28.652  -4.9850  0.00  0.00     0.000 O
ATOM     25  HD  BGC C   2       3.960 -27.947  -4.5090  0.00  0.00     0.000 HD
ATOM     25   O  BGC C   2       5.150 -28.227  -2.3020  0.00  0.00     0.000 O
ATOM     27  HD  BGC C   2       4.983 -27.522  -1.8270  0.00  0.00     0.000 HD
ATOM     27   C  BGC C   2       9.260 -30.595  -3.7600  0.00  0.00     0.000 C
ATOM     28   O  BGC C   2       8.952 -31.663  -2.8500  0.00  0.00     0.000 O
ATOM     30  HD  BGC C   2       8.786 -30.959  -2.3750  0.00  0.00     0.000 HD
BRANCH 17 30
ATOM     30  O4  BGC C   3       5.381 -30.794  -6.3310  0.00  0.00     0.000 O
BRANCH 30 34
ATOM     31  C1  BGC C   3       4.907 -31.743 -10.2310  0.00  0.00     0.000 C
ATOM     32  C2  BGC C   3       6.062 -32.468  -9.5000  0.00  0.00     0.000 C
ATOM     33  C3  BGC C   3       5.939 -32.324  -8.0230  0.00  0.00     0.000 C
ATOM     34  C4  BGC C   3       5.770 -30.838  -7.6960  0.00  0.00     0.000 C
ATOM     35  C5  BGC C   3       4.684 -30.130  -8.5460  0.00  0.00     0.000 C
ATOM     36  O5  BGC C   3       4.905 -30.373  -9.9130  0.00  0.00     0.000 O
ATOM     37   O  BGC C   3       6.257 -33.847  -9.7530  0.00  0.00     0.000 O
ATOM     39  HD  BGC C   3       6.269 -33.215  -9.1610  0.00  0.00     0.000 HD
ATOM     39   O  BGC C   3       7.115 -32.877  -7.3620  0.00  0.00     0.000 O
ATOM     41  HD  BGC C   3       7.126 -32.245  -6.7700  0.00  0.00     0.000 HD
ATOM     41   C  BGC C   3       4.612 -28.595  -8.3730  0.00  0.00     0.000 C
ATOM     42   O  BGC C   3       5.809 -27.858  -8.8110  0.00  0.00     0.000 O
ATOM     44  HD  BGC C   3       5.820 -27.226  -8.2190  0.00  0.00     0.000 HD
BRANCH 31 44
ATOM     44  O4  BGC C   4       5.025 -31.882 -11.6080  0.00  0.00     0.000 O
BRANCH 44 48
ATOM     45  C1  BGC C   4       2.952 -32.235 -15.1200  0.00  0.00     0.000 C
ATOM     46  C2  BGC C   4       2.747 -30.826 -14.4780  0.00  0.00     0.000 C
ATOM     47  C3  BGC C   4       3.826 -30.813 -13.3870  0.00  0.00     0.000 C
ATOM     48  C4  BGC C   4       3.894 -31.980 -12.4220  0.00  0.00     0.000 C
ATOM     49  C5  BGC C   4       4.084 -33.238 -13.2840  0.00  0.00     0.000 C
ATOM     50  O5  BGC C   4       3.076 -33.352 -14.2280  0.00  0.00     0.000 O
ATOM     51   O  BGC C   4       2.876 -29.515 -15.2750  0.00  0.00     0.000 O
ATOM     53  HD  BGC C   4       2.850 -28.823 -14.7540  0.00  0.00     0.000 HD
ATOM     53   O  BGC C   4       3.329 -29.668 -12.5490  0.00  0.00     0.000 O
ATOM     55  HD  BGC C   4       3.303 -28.976 -12.0280  0.00  0.00     0.000 HD
ATOM     55   C  BGC C   4       4.002 -34.492 -12.4520  0.00  0.00     0.000 C
ATOM     56   O  BGC C   4       2.801 -34.652 -11.6890  0.00  0.00     0.000 O
ATOM     58  HD  BGC C   4       2.774 -33.960 -11.1680  0.00  0.00     0.000 HD
BRANCH 45 58
ATOM     58  O4  BGC C   5       1.914 -32.573 -15.9920  0.00  0.00     0.000 O
BRANCH 58 62
ATOM     59  C1  BGC C   5       1.746 -34.995 -17.8510  0.00  0.00     0.000 C
ATOM     60  C2  BGC C   5       3.150 -34.672 -17.7270  0.00  0.00     0.000 C
ATOM     61  C3  BGC C   5       3.448 -33.179 -17.8450  0.00  0.00     0.000 C
ATOM     62  C4  BGC C   5       2.223 -32.395 -17.3960  0.00  0.00     0.000 C
ATOM     63  C5  BGC C   5       1.017 -33.043 -18.0360  0.00  0.00     0.000 C
ATOM     64  O5  BGC C   5       1.166 -34.346 -18.5950  0.00  0.00     0.000 O
ATOM     65   O  BGC C   5       1.264 -31.931 -20.1670  0.00  0.00     0.000 O
ATOM     67  HD  BGC C   5       0.892 -31.925 -19.3840  0.00  0.00     0.000 HD
ATOM     67   O  BGC C   5       1.264 -31.931 -20.1670  0.00  0.00     0.000 O
ATOM     69  HD  BGC C   5       0.892 -31.925 -19.3840  0.00  0.00     0.000 HD
ENDBRANCH 58 62
ENDBRANCH 45 58
ENDBRANCH 44 48
ENDBRANCH 31 44
ENDBRANCH 30 34
ENDBRANCH 17 30
ENDBRANCH 16 20
ENDBRANCH 1 16
TORSDOF 8
ENDMDL
MODEL 90
REMARK VINA RESULT:      -5.2     15.217     24.837
ROOT
ATOM      1  C1  BGC C   1       6.553 -29.080 -27.3760  0.00  0.00     0.000 C
ATOM      2  C2  BGC C   1       7.069 -30.508 -27.5490  0.00  0.00     0.000 C
ATOM      3  C3  BGC C   1       5.906 -31.453 -27.8300  0.00  0.00     0.000 C
ATOM      4  C4  BGC C   1       4.779 -31.292 -26.8230  0.00  0.00     0.000 C
ATOM      5  C5  BGC C   1       4.459 -29.814 -26.6200  0.00  0.00     0.000 C
ATOM      6  O5  BGC C   1       5.583 -29.021 -26.4020  0.00  0.00     0.000 O
ATOM      7   O  BGC C   1       7.969 -30.505 -28.6310  0.00  0.00     0.000 O
ATOM      9  HD  BGC C   1       7.909 -31.110 -28.0140  0.00  0.00     0.000 HD
ATOM      9   O  BGC C   1       6.417 -32.792 -27.8530  0.00  0.00     0.000 O
ATOM     11  HD  BGC C   1       6.358 -33.397 -27.2360  0.00  0.00     0.000 HD
ATOM     11   O  BGC C   1       3.656 -31.991 -27.3490  0.00  0.00     0.000 O
ATOM     13  HD  BGC C   1       3.596 -32.596 -26.7310  0.00  0.00     0.000 HD
ATOM     13   O  BGC C   1       4.211 -30.026 -24.1640  0.00  0.00     0.000 O
ATOM     15  HD  BGC C   1       4.152 -30.630 -23.5470  0.00  0.00     0.000 HD
ATOM     15   C  BGC C   1       3.526 -29.688 -25.4020  0.00  0.00     0.000 C
ENDROOT
BRANCH 1 16
ATOM     16  O4  BGC C   2       7.618 -28.266 -26.9460  0.00  0.00     0.000 O
BRANCH 16 20
ATOM     17  C1  BGC C   2       8.865 -24.408 -27.4330  0.00  0.00     0.000 C
ATOM     18  C2  BGC C   2       7.814 -24.636 -26.3590  0.00  0.00     0.000 C
ATOM     19  C3  BGC C   2       7.700 -26.116 -26.0210  0.00  0.00     0.000 C
ATOM     20  C4  BGC C   2       7.509 -26.901 -27.2740  0.00  0.00     0.000 C
ATOM     21  C5  BGC C   2       8.568 -26.543 -28.3130  0.00  0.00     0.000 C
ATOM     22  O5  BGC C   2       8.570 -25.170 -28.5690  0.00  0.00     0.000 O
ATOM     23   O  BGC C   2       8.172 -23.881 -25.1920  0.00  0.00     0.000 O
ATOM     25  HD  BGC C   2       8.016 -24.345 -24.4780  0.00  0.00     0.000 HD
ATOM     25   O  BGC C   2       6.588 -26.313 -25.1550  0.00  0.00     0.000 O
ATOM     27  HD  BGC C   2       6.432 -26.777 -24.4410  0.00  0.00     0.000 HD
ATOM     27   C  BGC C   2       8.438 -27.294 -29.6540  0.00  0.00     0.000 C
ATOM     28   O  BGC C   2       7.125 -27.135 -30.2150  0.00  0.00     0.000 O
ATOM     30  HD  BGC C   2       6.969 -27.599 -29.5010  0.00  0.00     0.000 HD
BRANCH 17 30
ATOM     30  O4  BGC C   3       8.871 -23.044 -27.7970  0.00  0.00     0.000 O
BRANCH 30 34
ATOM     31  C1  BGC C   3      11.421 -20.248 -29.2170  0.00  0.00     0.000 C
ATOM     32  C2  BGC C   3      10.571 -20.983 -30.2810  0.00  0.00     0.000 C
ATOM     33  C3  BGC C   3       9.442 -21.722 -29.6520  0.00  0.00     0.000 C
ATOM     34  C4  BGC C   3      10.003 -22.594 -28.5260  0.00  0.00     0.000 C
ATOM     35  C5  BGC C   3      10.948 -21.835 -27.5600  0.00  0.00     0.000 C
ATOM     36  O5  BGC C   3      11.945 -21.162 -28.2870  0.00  0.00     0.000 O
ATOM     37   O  BGC C   3      10.016 -20.224 -31.3390  0.00  0.00     0.000 O
ATOM     39  HD  BGC C   3       9.899 -20.878 -30.7830  0.00  0.00     0.000 HD
ATOM     39   O  BGC C   3       8.751 -22.531 -30.6490  0.00  0.00     0.000 O
ATOM     41  HD  BGC C   3       8.634 -23.184 -30.0930  0.00  0.00     0.000 HD
ATOM     41   C  BGC C   3      11.675 -22.722 -26.5220  0.00  0.00     0.000 C
ATOM     42   O  BGC C   3      12.614 -23.706 -27.0870  0.00  0.00     0.000 O
ATOM     44  HD  BGC C   3      12.497 -24.360 -26.5310  0.00  0.00     0.000 HD
BRANCH 31 44
ATOM     44  O4  BGC C   4      12.472 -19.559 -29.8080  0.00  0.00     0.000 O
BRANCH 44 48
ATOM     45  C1  BGC C   4      14.754 -16.166 -29.6050  0.00  0.00     0.000 C
ATOM     46  C2  BGC C   4      14.772 -16.946 -28.2510  0.00  0.00     0.000 C
ATOM     47  C3  BGC C   4      14.139 -18.286 -28.6480  0.00  0.00     0.000 C
ATOM     48  C4  BGC C   4      12.816 -18.271 -29.3890  0.00  0.00     0.000 C
ATOM     49  C5  BGC C   4      13.049 -17.444 -30.6630  0.00  0.00     0.000 C
ATOM     50  O5  BGC C   4      13.531 -16.182 -30.3560  0.00  0.00     0.000 O
ATOM     51   O  BGC C   4      16.067 -17.254 -27.4790  0.00  0.00     0.000 O
ATOM     53  HD  BGC C   4      15.921 -17.790 -26.8150  0.00  0.00     0.000 HD
ATOM     53   O  BGC C   4      13.793 -18.819 -27.2840  0.00  0.00     0.000 O
ATOM     55  HD  BGC C   4      13.647 -19.355 -26.6200  0.00  0.00     0.000 HD
ATOM     55   C  BGC C   4      11.761 -17.214 -31.4110  0.00  0.00     0.000 C
ATOM     56   O  BGC C   4      10.711 -16.592 -30.6610  0.00  0.00     0.000 O
ATOM     58  HD  BGC C   4      10.565 -17.128 -29.9970  0.00  0.00     0.000 HD
BRANCH 45 58
ATOM     58  O4  BGC C   5      15.067 -14.815 -29.4390  0.00  0.00     0.000 O
BRANCH 58 62
ATOM     59  C1  BGC C   5      15.482 -11.894 -28.6330  0.00  0.00     0.000 C
ATOM     60  C2  BGC C   5      14.743 -12.514 -27.5560  0.00  0.00     0.000 C
ATOM     61  C3  BGC C   5      13.594 -13.400 -28.0300  0.00  0.00     0.000 C
ATOM     62  C4  BGC C   5      13.921 -13.929 -29.4190  0.00  0.00     0.000 C
ATOM     63  C5  BGC C   5      14.448 -12.767 -30.2290  0.00  0.00     0.000 C
ATOM     64  O5  BGC C   5      14.849 -11.586 -29.5370  0.00  0.00     0.000 O
ATOM     65   O  BGC C   5      12.274 -11.881 -30.8000  0.00  0.00     0.000 O
ATOM     67  HD  BGC C   5      12.933 -12.391 -31.0340  0.00  0.00     0.000 HD
ATOM     67   O  BGC C   5      12.274 -11.881 -30.8000  0.00  0.00     0.000 O
ATOM     69  HD  BGC C   5      12.933 -12.391 -31.0340  0.00  0.00     0.000 HD
ENDBRANCH 58 62
ENDBRANCH 45 58
ENDBRANCH 44 48
ENDBRANCH 31 44
ENDBRANCH 30 34
ENDBRANCH 17 30
ENDBRANCH 16 20
ENDBRANCH 1 16
TORSDOF 8
ENDMDL
MODEL 91
REMARK VINA RESULT:      -5.2     22.446     26.710
ROOT
ATOM      1  C1  BGC C   1      13.608 -29.944 -27.4660  0.00  0.00     0.000 C
ATOM      2  C2  BGC C   1      14.738 -30.303 -26.5020  0.00  0.00     0.000 C
ATOM      3  C3  BGC C   1      15.902 -30.919 -27.2690  0.00  0.00     0.000 C
ATOM      4  C4  BGC C   1      15.454 -32.045 -28.1870  0.00  0.00     0.000 C
ATOM      5  C5  BGC C   1      14.225 -31.620 -28.9840  0.00  0.00     0.000 C
ATOM      6  O5  BGC C   1      13.226 -31.038 -28.2080  0.00  0.00     0.000 O
ATOM      7   O  BGC C   1      15.145 -29.115 -25.8660  0.00  0.00     0.000 O
ATOM      9  HD  BGC C   1      15.298 -29.923 -25.5940  0.00  0.00     0.000 HD
ATOM      9   O  BGC C   1      16.879 -31.359 -26.3170  0.00  0.00     0.000 O
ATOM     11  HD  BGC C   1      17.032 -32.167 -26.0440  0.00  0.00     0.000 HD
ATOM     11   O  BGC C   1      16.549 -32.333 -29.0490  0.00  0.00     0.000 O
ATOM     13  HD  BGC C   1      16.703 -33.141 -28.7760  0.00  0.00     0.000 HD
ATOM     13   O  BGC C   1      13.078 -33.799 -28.7110  0.00  0.00     0.000 O
ATOM     15  HD  BGC C   1      13.232 -34.607 -28.4390  0.00  0.00     0.000 HD
ATOM     15   C  BGC C   1      13.646 -32.868 -29.6740  0.00  0.00     0.000 C
ENDROOT
BRANCH 1 16
ATOM     16  O4  BGC C   2      12.486 -29.544 -26.7150  0.00  0.00     0.000 O
BRANCH 16 20
ATOM     17  C1  BGC C   2       9.353 -26.957 -27.1260  0.00  0.00     0.000 C
ATOM     18  C2  BGC C   2       9.152 -28.343 -27.7170  0.00  0.00     0.000 C
ATOM     19  C3  BGC C   2      10.205 -29.311 -27.1950  0.00  0.00     0.000 C
ATOM     20  C4  BGC C   2      11.563 -28.725 -27.3930  0.00  0.00     0.000 C
ATOM     21  C5  BGC C   2      11.635 -27.308 -26.8340  0.00  0.00     0.000 C
ATOM     22  O5  BGC C   2      10.647 -26.498 -27.3970  0.00  0.00     0.000 O
ATOM     23   O  BGC C   2       7.835 -28.805 -27.3790  0.00  0.00     0.000 O
ATOM     25  HD  BGC C   2       7.859 -29.645 -27.1710  0.00  0.00     0.000 HD
ATOM     25   O  BGC C   2      10.102 -30.540 -27.9030  0.00  0.00     0.000 O
ATOM     27  HD  BGC C   2      10.126 -31.380 -27.6950  0.00  0.00     0.000 HD
ATOM     27   C  BGC C   2      13.001 -26.612 -27.0120  0.00  0.00     0.000 C
ATOM     28   O  BGC C   2      13.414 -26.620 -28.3880  0.00  0.00     0.000 O
ATOM     30  HD  BGC C   2      13.438 -27.461 -28.1800  0.00  0.00     0.000 HD
BRANCH 17 30
ATOM     30  O4  BGC C   3       8.429 -26.064 -27.7100  0.00  0.00     0.000 O
BRANCH 30 34
ATOM     31  C1  BGC C   3       6.020 -22.978 -26.7020  0.00  0.00     0.000 C
ATOM     32  C2  BGC C   3       7.464 -22.597 -27.1100  0.00  0.00     0.000 C
ATOM     33  C3  BGC C   3       8.150 -23.733 -27.7850  0.00  0.00     0.000 C
ATOM     34  C4  BGC C   3       8.012 -24.975 -26.9000  0.00  0.00     0.000 C
ATOM     35  C5  BGC C   3       6.563 -25.239 -26.4170  0.00  0.00     0.000 C
ATOM     36  O5  BGC C   3       6.029 -24.079 -25.8290  0.00  0.00     0.000 O
ATOM     37   O  BGC C   3       7.651 -21.465 -27.9390  0.00  0.00     0.000 O
ATOM     39  HD  BGC C   3       7.909 -22.270 -27.7500  0.00  0.00     0.000 HD
ATOM     39   O  BGC C   3       9.552 -23.408 -28.0180  0.00  0.00     0.000 O
ATOM     41  HD  BGC C   3       9.810 -24.213 -27.8300  0.00  0.00     0.000 HD
ATOM     41   C  BGC C   3       6.415 -26.374 -25.3770  0.00  0.00     0.000 C
ATOM     42   O  BGC C   3       7.080 -26.132 -24.0860  0.00  0.00     0.000 O
ATOM     44  HD  BGC C   3       7.338 -26.937 -23.8970  0.00  0.00     0.000 HD
BRANCH 31 44
ATOM     44  O4  BGC C   4       5.383 -21.915 -26.0750  0.00  0.00     0.000 O
BRANCH 44 48
ATOM     45  C1  BGC C   4       1.754 -20.105 -25.5170  0.00  0.00     0.000 C
ATOM     46  C2  BGC C   4       2.007 -21.214 -24.4470  0.00  0.00     0.000 C
ATOM     47  C3  BGC C   4       3.496 -21.519 -24.6510  0.00  0.00     0.000 C
ATOM     48  C4  BGC C   4       3.989 -21.822 -26.0520  0.00  0.00     0.000 C
ATOM     49  C5  BGC C   4       3.618 -20.602 -26.9100  0.00  0.00     0.000 C
ATOM     50  O5  BGC C   4       2.260 -20.340 -26.8400  0.00  0.00     0.000 O
ATOM     51   O  BGC C   4       1.779 -20.993 -22.9410  0.00  0.00     0.000 O
ATOM     53  HD  BGC C   4       2.074 -21.660 -22.4740  0.00  0.00     0.000 HD
ATOM     53   O  BGC C   4       3.589 -22.837 -23.9320  0.00  0.00     0.000 O
ATOM     55  HD  BGC C   4       3.884 -23.504 -23.4650  0.00  0.00     0.000 HD
ATOM     55   C  BGC C   4       3.908 -20.848 -28.3680  0.00  0.00     0.000 C
ATOM     56   O  BGC C   4       3.281 -22.002 -28.9390  0.00  0.00     0.000 O
ATOM     58  HD  BGC C   4       3.576 -22.669 -28.4720  0.00  0.00     0.000 HD
BRANCH 45 58
ATOM     58  O4  BGC C   5       0.394 -19.834 -25.6850  0.00  0.00     0.000 O
BRANCH 58 62
ATOM     59  C1  BGC C   5      -2.573 -19.097 -25.7680  0.00  0.00     0.000 C
ATOM     60  C2  BGC C   5      -1.952 -18.418 -26.8840  0.00  0.00     0.000 C
ATOM     61  C3  BGC C   5      -0.632 -17.738 -26.5290  0.00  0.00     0.000 C
ATOM     62  C4  BGC C   5       0.005 -18.477 -25.3610  0.00  0.00     0.000 C
ATOM     63  C5  BGC C   5      -1.084 -18.730 -24.3440  0.00  0.00     0.000 C
ATOM     64  O5  BGC C   5      -2.442 -18.580 -24.7550  0.00  0.00     0.000 O
ATOM     65   O  BGC C   5      -0.980 -16.534 -23.3440  0.00  0.00     0.000 O
ATOM     67  HD  BGC C   5      -0.711 -17.357 -23.3160  0.00  0.00     0.000 HD
ATOM     67   O  BGC C   5      -0.980 -16.534 -23.3440  0.00  0.00     0.000 O
ATOM     69  HD  BGC C   5      -0.711 -17.357 -23.3160  0.00  0.00     0.000 HD
ENDBRANCH 58 62
ENDBRANCH 45 58
ENDBRANCH 44 48
ENDBRANCH 31 44
ENDBRANCH 30 34
ENDBRANCH 17 30
ENDBRANCH 16 20
ENDBRANCH 1 16
TORSDOF 8
ENDMDL
MODEL 92
REMARK VINA RESULT:      -5.2     13.309     19.674
ROOT
ATOM      1  C1  BGC C   1       6.343  -3.852 -28.3670  0.00  0.00     0.000 C
ATOM      2  C2  BGC C   1       5.306  -3.453 -29.4160  0.00  0.00     0.000 C
ATOM      3  C3  BGC C   1       3.969  -4.115 -29.1060  0.00  0.00     0.000 C
ATOM      4  C4  BGC C   1       4.108  -5.610 -28.8730  0.00  0.00     0.000 C
ATOM      5  C5  BGC C   1       5.275  -5.892 -27.9310  0.00  0.00     0.000 C
ATOM      6  O5  BGC C   1       6.446  -5.221 -28.2710  0.00  0.00     0.000 O
ATOM      7   O  BGC C   1       5.180  -2.052 -29.3740  0.00  0.00     0.000 O
ATOM      9  HD  BGC C   1       4.937  -2.571 -30.0240  0.00  0.00     0.000 HD
ATOM      9   O  BGC C   1       3.067  -3.821 -30.1810  0.00  0.00     0.000 O
ATOM     11  HD  BGC C   1       2.824  -4.340 -30.8310  0.00  0.00     0.000 HD
ATOM     11   O  BGC C   1       2.878  -6.055 -28.3120  0.00  0.00     0.000 O
ATOM     13  HD  BGC C   1       2.635  -6.574 -28.9610  0.00  0.00     0.000 HD
ATOM     13   O  BGC C   1       6.085  -7.837 -29.2340  0.00  0.00     0.000 O
ATOM     15  HD  BGC C   1       5.842  -8.355 -29.8830  0.00  0.00     0.000 HD
ATOM     15   C  BGC C   1       5.553  -7.406 -27.9510  0.00  0.00     0.000 C
ENDROOT
BRANCH 1 16
ATOM     16  O4  BGC C   2       7.603  -3.372 -28.7750  0.00  0.00     0.000 O
BRANCH 16 20
ATOM     17  C1  BGC C   2      10.975  -1.915 -26.9910  0.00  0.00     0.000 C
ATOM     18  C2  BGC C   2      10.924  -3.423 -27.1840  0.00  0.00     0.000 C
ATOM     19  C3  BGC C   2       9.823  -3.804 -28.1630  0.00  0.00     0.000 C
ATOM     20  C4  BGC C   2       8.539  -3.173 -27.7420  0.00  0.00     0.000 C
ATOM     21  C5  BGC C   2       8.717  -1.677 -27.5010  0.00  0.00     0.000 C
ATOM     22  O5  BGC C   2       9.729  -1.439 -26.5700  0.00  0.00     0.000 O
ATOM     23   O  BGC C   2      12.200  -3.872 -27.6640  0.00  0.00     0.000 O
ATOM     25  HD  BGC C   2      12.092  -4.479 -28.2730  0.00  0.00     0.000 HD
ATOM     25   O  BGC C   2       9.681  -5.220 -28.1790  0.00  0.00     0.000 O
ATOM     27  HD  BGC C   2       9.573  -5.826 -28.7880  0.00  0.00     0.000 HD
ATOM     27   C  BGC C   2       7.441  -0.940 -27.0410  0.00  0.00     0.000 C
ATOM     28   O  BGC C   2       6.872  -1.562 -25.8770  0.00  0.00     0.000 O
ATOM     30  HD  BGC C   2       6.764  -2.168 -26.4860  0.00  0.00     0.000 HD
BRANCH 17 30
ATOM     30  O4  BGC C   3      11.933  -1.605 -26.0020  0.00  0.00     0.000 O
BRANCH 30 34
ATOM     31  C1  BGC C   3      13.870   1.688 -24.6830  0.00  0.00     0.000 C
ATOM     32  C2  BGC C   3      12.776   1.132 -23.7410  0.00  0.00     0.000 C
ATOM     33  C3  BGC C   3      12.374  -0.246 -24.1380  0.00  0.00     0.000 C
ATOM     34  C4  BGC C   3      12.031  -0.239 -25.6300  0.00  0.00     0.000 C
ATOM     35  C5  BGC C   3      13.106   0.443 -26.5150  0.00  0.00     0.000 C
ATOM     36  O5  BGC C   3      13.409   1.720 -26.0110  0.00  0.00     0.000 O
ATOM     37   O  BGC C   3      13.043   1.088 -22.3520  0.00  0.00     0.000 O
ATOM     39  HD  BGC C   3      12.675   0.689 -23.0270  0.00  0.00     0.000 HD
ATOM     39   O  BGC C   3      11.237  -0.689 -23.3390  0.00  0.00     0.000 O
ATOM     41  HD  BGC C   3      10.869  -1.088 -24.0140  0.00  0.00     0.000 HD
ATOM     41   C  BGC C   3      12.711   0.632 -27.9980  0.00  0.00     0.000 C
ATOM     42   O  BGC C   3      11.570   1.532 -28.2330  0.00  0.00     0.000 O
ATOM     44  HD  BGC C   3      11.202   1.134 -28.9090  0.00  0.00     0.000 HD
BRANCH 31 44
ATOM     44  O4  BGC C   4      14.244   2.972 -24.3080  0.00  0.00     0.000 O
BRANCH 44 48
ATOM     45  C1  BGC C   4      17.428   5.512 -23.8940  0.00  0.00     0.000 C
ATOM     46  C2  BGC C   4      17.389   4.875 -25.3200  0.00  0.00     0.000 C
ATOM     47  C3  BGC C   4      15.994   4.239 -25.3470  0.00  0.00     0.000 C
ATOM     48  C4  BGC C   4      15.590   3.330 -24.2030  0.00  0.00     0.000 C
ATOM     49  C5  BGC C   4      15.720   4.170 -22.9220  0.00  0.00     0.000 C
ATOM     50  O5  BGC C   4      16.997   4.692 -22.7970  0.00  0.00     0.000 O
ATOM     51   O  BGC C   4      17.548   5.700 -26.6100  0.00  0.00     0.000 O
ATOM     53  HD  BGC C   4      17.387   5.223 -27.3140  0.00  0.00     0.000 HD
ATOM     53   O  BGC C   4      16.159   3.309 -26.5180  0.00  0.00     0.000 O
ATOM     55  HD  BGC C   4      15.998   2.831 -27.2220  0.00  0.00     0.000 HD
ATOM     55   C  BGC C   4      15.504   3.330 -21.6900  0.00  0.00     0.000 C
ATOM     56   O  BGC C   4      16.357   2.187 -21.5620  0.00  0.00     0.000 O
ATOM     58  HD  BGC C   4      16.196   1.709 -22.2660  0.00  0.00     0.000 HD
BRANCH 45 58
ATOM     58  O4  BGC C   5      18.708   5.950 -23.5470  0.00  0.00     0.000 O
BRANCH 58 62
ATOM     59  C1  BGC C   5      21.348   7.227 -22.6800  0.00  0.00     0.000 C
ATOM     60  C2  BGC C   5      20.295   8.042 -22.1150  0.00  0.00     0.000 C
ATOM     61  C3  BGC C   5      19.163   8.346 -23.0940  0.00  0.00     0.000 C
ATOM     62  C4  BGC C   5      19.085   7.225 -24.1210  0.00  0.00     0.000 C
ATOM     63  C5  BGC C   5      20.497   6.928 -24.5680  0.00  0.00     0.000 C
ATOM     64  O5  BGC C   5      21.576   7.432 -23.7830  0.00  0.00     0.000 O
ATOM     65   O  BGC C   5      20.615   8.732 -26.1710  0.00  0.00     0.000 O
ATOM     67  HD  BGC C   5      20.443   7.894 -26.0330  0.00  0.00     0.000 HD
ATOM     67   O  BGC C   5      20.615   8.732 -26.1710  0.00  0.00     0.000 O
ATOM     69  HD  BGC C   5      20.443   7.894 -26.0330  0.00  0.00     0.000 HD
ENDBRANCH 58 62
ENDBRANCH 45 58
ENDBRANCH 44 48
ENDBRANCH 31 44
ENDBRANCH 30 34
ENDBRANCH 17 30
ENDBRANCH 16 20
ENDBRANCH 1 16
TORSDOF 8
ENDMDL
MODEL 93
REMARK VINA RESULT:      -5.2     27.391     31.977
ROOT
ATOM      1  C1  BGC C   1       4.887 -33.479 -30.5450  0.00  0.00     0.000 C
ATOM      2  C2  BGC C   1       6.163 -33.732 -31.3480  0.00  0.00     0.000 C
ATOM      3  C3  BGC C   1       5.862 -33.666 -32.8400  0.00  0.00     0.000 C
ATOM      4  C4  BGC C   1       4.675 -34.533 -33.2270  0.00  0.00     0.000 C
ATOM      5  C5  BGC C   1       3.517 -34.305 -32.2590  0.00  0.00     0.000 C
ATOM      6  O5  BGC C   1       3.889 -34.350 -30.9180  0.00  0.00     0.000 O
ATOM      7   O  BGC C   1       7.091 -32.735 -30.9920  0.00  0.00     0.000 O
ATOM      9  HD  BGC C   1       7.270 -33.492 -31.3730  0.00  0.00     0.000 HD
ATOM      9   O  BGC C   1       7.051 -34.038 -33.5500  0.00  0.00     0.000 O
ATOM     11  HD  BGC C   1       7.230 -34.794 -33.9320  0.00  0.00     0.000 HD
ATOM     11   O  BGC C   1       4.313 -34.168 -34.5540  0.00  0.00     0.000 O
ATOM     13  HD  BGC C   1       4.492 -34.924 -34.9350  0.00  0.00     0.000 HD
ATOM     13   O  BGC C   1       2.937 -36.710 -32.1130  0.00  0.00     0.000 O
ATOM     15  HD  BGC C   1       3.116 -37.466 -32.4940  0.00  0.00     0.000 HD
ATOM     15   C  BGC C   1       2.459 -35.395 -32.5120  0.00  0.00     0.000 C
ENDROOT
BRANCH 1 16
ATOM     16  O4  BGC C   2       5.156 -33.719 -29.1840  0.00  0.00     0.000 O
BRANCH 16 20
ATOM     17  C1  BGC C   2       3.899 -32.350 -25.5480  0.00  0.00     0.000 C
ATOM     18  C2  BGC C   2       2.984 -33.352 -26.2340  0.00  0.00     0.000 C
ATOM     19  C3  BGC C   2       3.709 -34.054 -27.3730  0.00  0.00     0.000 C
ATOM     20  C4  BGC C   2       4.327 -33.037 -28.2730  0.00  0.00     0.000 C
ATOM     21  C5  BGC C   2       5.161 -32.037 -27.4790  0.00  0.00     0.000 C
ATOM     22  O5  BGC C   2       4.396 -31.432 -26.4800  0.00  0.00     0.000 O
ATOM     23   O  BGC C   2       2.532 -34.308 -25.2620  0.00  0.00     0.000 O
ATOM     25  HD  BGC C   2       2.527 -35.102 -25.6070  0.00  0.00     0.000 HD
ATOM     25   O  BGC C   2       2.778 -34.842 -28.1050  0.00  0.00     0.000 O
ATOM     27  HD  BGC C   2       2.772 -35.636 -28.4500  0.00  0.00     0.000 HD
ATOM     27   C  BGC C   2       5.825 -30.932 -28.3260  0.00  0.00     0.000 C
ATOM     28   O  BGC C   2       4.857 -30.238 -29.1290  0.00  0.00     0.000 O
ATOM     30  HD  BGC C   2       4.851 -31.032 -29.4740  0.00  0.00     0.000 HD
BRANCH 17 30
ATOM     30  O4  BGC C   3       3.166 -31.645 -24.5690  0.00  0.00     0.000 O
BRANCH 30 34
ATOM     31  C1  BGC C   3       3.511 -30.316 -20.7670  0.00  0.00     0.000 C
ATOM     32  C2  BGC C   3       4.050 -29.364 -21.8620  0.00  0.00     0.000 C
ATOM     33  C3  BGC C   3       3.572 -29.771 -23.2120  0.00  0.00     0.000 C
ATOM     34  C4  BGC C   3       3.884 -31.257 -23.4070  0.00  0.00     0.000 C
ATOM     35  C5  BGC C   3       3.434 -32.151 -22.2230  0.00  0.00     0.000 C
ATOM     36  O5  BGC C   3       3.930 -31.636 -21.0120  0.00  0.00     0.000 O
ATOM     37   O  BGC C   3       3.780 -27.980 -21.7410  0.00  0.00     0.000 O
ATOM     39  HD  BGC C   3       3.856 -28.654 -22.2790  0.00  0.00     0.000 HD
ATOM     39   O  BGC C   3       4.213 -28.960 -24.2400  0.00  0.00     0.000 O
ATOM     41  HD  BGC C   3       4.290 -29.634 -24.7780  0.00  0.00     0.000 HD
ATOM     41   C  BGC C   3       3.895 -33.625 -22.3020  0.00  0.00     0.000 C
ATOM     42   O  BGC C   3       5.352 -33.831 -22.2450  0.00  0.00     0.000 O
ATOM     44  HD  BGC C   3       5.428 -34.505 -22.7830  0.00  0.00     0.000 HD
BRANCH 31 44
ATOM     44  O4  BGC C   4       3.958 -29.931 -19.5100  0.00  0.00     0.000 O
BRANCH 44 48
ATOM     45  C1  BGC C   4       3.329 -30.615 -15.5230  0.00  0.00     0.000 C
ATOM     46  C2  BGC C   4       4.617 -31.341 -16.0280  0.00  0.00     0.000 C
ATOM     47  C3  BGC C   4       4.817 -30.706 -17.4110  0.00  0.00     0.000 C
ATOM     48  C4  BGC C   4       3.646 -30.682 -18.3740  0.00  0.00     0.000 C
ATOM     49  C5  BGC C   4       2.514 -29.935 -17.6520  0.00  0.00     0.000 C
ATOM     50  O5  BGC C   4       2.223 -30.527 -16.4340  0.00  0.00     0.000 O
ATOM     51   O  BGC C   4       5.963 -31.271 -15.2850  0.00  0.00     0.000 O
ATOM     53  HD  BGC C   4       6.601 -31.626 -15.7510  0.00  0.00     0.000 HD
ATOM     53   O  BGC C   4       5.771 -31.701 -18.0120  0.00  0.00     0.000 O
ATOM     55  HD  BGC C   4       6.410 -32.055 -18.4780  0.00  0.00     0.000 HD
ATOM     55   C  BGC C   4       1.232 -29.985 -18.4430  0.00  0.00     0.000 C
ATOM     56   O  BGC C   4       0.760 -31.296 -18.7750  0.00  0.00     0.000 O
ATOM     58  HD  BGC C   4       1.398 -31.650 -19.2410  0.00  0.00     0.000 HD
BRANCH 45 58
ATOM     58  O4  BGC C   5       2.809 -31.206 -14.3690  0.00  0.00     0.000 O
BRANCH 58 62
ATOM     59  C1  BGC C   5       1.604 -31.977 -11.6660  0.00  0.00     0.000 C
ATOM     60  C2  BGC C   5       1.629 -30.532 -11.7040  0.00  0.00     0.000 C
ATOM     61  C3  BGC C   5       2.941 -29.955 -12.2300  0.00  0.00     0.000 C
ATOM     62  C4  BGC C   5       3.584 -30.967 -13.1680  0.00  0.00     0.000 C
ATOM     63  C5  BGC C   5       3.493 -32.319 -12.4990  0.00  0.00     0.000 C
ATOM     64  O5  BGC C   5       2.603 -32.469 -11.3950  0.00  0.00     0.000 O
ATOM     65   O  BGC C   5       5.433 -32.009 -11.0920  0.00  0.00     0.000 O
ATOM     67  HD  BGC C   5       5.120 -32.316 -11.8390  0.00  0.00     0.000 HD
ATOM     67   O  BGC C   5       5.433 -32.009 -11.0920  0.00  0.00     0.000 O
ATOM     69  HD  BGC C   5       5.120 -32.316 -11.8390  0.00  0.00     0.000 HD
ENDBRANCH 58 62
ENDBRANCH 45 58
ENDBRANCH 44 48
ENDBRANCH 31 44
ENDBRANCH 30 34
ENDBRANCH 17 30
ENDBRANCH 16 20
ENDBRANCH 1 16
TORSDOF 8
ENDMDL
MODEL 94
REMARK VINA RESULT:      -5.1     16.143     18.047
ROOT
ATOM      1  C1  BGC C   1      12.091   2.043 -23.6640  0.00  0.00     0.000 C
ATOM      2  C2  BGC C   1      13.616   2.125 -23.6300  0.00  0.00     0.000 C
ATOM      3  C3  BGC C   1      14.083   2.607 -22.2620  0.00  0.00     0.000 C
ATOM      4  C4  BGC C   1      13.360   3.869 -21.8190  0.00  0.00     0.000 C
ATOM      5  C5  BGC C   1      11.858   3.724 -22.0460  0.00  0.00     0.000 C
ATOM      6  O5  BGC C   1      11.525   3.247 -23.3110  0.00  0.00     0.000 O
ATOM      7   O  BGC C   1      14.115   0.834 -23.8900  0.00  0.00     0.000 O
ATOM      9  HD  BGC C   1      14.553   1.578 -23.9600  0.00  0.00     0.000 HD
ATOM      9   O  BGC C   1      15.504   2.794 -22.3170  0.00  0.00     0.000 O
ATOM     11  HD  BGC C   1      15.941   3.538 -22.3870  0.00  0.00     0.000 HD
ATOM     11   O  BGC C   1      13.654   4.049 -20.4380  0.00  0.00     0.000 O
ATOM     13  HD  BGC C   1      14.092   4.792 -20.5090  0.00  0.00     0.000 HD
ATOM     13   O  BGC C   1      11.590   6.028 -22.9150  0.00  0.00     0.000 O
ATOM     15  HD  BGC C   1      12.028   6.772 -22.9850  0.00  0.00     0.000 HD
ATOM     15   C  BGC C   1      11.209   5.107 -21.8560  0.00  0.00     0.000 C
ENDROOT
BRANCH 1 16
ATOM     16  O4  BGC C   2      11.684   1.767 -24.9830  0.00  0.00     0.000 O
BRANCH 16 20
ATOM     17  C1  BGC C   2       8.871  -0.550 -26.8250  0.00  0.00     0.000 C
ATOM     18  C2  BGC C   2       8.436   0.861 -26.4620  0.00  0.00     0.000 C
ATOM     19  C3  BGC C   2       9.641   1.728 -26.1280  0.00  0.00     0.000 C
ATOM     20  C4  BGC C   2      10.485   1.041 -25.1080  0.00  0.00     0.000 C
ATOM     21  C5  BGC C   2      10.801  -0.390 -25.5330  0.00  0.00     0.000 C
ATOM     22  O5  BGC C   2       9.629  -1.105 -25.7890  0.00  0.00     0.000 O
ATOM     23   O  BGC C   2       7.705   1.419 -27.5640  0.00  0.00     0.000 O
ATOM     25  HD  BGC C   2       7.923   2.250 -27.6750  0.00  0.00     0.000 HD
ATOM     25   O  BGC C   2       9.190   2.977 -25.6180  0.00  0.00     0.000 O
ATOM     27  HD  BGC C   2       9.408   3.808 -25.7280  0.00  0.00     0.000 HD
ATOM     27   C  BGC C   2      11.656  -1.189 -24.5280  0.00  0.00     0.000 C
ATOM     28   O  BGC C   2      11.062  -1.184 -23.2200  0.00  0.00     0.000 O
ATOM     30  HD  BGC C   2      11.279  -0.353 -23.3300  0.00  0.00     0.000 HD
BRANCH 17 30
ATOM     30  O4  BGC C   3       7.728  -1.353 -27.0250  0.00  0.00     0.000 O
BRANCH 30 34
ATOM     31  C1  BGC C   3       6.323  -4.288 -29.4240  0.00  0.00     0.000 C
ATOM     32  C2  BGC C   3       7.708  -4.549 -28.7850  0.00  0.00     0.000 C
ATOM     33  C3  BGC C   3       7.975  -3.597 -27.6710  0.00  0.00     0.000 C
ATOM     34  C4  BGC C   3       7.733  -2.175 -28.1830  0.00  0.00     0.000 C
ATOM     35  C5  BGC C   3       6.384  -1.999 -28.9250  0.00  0.00     0.000 C
ATOM     36  O5  BGC C   3       6.251  -2.977 -29.9270  0.00  0.00     0.000 O
ATOM     37   O  BGC C   3       7.982  -5.843 -28.2820  0.00  0.00     0.000 O
ATOM     39  HD  BGC C   3       8.083  -4.990 -28.1690  0.00  0.00     0.000 HD
ATOM     39   O  BGC C   3       9.342  -3.758 -27.1890  0.00  0.00     0.000 O
ATOM     41  HD  BGC C   3       9.442  -2.905 -27.0760  0.00  0.00     0.000 HD
ATOM     41   C  BGC C   3       6.187  -0.628 -29.6120  0.00  0.00     0.000 C
ATOM     42   O  BGC C   3       7.127  -0.335 -30.7070  0.00  0.00     0.000 O
ATOM     44  HD  BGC C   3       7.228   0.518 -30.5940  0.00  0.00     0.000 HD
BRANCH 31 44
ATOM     44  O4  BGC C   4       6.076  -5.178 -30.4610  0.00  0.00     0.000 O
BRANCH 44 48
ATOM     45  C1  BGC C   4       3.020  -7.668 -31.5630  0.00  0.00     0.000 C
ATOM     46  C2  BGC C   4       3.424  -6.712 -32.7310  0.00  0.00     0.000 C
ATOM     47  C3  BGC C   4       4.742  -6.120 -32.2150  0.00  0.00     0.000 C
ATOM     48  C4  BGC C   4       4.771  -5.519 -30.8230  0.00  0.00     0.000 C
ATOM     49  C5  BGC C   4       4.329  -6.637 -29.8650  0.00  0.00     0.000 C
ATOM     50  O5  BGC C   4       3.092  -7.143 -30.2290  0.00  0.00     0.000 O
ATOM     51   O  BGC C   4       3.667  -7.203 -34.1700  0.00  0.00     0.000 O
ATOM     53  HD  BGC C   4       3.995  -6.575 -34.6680  0.00  0.00     0.000 HD
ATOM     53   O  BGC C   4       4.867  -4.935 -33.1330  0.00  0.00     0.000 O
ATOM     55  HD  BGC C   4       5.195  -4.308 -33.6310  0.00  0.00     0.000 HD
ATOM     55   C  BGC C   4       4.156  -6.119 -28.4610  0.00  0.00     0.000 C
ATOM     56   O  BGC C   4       3.250  -5.020 -28.3120  0.00  0.00     0.000 O
ATOM     58  HD  BGC C   4       3.579  -4.392 -28.8100  0.00  0.00     0.000 HD
BRANCH 45 58
ATOM     58  O4  BGC C   5       1.715  -8.146 -31.7010  0.00  0.00     0.000 O
BRANCH 58 62
ATOM     59  C1  BGC C   5      -1.060  -9.359 -32.1320  0.00  0.00     0.000 C
ATOM     60  C2  BGC C   5      -0.453 -10.101 -31.0490  0.00  0.00     0.000 C
ATOM     61  C3  BGC C   5       1.000 -10.490 -31.3110  0.00  0.00     0.000 C
ATOM     62  C4  BGC C   5       1.617  -9.477 -32.2650  0.00  0.00     0.000 C
ATOM     63  C5  BGC C   5       0.619  -9.241 -33.3760  0.00  0.00     0.000 C
ATOM     64  O5  BGC C   5      -0.726  -9.676 -33.1800  0.00  0.00     0.000 O
ATOM     65   O  BGC C   5       1.230 -11.199 -34.6530  0.00  0.00     0.000 O
ATOM     67  HD  BGC C   5       1.346 -10.350 -34.5270  0.00  0.00     0.000 HD
ATOM     67   O  BGC C   5       1.230 -11.199 -34.6530  0.00  0.00     0.000 O
ATOM     69  HD  BGC C   5       1.346 -10.350 -34.5270  0.00  0.00     0.000 HD
ENDBRANCH 58 62
ENDBRANCH 45 58
ENDBRANCH 44 48
ENDBRANCH 31 44
ENDBRANCH 30 34
ENDBRANCH 17 30
ENDBRANCH 16 20
ENDBRANCH 1 16
TORSDOF 8
ENDMDL
MODEL 95
REMARK VINA RESULT:      -5.1     21.452     23.259
ROOT
ATOM      1  C1  BGC C   1       1.080 -17.868 -26.7210  0.00  0.00     0.000 C
ATOM      2  C2  BGC C   1       0.377 -17.314 -27.9590  0.00  0.00     0.000 C
ATOM      3  C3  BGC C   1      -0.122 -15.899 -27.6880  0.00  0.00     0.000 C
ATOM      4  C4  BGC C   1      -0.922 -15.809 -26.3990  0.00  0.00     0.000 C
ATOM      5  C5  BGC C   1      -0.190 -16.533 -25.2720  0.00  0.00     0.000 C
ATOM      6  O5  BGC C   1       0.258 -17.804 -25.6180  0.00  0.00     0.000 O
ATOM      7   O  BGC C   1       1.314 -17.308 -29.0100  0.00  0.00     0.000 O
ATOM      9  HD  BGC C   1       0.453 -17.267 -29.0890  0.00  0.00     0.000 HD
ATOM      9   O  BGC C   1      -0.884 -15.471 -28.8240  0.00  0.00     0.000 O
ATOM     11  HD  BGC C   1      -1.746 -15.429 -28.9030  0.00  0.00     0.000 HD
ATOM     11   O  BGC C   1      -1.074 -14.425 -26.1050  0.00  0.00     0.000 O
ATOM     13  HD  BGC C   1      -1.935 -14.383 -26.1840  0.00  0.00     0.000 HD
ATOM     13   O  BGC C   1      -2.249 -17.574 -24.3690  0.00  0.00     0.000 O
ATOM     15  HD  BGC C   1      -3.110 -17.533 -24.4480  0.00  0.00     0.000 HD
ATOM     15   C  BGC C   1      -1.155 -16.660 -24.0790  0.00  0.00     0.000 C
ENDROOT
BRANCH 1 16
ATOM     16  O4  BGC C   2       1.371 -19.228 -26.9390  0.00  0.00     0.000 O
BRANCH 16 20
ATOM     17  C1  BGC C   2       4.451 -21.834 -26.3060  0.00  0.00     0.000 C
ATOM     18  C2  BGC C   2       3.673 -21.411 -25.0690  0.00  0.00     0.000 C
ATOM     19  C3  BGC C   2       2.357 -20.752 -25.4590  0.00  0.00     0.000 C
ATOM     20  C4  BGC C   2       2.616 -19.667 -26.4490  0.00  0.00     0.000 C
ATOM     21  C5  BGC C   2       3.467 -20.175 -27.6090  0.00  0.00     0.000 C
ATOM     22  O5  BGC C   2       4.659 -20.735 -27.1460  0.00  0.00     0.000 O
ATOM     23   O  BGC C   2       3.432 -22.569 -24.2550  0.00  0.00     0.000 O
ATOM     25  HD  BGC C   2       2.630 -22.542 -23.9300  0.00  0.00     0.000 HD
ATOM     25   O  BGC C   2       1.745 -20.207 -24.2960  0.00  0.00     0.000 O
ATOM     27  HD  BGC C   2       0.943 -20.180 -23.9710  0.00  0.00     0.000 HD
ATOM     27   C  BGC C   2       3.803 -19.114 -28.6780  0.00  0.00     0.000 C
ATOM     28   O  BGC C   2       4.417 -17.957 -28.0870  0.00  0.00     0.000 O
ATOM     30  HD  BGC C   2       3.615 -17.931 -27.7620  0.00  0.00     0.000 HD
BRANCH 17 30
ATOM     30  O4  BGC C   3       5.707 -22.344 -25.9130  0.00  0.00     0.000 O
BRANCH 30 34
ATOM     31  C1  BGC C   3       8.866 -24.284 -27.5250  0.00  0.00     0.000 C
ATOM     32  C2  BGC C   3       9.003 -22.746 -27.4250  0.00  0.00     0.000 C
ATOM     33  C3  BGC C   3       7.969 -22.170 -26.5210  0.00  0.00     0.000 C
ATOM     34  C4  BGC C   3       6.598 -22.691 -26.9620  0.00  0.00     0.000 C
ATOM     35  C5  BGC C   3       6.550 -24.227 -27.1680  0.00  0.00     0.000 C
ATOM     36  O5  BGC C   3       7.595 -24.634 -28.0150  0.00  0.00     0.000 O
ATOM     37   O  BGC C   3      10.244 -22.207 -27.0090  0.00  0.00     0.000 O
ATOM     39  HD  BGC C   3       9.381 -22.140 -26.9720  0.00  0.00     0.000 HD
ATOM     39   O  BGC C   3       8.016 -20.714 -26.5640  0.00  0.00     0.000 O
ATOM     41  HD  BGC C   3       7.154 -20.647 -26.5260  0.00  0.00     0.000 HD
ATOM     41   C  BGC C   3       5.239 -24.765 -27.7870  0.00  0.00     0.000 C
ATOM     42   O  BGC C   3       4.960 -24.309 -29.1590  0.00  0.00     0.000 O
ATOM     44  HD  BGC C   3       4.098 -24.242 -29.1220  0.00  0.00     0.000 HD
BRANCH 31 44
ATOM     44  O4  BGC C   4       9.833 -24.816 -28.3670  0.00  0.00     0.000 O
BRANCH 44 48
ATOM     45  C1  BGC C   4      12.348 -28.003 -28.8970  0.00  0.00     0.000 C
ATOM     46  C2  BGC C   4      10.904 -28.473 -28.5310  0.00  0.00     0.000 C
ATOM     47  C3  BGC C   4      10.098 -27.177 -28.6890  0.00  0.00     0.000 C
ATOM     48  C4  BGC C   4      10.589 -25.927 -27.9850  0.00  0.00     0.000 C
ATOM     49  C5  BGC C   4      12.017 -25.681 -28.4960  0.00  0.00     0.000 C
ATOM     50  O5  BGC C   4      12.819 -26.791 -28.2880  0.00  0.00     0.000 O
ATOM     51   O  BGC C   4      10.162 -29.579 -29.3020  0.00  0.00     0.000 O
ATOM     53  HD  BGC C   4       9.335 -29.640 -29.0530  0.00  0.00     0.000 HD
ATOM     53   O  BGC C   4       8.850 -27.558 -27.9410  0.00  0.00     0.000 O
ATOM     55  HD  BGC C   4       8.023 -27.619 -27.6910  0.00  0.00     0.000 HD
ATOM     55   C  BGC C   4      12.682 -24.555 -27.7470  0.00  0.00     0.000 C
ATOM     56   O  BGC C   4      12.738 -24.706 -26.3240  0.00  0.00     0.000 O
ATOM     58  HD  BGC C   4      11.911 -24.767 -26.0740  0.00  0.00     0.000 HD
BRANCH 45 58
ATOM     58  O4  BGC C   5      13.310 -28.968 -28.5900  0.00  0.00     0.000 O
BRANCH 58 62
ATOM     59  C1  BGC C   5      15.228 -31.163 -27.6660  0.00  0.00     0.000 C
ATOM     60  C2  BGC C   5      13.935 -31.486 -27.1020  0.00  0.00     0.000 C
ATOM     61  C3  BGC C   5      13.217 -30.286 -26.4900  0.00  0.00     0.000 C
ATOM     62  C4  BGC C   5      13.687 -29.020 -27.1920  0.00  0.00     0.000 C
ATOM     63  C5  BGC C   5      15.191 -29.102 -27.3070  0.00  0.00     0.000 C
ATOM     64  O5  BGC C   5      15.818 -30.366 -27.0940  0.00  0.00     0.000 O
ATOM     65   O  BGC C   5      15.636 -28.328 -25.0620  0.00  0.00     0.000 O
ATOM     67  HD  BGC C   5      15.546 -28.117 -25.8980  0.00  0.00     0.000 HD
ATOM     67   O  BGC C   5      15.636 -28.328 -25.0620  0.00  0.00     0.000 O
ATOM     69  HD  BGC C   5      15.546 -28.117 -25.8980  0.00  0.00     0.000 HD
ENDBRANCH 58 62
ENDBRANCH 45 58
ENDBRANCH 44 48
ENDBRANCH 31 44
ENDBRANCH 30 34
ENDBRANCH 17 30
ENDBRANCH 16 20
ENDBRANCH 1 16
TORSDOF 8
ENDMDL
MODEL 96
REMARK VINA RESULT:      -5.1     21.759     24.138
ROOT
ATOM      1  C1  BGC C   1      -0.173 -16.731 -26.1640  0.00  0.00     0.000 C
ATOM      2  C2  BGC C   1      -0.799 -16.158 -24.8930  0.00  0.00     0.000 C
ATOM      3  C3  BGC C   1      -2.095 -15.430 -25.2310  0.00  0.00     0.000 C
ATOM      4  C4  BGC C   1      -1.916 -14.435 -26.3660  0.00  0.00     0.000 C
ATOM      5  C5  BGC C   1      -1.142 -15.077 -27.5140  0.00  0.00     0.000 C
ATOM      6  O5  BGC C   1       0.009 -15.748 -27.1100  0.00  0.00     0.000 O
ATOM      7   O  BGC C   1      -1.056 -17.237 -24.0260  0.00  0.00     0.000 O
ATOM      9  HD  BGC C   1      -1.004 -16.401 -23.8050  0.00  0.00     0.000 HD
ATOM      9   O  BGC C   1      -2.576 -14.801 -24.0360  0.00  0.00     0.000 O
ATOM     11  HD  BGC C   1      -2.524 -13.965 -23.8150  0.00  0.00     0.000 HD
ATOM     11   O  BGC C   1      -3.220 -14.047 -26.7820  0.00  0.00     0.000 O
ATOM     13  HD  BGC C   1      -3.168 -13.211 -26.5610  0.00  0.00     0.000 HD
ATOM     13   O  BGC C   1       0.250 -13.070 -27.9280  0.00  0.00     0.000 O
ATOM     15  HD  BGC C   1       0.302 -12.234 -27.7080  0.00  0.00     0.000 HD
ATOM     15   C  BGC C   1      -0.742 -13.966 -28.5020  0.00  0.00     0.000 C
ENDROOT
BRANCH 1 16
ATOM     16  O4  BGC C   2       1.101 -17.241 -25.8490  0.00  0.00     0.000 O
BRANCH 16 20
ATOM     17  C1  BGC C   2       3.460 -20.398 -26.9140  0.00  0.00     0.000 C
ATOM     18  C2  BGC C   2       3.442 -19.226 -27.8820  0.00  0.00     0.000 C
ATOM     19  C3  BGC C   2       2.841 -17.992 -27.2240  0.00  0.00     0.000 C
ATOM     20  C4  BGC C   2       1.522 -18.340 -26.6210  0.00  0.00     0.000 C
ATOM     21  C5  BGC C   2       1.635 -19.573 -25.7300  0.00  0.00     0.000 C
ATOM     22  O5  BGC C   2       2.170 -20.651 -26.4360  0.00  0.00     0.000 O
ATOM     23   O  BGC C   2       4.785 -18.961 -28.3150  0.00  0.00     0.000 O
ATOM     25  HD  BGC C   2       4.921 -18.106 -28.3540  0.00  0.00     0.000 HD
ATOM     25   O  BGC C   2       2.670 -16.976 -28.2050  0.00  0.00     0.000 O
ATOM     27  HD  BGC C   2       2.806 -16.121 -28.2450  0.00  0.00     0.000 HD
ATOM     27   C  BGC C   2       0.311 -20.020 -25.0760  0.00  0.00     0.000 C
ATOM     28   O  BGC C   2      -0.716 -20.218 -26.0610  0.00  0.00     0.000 O
ATOM     30  HD  BGC C   2      -0.580 -19.363 -26.1010  0.00  0.00     0.000 HD
BRANCH 17 30
ATOM     30  O4  BGC C   3       3.924 -21.550 -27.5870  0.00  0.00     0.000 O
BRANCH 30 34
ATOM     31  C1  BGC C   3       6.044 -24.933 -26.9550  0.00  0.00     0.000 C
ATOM     32  C2  BGC C   3       4.578 -24.958 -26.4600  0.00  0.00     0.000 C
ATOM     33  C3  BGC C   3       3.795 -23.829 -27.0370  0.00  0.00     0.000 C
ATOM     34  C4  BGC C   3       4.564 -22.530 -26.7840  0.00  0.00     0.000 C
ATOM     35  C5  BGC C   3       6.060 -22.601 -27.1830  0.00  0.00     0.000 C
ATOM     36  O5  BGC C   3       6.666 -23.725 -26.5940  0.00  0.00     0.000 O
ATOM     37   O  BGC C   3       3.814 -26.129 -26.6790  0.00  0.00     0.000 O
ATOM     39  HD  BGC C   3       3.814 -25.263 -26.6580  0.00  0.00     0.000 HD
ATOM     39   O  BGC C   3       2.467 -23.779 -26.4390  0.00  0.00     0.000 O
ATOM     41  HD  BGC C   3       2.467 -22.914 -26.4180  0.00  0.00     0.000 HD
ATOM     41   C  BGC C   3       6.907 -21.374 -26.7740  0.00  0.00     0.000 C
ATOM     42   O  BGC C   3       7.034 -21.154 -25.3230  0.00  0.00     0.000 O
ATOM     44  HD  BGC C   3       7.035 -20.289 -25.3020  0.00  0.00     0.000 HD
BRANCH 31 44
ATOM     44  O4  BGC C   4       6.769 -25.988 -26.4160  0.00  0.00     0.000 O
BRANCH 44 48
ATOM     45  C1  BGC C   4       9.646 -28.797 -27.1870  0.00  0.00     0.000 C
ATOM     46  C2  BGC C   4      10.273 -27.381 -26.9790  0.00  0.00     0.000 C
ATOM     47  C3  BGC C   4       9.089 -26.588 -26.4110  0.00  0.00     0.000 C
ATOM     48  C4  BGC C   4       7.768 -26.627 -27.1540  0.00  0.00     0.000 C
ATOM     49  C5  BGC C   4       7.368 -28.108 -27.2410  0.00  0.00     0.000 C
ATOM     50  O5  BGC C   4       8.367 -28.859 -27.8380  0.00  0.00     0.000 O
ATOM     51   O  BGC C   4      11.484 -27.129 -26.0630  0.00  0.00     0.000 O
ATOM     53  HD  BGC C   4      11.636 -26.282 -25.9640  0.00  0.00     0.000 HD
ATOM     53   O  BGC C   4       9.594 -25.188 -26.6240  0.00  0.00     0.000 O
ATOM     55  HD  BGC C   4       9.746 -24.341 -26.5250  0.00  0.00     0.000 HD
ATOM     55   C  BGC C   4       6.148 -28.298 -28.1040  0.00  0.00     0.000 C
ATOM     56   O  BGC C   4       6.247 -27.784 -29.4370  0.00  0.00     0.000 O
ATOM     58  HD  BGC C   4       6.399 -26.937 -29.3390  0.00  0.00     0.000 HD
BRANCH 45 58
ATOM     58  O4  BGC C   5      10.478 -29.639 -27.9280  0.00  0.00     0.000 O
BRANCH 58 62
ATOM     59  C1  BGC C   5      12.288 -31.285 -29.7620  0.00  0.00     0.000 C
ATOM     60  C2  BGC C   5      12.488 -29.900 -30.1270  0.00  0.00     0.000 C
ATOM     61  C3  BGC C   5      11.192 -29.103 -30.2430  0.00  0.00     0.000 C
ATOM     62  C4  BGC C   5      10.144 -29.731 -29.3350  0.00  0.00     0.000 C
ATOM     63  C5  BGC C   5      10.208 -31.227 -29.5430  0.00  0.00     0.000 C
ATOM     64  O5  BGC C   5      11.350 -31.769 -30.2040  0.00  0.00     0.000 O
ATOM     65   O  BGC C   5       8.851 -31.238 -31.5410  0.00  0.00     0.000 O
ATOM     67  HD  BGC C   5       8.873 -31.320 -30.6800  0.00  0.00     0.000 HD
ATOM     67   O  BGC C   5       8.851 -31.238 -31.5410  0.00  0.00     0.000 O
ATOM     69  HD  BGC C   5       8.873 -31.320 -30.6800  0.00  0.00     0.000 HD
ENDBRANCH 58 62
ENDBRANCH 45 58
ENDBRANCH 44 48
ENDBRANCH 31 44
ENDBRANCH 30 34
ENDBRANCH 17 30
ENDBRANCH 16 20
ENDBRANCH 1 16
TORSDOF 8
ENDMDL
MODEL 97
REMARK VINA RESULT:      -5.1     22.046     26.040
ROOT
ATOM      1  C1  BGC C   1       0.665 -17.372 -26.7020  0.00  0.00     0.000 C
ATOM      2  C2  BGC C   1      -0.165 -16.252 -26.0780  0.00  0.00     0.000 C
ATOM      3  C3  BGC C   1      -0.431 -15.162 -27.1100  0.00  0.00     0.000 C
ATOM      4  C4  BGC C   1       0.840 -14.710 -27.8090  0.00  0.00     0.000 C
ATOM      5  C5  BGC C   1       1.660 -15.919 -28.2500  0.00  0.00     0.000 C
ATOM      6  O5  BGC C   1       1.825 -16.878 -27.2540  0.00  0.00     0.000 O
ATOM      7   O  BGC C   1      -1.377 -16.817 -25.6400  0.00  0.00     0.000 O
ATOM      9  HD  BGC C   1      -1.039 -16.062 -25.3820  0.00  0.00     0.000 HD
ATOM      9   O  BGC C   1      -1.096 -14.077 -26.4490  0.00  0.00     0.000 O
ATOM     11  HD  BGC C   1      -0.758 -13.322 -26.1920  0.00  0.00     0.000 HD
ATOM     11   O  BGC C   1       0.438 -13.929 -28.9290  0.00  0.00     0.000 O
ATOM     13  HD  BGC C   1       0.775 -13.174 -28.6720  0.00  0.00     0.000 HD
ATOM     13   O  BGC C   1       3.822 -14.924 -27.5620  0.00  0.00     0.000 O
ATOM     15  HD  BGC C   1       4.159 -14.169 -27.3040  0.00  0.00     0.000 HD
ATOM     15   C  BGC C   1       3.049 -15.423 -28.6890  0.00  0.00     0.000 C
ENDROOT
BRANCH 1 16
ATOM     16  O4  BGC C   2       1.043 -18.272 -25.6870  0.00  0.00     0.000 O
BRANCH 16 20
ATOM     17  C1  BGC C   2       1.854 -22.255 -25.2920  0.00  0.00     0.000 C
ATOM     18  C2  BGC C   2       2.951 -21.413 -25.9230  0.00  0.00     0.000 C
ATOM     19  C3  BGC C   2       2.697 -19.930 -25.6870  0.00  0.00     0.000 C
ATOM     20  C4  BGC C   2       1.309 -19.588 -26.1110  0.00  0.00     0.000 C
ATOM     21  C5  BGC C   2       0.294 -20.538 -25.4830  0.00  0.00     0.000 C
ATOM     22  O5  BGC C   2       0.603 -21.866 -25.7820  0.00  0.00     0.000 O
ATOM     23   O  BGC C   2       4.214 -21.801 -25.3620  0.00  0.00     0.000 O
ATOM     25  HD  BGC C   2       4.704 -21.101 -25.2200  0.00  0.00     0.000 HD
ATOM     25   O  BGC C   2       3.633 -19.170 -26.4420  0.00  0.00     0.000 O
ATOM     27  HD  BGC C   2       4.123 -18.470 -26.3000  0.00  0.00     0.000 HD
ATOM     27   C  BGC C   2      -1.173 -20.272 -25.8820  0.00  0.00     0.000 C
ATOM     28   O  BGC C   2      -1.330 -20.258 -27.3100  0.00  0.00     0.000 O
ATOM     30  HD  BGC C   2      -0.840 -19.558 -27.1680  0.00  0.00     0.000 HD
BRANCH 17 30
ATOM     30  O4  BGC C   3       2.063 -23.612 -25.6180  0.00  0.00     0.000 O
BRANCH 30 34
ATOM     31  C1  BGC C   3       1.910 -27.277 -23.9190  0.00  0.00     0.000 C
ATOM     32  C2  BGC C   3       0.594 -26.782 -24.5670  0.00  0.00     0.000 C
ATOM     33  C3  BGC C   3       0.838 -25.608 -25.4510  0.00  0.00     0.000 C
ATOM     34  C4  BGC C   3       1.626 -24.563 -24.6580  0.00  0.00     0.000 C
ATOM     35  C5  BGC C   3       2.865 -25.137 -23.9250  0.00  0.00     0.000 C
ATOM     36  O5  BGC C   3       2.497 -26.253 -23.1540  0.00  0.00     0.000 O
ATOM     37   O  BGC C   3      -0.169 -27.703 -25.3230  0.00  0.00     0.000 O
ATOM     39  HD  BGC C   3       0.112 -26.887 -25.2540  0.00  0.00     0.000 HD
ATOM     39   O  BGC C   3      -0.429 -25.064 -25.9260  0.00  0.00     0.000 O
ATOM     41  HD  BGC C   3      -0.148 -24.248 -25.8560  0.00  0.00     0.000 HD
ATOM     41   C  BGC C   3       3.578 -24.151 -22.9710  0.00  0.00     0.000 C
ATOM     42   O  BGC C   3       2.777 -23.705 -21.8180  0.00  0.00     0.000 O
ATOM     44  HD  BGC C   3       3.059 -22.888 -21.7480  0.00  0.00     0.000 HD
BRANCH 31 44
ATOM     44  O4  BGC C   4       1.679 -28.372 -23.0970  0.00  0.00     0.000 O
BRANCH 44 48
ATOM     45  C1  BGC C   4       3.256 -31.885 -21.7080  0.00  0.00     0.000 C
ATOM     46  C2  BGC C   4       4.183 -30.673 -21.3730  0.00  0.00     0.000 C
ATOM     47  C3  BGC C   4       3.274 -29.480 -21.6920  0.00  0.00     0.000 C
ATOM     48  C4  BGC C   4       2.583 -29.435 -23.0410  0.00  0.00     0.000 C
ATOM     49  C5  BGC C   4       1.751 -30.723 -23.1390  0.00  0.00     0.000 C
ATOM     50  O5  BGC C   4       2.545 -31.843 -22.9550  0.00  0.00     0.000 O
ATOM     51   O  BGC C   4       4.784 -30.439 -19.9750  0.00  0.00     0.000 O
ATOM     53  HD  BGC C   4       5.175 -29.669 -19.9230  0.00  0.00     0.000 HD
ATOM     53   O  BGC C   4       4.304 -28.386 -21.7670  0.00  0.00     0.000 O
ATOM     55  HD  BGC C   4       4.696 -27.616 -21.7150  0.00  0.00     0.000 HD
ATOM     55   C  BGC C   4       1.141 -30.880 -24.5080  0.00  0.00     0.000 C
ATOM     56   O  BGC C   4       2.064 -30.861 -25.6030  0.00  0.00     0.000 O
ATOM     58  HD  BGC C   4       2.455 -30.091 -25.5510  0.00  0.00     0.000 HD
BRANCH 45 58
ATOM     58  O4  BGC C   5       3.954 -33.095 -21.7220  0.00  0.00     0.000 O
BRANCH 58 62
ATOM     59  C1  BGC C   5       5.498 -34.777 -19.6870  0.00  0.00     0.000 C
ATOM     60  C2  BGC C   5       5.284 -35.625 -20.8410  0.00  0.00     0.000 C
ATOM     61  C3  BGC C   5       3.865 -35.553 -21.3990  0.00  0.00     0.000 C
ATOM     62  C4  BGC C   5       3.272 -34.192 -21.0660  0.00  0.00     0.000 C
ATOM     63  C5  BGC C   5       3.598 -33.903 -19.6190  0.00  0.00     0.000 C
ATOM     64  O5  BGC C   5       4.601 -34.691 -18.9810  0.00  0.00     0.000 O
ATOM     65   O  BGC C   5       1.776 -35.203 -18.7090  0.00  0.00     0.000 O
ATOM     67  HD  BGC C   5       2.054 -34.424 -18.9660  0.00  0.00     0.000 HD
ATOM     67   O  BGC C   5       1.776 -35.203 -18.7090  0.00  0.00     0.000 O
ATOM     69  HD  BGC C   5       2.054 -34.424 -18.9660  0.00  0.00     0.000 HD
ENDBRANCH 58 62
ENDBRANCH 45 58
ENDBRANCH 44 48
ENDBRANCH 31 44
ENDBRANCH 30 34
ENDBRANCH 17 30
ENDBRANCH 16 20
ENDBRANCH 1 16
TORSDOF 8
ENDMDL
MODEL 98
REMARK VINA RESULT:      -5.1     17.156     22.670
ROOT
ATOM      1  C1  BGC C   1      14.859 -20.221 -29.8440  0.00  0.00     0.000 C
ATOM      2  C2  BGC C   1      15.520 -20.040 -31.2100  0.00  0.00     0.000 C
ATOM      3  C3  BGC C   1      17.010 -19.770 -31.0360  0.00  0.00     0.000 C
ATOM      4  C4  BGC C   1      17.280 -18.657 -30.0370  0.00  0.00     0.000 C
ATOM      5  C5  BGC C   1      16.445 -18.866 -28.7770  0.00  0.00     0.000 C
ATOM      6  O5  BGC C   1      15.104 -19.139 -29.0300  0.00  0.00     0.000 O
ATOM      7   O  BGC C   1      15.320 -21.229 -31.9370  0.00  0.00     0.000 O
ATOM      9  HD  BGC C   1      15.531 -20.455 -32.2640  0.00  0.00     0.000 HD
ATOM      9   O  BGC C   1      17.562 -19.477 -32.3270  0.00  0.00     0.000 O
ATOM     11  HD  BGC C   1      17.773 -18.704 -32.6540  0.00  0.00     0.000 HD
ATOM     11   O  BGC C   1      18.672 -18.699 -29.7410  0.00  0.00     0.000 O
ATOM     13  HD  BGC C   1      18.883 -17.925 -30.0690  0.00  0.00     0.000 HD
ATOM     13   O  BGC C   1      15.851 -16.470 -28.5640  0.00  0.00     0.000 O
ATOM     15  HD  BGC C   1      16.062 -15.696 -28.8910  0.00  0.00     0.000 HD
ATOM     15   C  BGC C   1      16.533 -17.585 -27.9260  0.00  0.00     0.000 C
ENDROOT
BRANCH 1 16
ATOM     16  O4  BGC C   2      13.464 -20.293 -30.0250  0.00  0.00     0.000 O
BRANCH 16 20
ATOM     17  C1  BGC C   2      10.128 -20.818 -27.7290  0.00  0.00     0.000 C
ATOM     18  C2  BGC C   2      10.704 -19.411 -27.7530  0.00  0.00     0.000 C
ATOM     19  C3  BGC C   2      11.695 -19.252 -28.8980  0.00  0.00     0.000 C
ATOM     20  C4  BGC C   2      12.702 -20.351 -28.8430  0.00  0.00     0.000 C
ATOM     21  C5  BGC C   2      12.022 -21.713 -28.7450  0.00  0.00     0.000 C
ATOM     22  O5  BGC C   2      11.158 -21.761 -27.6490  0.00  0.00     0.000 O
ATOM     23   O  BGC C   2       9.627 -18.471 -27.8860  0.00  0.00     0.000 O
ATOM     25  HD  BGC C   2       9.854 -17.835 -28.4290  0.00  0.00     0.000 HD
ATOM     25   O  BGC C   2      12.348 -17.993 -28.7790  0.00  0.00     0.000 O
ATOM     27  HD  BGC C   2      12.574 -17.358 -29.3220  0.00  0.00     0.000 HD
ATOM     27   C  BGC C   2      12.988 -22.913 -28.6630  0.00  0.00     0.000 C
ATOM     28   O  BGC C   2      13.927 -22.753 -27.5880  0.00  0.00     0.000 O
ATOM     30  HD  BGC C   2      14.154 -22.117 -28.1310  0.00  0.00     0.000 HD
BRANCH 17 30
ATOM     30  O4  BGC C   3       9.297 -20.962 -26.5970  0.00  0.00     0.000 O
BRANCH 30 34
ATOM     31  C1  BGC C   3       5.762 -22.618 -25.5510  0.00  0.00     0.000 C
ATOM     32  C2  BGC C   3       7.009 -23.506 -25.3320  0.00  0.00     0.000 C
ATOM     33  C3  BGC C   3       8.262 -22.704 -25.4120  0.00  0.00     0.000 C
ATOM     34  C4  BGC C   3       8.237 -21.898 -26.7130  0.00  0.00     0.000 C
ATOM     35  C5  BGC C   3       6.913 -21.125 -26.9430  0.00  0.00     0.000 C
ATOM     36  O5  BGC C   3       5.816 -21.994 -26.8100  0.00  0.00     0.000 O
ATOM     37   O  BGC C   3       7.093 -24.264 -24.1400  0.00  0.00     0.000 O
ATOM     39  HD  BGC C   3       7.524 -23.791 -24.7240  0.00  0.00     0.000 HD
ATOM     39   O  BGC C   3       9.426 -23.581 -25.3590  0.00  0.00     0.000 O
ATOM     41  HD  BGC C   3       9.856 -23.109 -25.9440  0.00  0.00     0.000 HD
ATOM     41   C  BGC C   3       6.781 -20.449 -28.3280  0.00  0.00     0.000 C
ATOM     42   O  BGC C   3       6.747 -21.372 -29.4750  0.00  0.00     0.000 O
ATOM     44  HD  BGC C   3       7.177 -20.899 -30.0600  0.00  0.00     0.000 HD
BRANCH 31 44
ATOM     44  O4  BGC C   4       4.596 -23.368 -25.4740  0.00  0.00     0.000 O
BRANCH 44 48
ATOM     45  C1  BGC C   4       0.820 -23.478 -23.8960  0.00  0.00     0.000 C
ATOM     46  C2  BGC C   4       0.856 -22.667 -25.2310  0.00  0.00     0.000 C
ATOM     47  C3  BGC C   4       2.244 -23.018 -25.7790  0.00  0.00     0.000 C
ATOM     48  C4  BGC C   4       3.446 -22.854 -24.8700  0.00  0.00     0.000 C
ATOM     49  C5  BGC C   4       3.172 -23.729 -23.6360  0.00  0.00     0.000 C
ATOM     50  O5  BGC C   4       1.969 -23.386 -23.0410  0.00  0.00     0.000 O
ATOM     51   O  BGC C   4      -0.161 -22.879 -26.3680  0.00  0.00     0.000 O
ATOM     53  HD  BGC C   4       0.064 -22.440 -27.0800  0.00  0.00     0.000 HD
ATOM     53   O  BGC C   4       2.401 -21.924 -26.8000  0.00  0.00     0.000 O
ATOM     55  HD  BGC C   4       2.625 -21.485 -27.5120  0.00  0.00     0.000 HD
ATOM     55   C  BGC C   4       4.221 -23.526 -22.5740  0.00  0.00     0.000 C
ATOM     56   O  BGC C   4       4.402 -22.176 -22.1320  0.00  0.00     0.000 O
ATOM     58  HD  BGC C   4       4.626 -21.737 -22.8440  0.00  0.00     0.000 HD
BRANCH 45 58
ATOM     58  O4  BGC C   5      -0.267 -23.124 -23.0930  0.00  0.00     0.000 O
BRANCH 58 62
ATOM     59  C1  BGC C   5      -2.340 -21.239 -21.8690  0.00  0.00     0.000 C
ATOM     60  C2  BGC C   5      -1.300 -20.399 -22.4220  0.00  0.00     0.000 C
ATOM     61  C3  BGC C   5       0.112 -20.882 -22.1020  0.00  0.00     0.000 C
ATOM     62  C4  BGC C   5       0.083 -22.389 -21.8950  0.00  0.00     0.000 C
ATOM     63  C5  BGC C   5      -1.107 -22.698 -21.0160  0.00  0.00     0.000 C
ATOM     64  O5  BGC C   5      -2.101 -21.690 -20.8440  0.00  0.00     0.000 O
ATOM     65   O  BGC C   5       0.005 -22.178 -18.9350  0.00  0.00     0.000 O
ATOM     67  HD  BGC C   5      -0.213 -22.790 -19.5080  0.00  0.00     0.000 HD
ATOM     67   O  BGC C   5       0.005 -22.178 -18.9350  0.00  0.00     0.000 O
ATOM     69  HD  BGC C   5      -0.213 -22.790 -19.5080  0.00  0.00     0.000 HD
ENDBRANCH 58 62
ENDBRANCH 45 58
ENDBRANCH 44 48
ENDBRANCH 31 44
ENDBRANCH 30 34
ENDBRANCH 17 30
ENDBRANCH 16 20
ENDBRANCH 1 16
TORSDOF 8
ENDMDL
MODEL 99
REMARK VINA RESULT:      -5.0     22.515     26.906
ROOT
ATOM      1  C1  BGC C   1       9.414 -27.549 -27.0890  0.00  0.00     0.000 C
ATOM      2  C2  BGC C   1      10.765 -27.820 -26.4280  0.00  0.00     0.000 C
ATOM      3  C3  BGC C   1      11.688 -28.540 -27.4040  0.00  0.00     0.000 C
ATOM      4  C4  BGC C   1      11.025 -29.752 -28.0350  0.00  0.00     0.000 C
ATOM      5  C5  BGC C   1       9.621 -29.395 -28.5170  0.00  0.00     0.000 C
ATOM      6  O5  BGC C   1       8.860 -28.711 -27.5730  0.00  0.00     0.000 O
ATOM      7   O  BGC C   1      11.314 -26.576 -26.0630  0.00  0.00     0.000 O
ATOM      9  HD  BGC C   1      11.545 -27.351 -25.7520  0.00  0.00     0.000 HD
ATOM      9   O  BGC C   1      12.890 -28.889 -26.7050  0.00  0.00     0.000 O
ATOM     11  HD  BGC C   1      13.120 -29.664 -26.3940  0.00  0.00     0.000 HD
ATOM     11   O  BGC C   1      11.852 -30.156 -29.1210  0.00  0.00     0.000 O
ATOM     13  HD  BGC C   1      12.082 -30.931 -28.8100  0.00  0.00     0.000 HD
ATOM     13   O  BGC C   1       8.615 -31.508 -27.7040  0.00  0.00     0.000 O
ATOM     15  HD  BGC C   1       8.846 -32.283 -27.3930  0.00  0.00     0.000 HD
ATOM     15   C  BGC C   1       8.893 -30.702 -28.8820  0.00  0.00     0.000 C
ENDROOT
BRANCH 1 16
ATOM     16  O4  BGC C   2       8.530 -27.046 -26.1150  0.00  0.00     0.000 O
BRANCH 16 20
ATOM     17  C1  BGC C   2       5.251 -24.616 -25.9650  0.00  0.00     0.000 C
ATOM     18  C2  BGC C   2       4.989 -26.064 -26.3480  0.00  0.00     0.000 C
ATOM     19  C3  BGC C   2       6.192 -26.936 -26.0190  0.00  0.00     0.000 C
ATOM     20  C4  BGC C   2       7.422 -26.334 -26.6120  0.00  0.00     0.000 C
ATOM     21  C5  BGC C   2       7.551 -24.863 -26.2310  0.00  0.00     0.000 C
ATOM     22  O5  BGC C   2       6.408 -24.150 -26.5990  0.00  0.00     0.000 O
ATOM     23   O  BGC C   2       3.827 -26.526 -25.6430  0.00  0.00     0.000 O
ATOM     25  HD  BGC C   2       3.950 -27.338 -25.3670  0.00  0.00     0.000 HD
ATOM     25   O  BGC C   2       5.986 -28.238 -26.5550  0.00  0.00     0.000 O
ATOM     27  HD  BGC C   2       6.109 -29.049 -26.2800  0.00  0.00     0.000 HD
ATOM     27   C  BGC C   2       8.787 -24.149 -26.8170  0.00  0.00     0.000 C
ATOM     28   O  BGC C   2       8.843 -24.294 -28.2450  0.00  0.00     0.000 O
ATOM     30  HD  BGC C   2       8.966 -25.106 -27.9690  0.00  0.00     0.000 HD
BRANCH 17 30
ATOM     30  O4  BGC C   3       4.161 -23.820 -26.3780  0.00  0.00     0.000 O
BRANCH 30 34
ATOM     31  C1  BGC C   3       1.950 -20.634 -25.2370  0.00  0.00     0.000 C
ATOM     32  C2  BGC C   3       3.398 -20.321 -25.6830  0.00  0.00     0.000 C
ATOM     33  C3  BGC C   3       4.003 -21.477 -26.4010  0.00  0.00     0.000 C
ATOM     34  C4  BGC C   3       3.827 -22.728 -25.5350  0.00  0.00     0.000 C
ATOM     35  C5  BGC C   3       2.382 -22.927 -25.0110  0.00  0.00     0.000 C
ATOM     36  O5  BGC C   3       1.928 -21.753 -24.3850  0.00  0.00     0.000 O
ATOM     37   O  BGC C   3       3.620 -19.184 -26.4960  0.00  0.00     0.000 O
ATOM     39  HD  BGC C   3       3.840 -20.005 -26.3310  0.00  0.00     0.000 HD
ATOM     39   O  BGC C   3       5.413 -21.220 -26.6730  0.00  0.00     0.000 O
ATOM     41  HD  BGC C   3       5.633 -22.041 -26.5080  0.00  0.00     0.000 HD
ATOM     41   C  BGC C   3       2.207 -24.073 -23.9890  0.00  0.00     0.000 C
ATOM     42   O  BGC C   3       2.924 -23.892 -22.7150  0.00  0.00     0.000 O
ATOM     44  HD  BGC C   3       3.144 -24.713 -22.5500  0.00  0.00     0.000 HD
BRANCH 31 44
ATOM     44  O4  BGC C   4       1.389 -19.553 -24.5700  0.00  0.00     0.000 O
BRANCH 44 48
ATOM     45  C1  BGC C   4      -2.001 -17.303 -24.1250  0.00  0.00     0.000 C
ATOM     46  C2  BGC C   4      -2.127 -18.673 -23.3850  0.00  0.00     0.000 C
ATOM     47  C3  BGC C   4      -0.681 -19.187 -23.4200  0.00  0.00     0.000 C
ATOM     48  C4  BGC C   4       0.046 -19.213 -24.7500  0.00  0.00     0.000 C
ATOM     49  C5  BGC C   4       0.027 -17.770 -25.2770  0.00  0.00     0.000 C
ATOM     50  O5  BGC C   4      -1.269 -17.287 -25.3590  0.00  0.00     0.000 O
ATOM     51   O  BGC C   4      -2.629 -18.800 -21.9350  0.00  0.00     0.000 O
ATOM     53  HD  BGC C   4      -2.530 -19.605 -21.6340  0.00  0.00     0.000 HD
ATOM     53   O  BGC C   4      -0.917 -20.637 -23.0970  0.00  0.00     0.000 O
ATOM     55  HD  BGC C   4      -0.817 -21.442 -22.7960  0.00  0.00     0.000 HD
ATOM     55   C  BGC C   4       0.578 -17.690 -26.6780  0.00  0.00     0.000 C
ATOM     56   O  BGC C   4      -0.066 -18.527 -27.6450  0.00  0.00     0.000 O
ATOM     58  HD  BGC C   4       0.034 -19.333 -27.3440  0.00  0.00     0.000 HD
BRANCH 45 58
ATOM     58  O4  BGC C   5      -3.249 -16.752 -24.4290  0.00  0.00     0.000 O
BRANCH 58 62
ATOM     59  C1  BGC C   5      -4.648 -14.551 -26.0260  0.00  0.00     0.000 C
ATOM     60  C2  BGC C   5      -3.286 -14.107 -25.8230  0.00  0.00     0.000 C
ATOM     61  C3  BGC C   5      -2.778 -14.317 -24.3990  0.00  0.00     0.000 C
ATOM     62  C4  BGC C   5      -3.525 -15.488 -23.7770  0.00  0.00     0.000 C
ATOM     63  C5  BGC C   5      -4.989 -15.314 -24.1080  0.00  0.00     0.000 C
ATOM     64  O5  BGC C   5      -5.345 -14.389 -25.1330  0.00  0.00     0.000 O
ATOM     65   O  BGC C   5      -5.441 -13.749 -22.3230  0.00  0.00     0.000 O
ATOM     67  HD  BGC C   5      -5.444 -14.576 -22.5810  0.00  0.00     0.000 HD
ATOM     67   O  BGC C   5      -5.441 -13.749 -22.3230  0.00  0.00     0.000 O
ATOM     69  HD  BGC C   5      -5.444 -14.576 -22.5810  0.00  0.00     0.000 HD
ENDBRANCH 58 62
ENDBRANCH 45 58
ENDBRANCH 44 48
ENDBRANCH 31 44
ENDBRANCH 30 34
ENDBRANCH 17 30
ENDBRANCH 16 20
ENDBRANCH 1 16
TORSDOF 8
ENDMDL
MODEL 100
REMARK VINA RESULT:      -4.7      4.249      9.619
ROOT
ATOM      1  C1  BGC C   1      20.386  -8.680 -17.0630  0.00  0.00     0.000 C
ATOM      2  C2  BGC C   1      21.039  -7.458 -17.7080  0.00  0.00     0.000 C
ATOM      3  C3  BGC C   1      21.464  -6.465 -16.6330  0.00  0.00     0.000 C
ATOM      4  C4  BGC C   1      20.339  -6.155 -15.6590  0.00  0.00     0.000 C
ATOM      5  C5  BGC C   1      19.664  -7.446 -15.2050  0.00  0.00     0.000 C
ATOM      6  O5  BGC C   1      19.340  -8.308 -16.2490  0.00  0.00     0.000 O
ATOM      7   O  BGC C   1      22.161  -7.910 -18.4280  0.00  0.00     0.000 O
ATOM      9  HD  BGC C   1      21.753  -7.153 -18.5330  0.00  0.00     0.000 HD
ATOM      9   O  BGC C   1      21.949  -5.284 -17.2860  0.00  0.00     0.000 O
ATOM     11  HD  BGC C   1      21.541  -4.527 -17.3910  0.00  0.00     0.000 HD
ATOM     11   O  BGC C   1      20.926  -5.470 -14.5580  0.00  0.00     0.000 O
ATOM     13  HD  BGC C   1      20.519  -4.713 -14.6630  0.00  0.00     0.000 HD
ATOM     13   O  BGC C   1      17.376  -6.507 -15.3550  0.00  0.00     0.000 O
ATOM     15  HD  BGC C   1      16.969  -5.750 -15.4600  0.00  0.00     0.000 HD
ATOM     15   C  BGC C   1      18.371  -7.073 -14.4570  0.00  0.00     0.000 C
ENDROOT
BRANCH 1 16
ATOM     16  O4  BGC C   2      19.848  -9.493 -18.0790  0.00  0.00     0.000 O
BRANCH 16 20
ATOM     17  C1  BGC C   2      18.792 -13.409 -18.5530  0.00  0.00     0.000 C
ATOM     18  C2  BGC C   2      17.719 -12.496 -17.9800  0.00  0.00     0.000 C
ATOM     19  C3  BGC C   2      18.087 -11.034 -18.1880  0.00  0.00     0.000 C
ATOM     20  C4  BGC C   2      19.469 -10.789 -17.6820  0.00  0.00     0.000 C
ATOM     21  C5  BGC C   2      20.452 -11.804 -18.2580  0.00  0.00     0.000 C
ATOM     22  O5  BGC C   2      20.036 -13.109 -17.9880  0.00  0.00     0.000 O
ATOM     23   O  BGC C   2      16.468 -12.794 -18.6160  0.00  0.00     0.000 O
ATOM     25  HD  BGC C   2      16.036 -12.062 -18.7810  0.00  0.00     0.000 HD
ATOM     25   O  BGC C   2      17.163 -10.214 -17.4830  0.00  0.00     0.000 O
ATOM     27  HD  BGC C   2      16.731  -9.482 -17.6470  0.00  0.00     0.000 HD
ATOM     27   C  BGC C   2      21.907 -11.641 -17.7730  0.00  0.00     0.000 C
ATOM     28   O  BGC C   2      21.981 -11.643 -16.3380  0.00  0.00     0.000 O
ATOM     30  HD  BGC C   2      21.550 -10.911 -16.5020  0.00  0.00     0.000 HD
BRANCH 17 30
ATOM     30  O4  BGC C   3      18.472 -14.750 -18.2510  0.00  0.00     0.000 O
BRANCH 30 34
ATOM     31  C1  BGC C   3      19.387 -18.536 -19.3310  0.00  0.00     0.000 C
ATOM     32  C2  BGC C   3      20.425 -17.826 -18.4290  0.00  0.00     0.000 C
ATOM     33  C3  BGC C   3      19.851 -16.599 -17.8110  0.00  0.00     0.000 C
ATOM     34  C4  BGC C   3      19.235 -15.743 -18.9200  0.00  0.00     0.000 C
ATOM     35  C5  BGC C   3      18.299 -16.532 -19.8720  0.00  0.00     0.000 C
ATOM     36  O5  BGC C   3      18.956 -17.676 -20.3570  0.00  0.00     0.000 O
ATOM     37   O  BGC C   3      21.018 -18.565 -17.3780  0.00  0.00     0.000 O
ATOM     39  HD  BGC C   3      20.703 -17.799 -17.6310  0.00  0.00     0.000 HD
ATOM     39   O  BGC C   3      20.887 -15.864 -17.0940  0.00  0.00     0.000 O
ATOM     41  HD  BGC C   3      20.572 -15.098 -17.3470  0.00  0.00     0.000 HD
ATOM     41   C  BGC C   3      17.805 -15.744 -21.1070  0.00  0.00     0.000 C
ATOM     42   O  BGC C   3      18.857 -15.338 -22.0540  0.00  0.00     0.000 O
ATOM     44  HD  BGC C   3      18.542 -14.571 -22.3070  0.00  0.00     0.000 HD
BRANCH 31 44
ATOM     44  O4  BGC C   4      19.925 -19.681 -19.9040  0.00  0.00     0.000 O
BRANCH 44 48
ATOM     45  C1  BGC C   4      19.198 -23.617 -20.7610  0.00  0.00     0.000 C
ATOM     46  C2  BGC C   4      18.057 -22.697 -21.3010  0.00  0.00     0.000 C
ATOM     47  C3  BGC C   4      18.677 -21.301 -21.1530  0.00  0.00     0.000 C
ATOM     48  C4  BGC C   4      19.268 -20.910 -19.8130  0.00  0.00     0.000 C
ATOM     49  C5  BGC C   4      20.346 -21.960 -19.4970  0.00  0.00     0.000 C
ATOM     50  O5  BGC C   4      19.816 -23.239 -19.5210  0.00  0.00     0.000 O
ATOM     51   O  BGC C   4      17.498 -22.807 -22.7310  0.00  0.00     0.000 O
ATOM     53  HD  BGC C   4      16.957 -22.156 -22.9110  0.00  0.00     0.000 HD
ATOM     53   O  BGC C   4      17.437 -20.457 -21.2710  0.00  0.00     0.000 O
ATOM     55  HD  BGC C   4      16.896 -19.806 -21.4520  0.00  0.00     0.000 HD
ATOM     55   C  BGC C   4      20.899 -21.777 -18.1080  0.00  0.00     0.000 C
ATOM     56   O  BGC C   4      19.935 -21.796 -17.0490  0.00  0.00     0.000 O
ATOM     58  HD  BGC C   4      19.394 -21.144 -17.2290  0.00  0.00     0.000 HD
BRANCH 45 58
ATOM     58  O4  BGC C   5      18.770 -24.933 -20.5740  0.00  0.00     0.000 O
BRANCH 58 62
ATOM     59  C1  BGC C   5      17.662 -27.781 -20.4370  0.00  0.00     0.000 C
ATOM     60  C2  BGC C   5      19.100 -27.906 -20.5360  0.00  0.00     0.000 C
ATOM     61  C3  BGC C   5      19.724 -26.988 -21.5840  0.00  0.00     0.000 C
ATOM     62  C4  BGC C   5      18.837 -25.764 -21.7590  0.00  0.00     0.000 C
ATOM     63  C5  BGC C   5      17.410 -26.252 -21.8440  0.00  0.00     0.000 C
ATOM     64  O5  BGC C   5      17.126 -27.587 -21.4300  0.00  0.00     0.000 O
ATOM     65   O  BGC C   5      17.505 -26.833 -24.1870  0.00  0.00     0.000 O
ATOM     67  HD  BGC C   5      17.304 -26.232 -23.5960  0.00  0.00     0.000 HD
ATOM     67   O  BGC C   5      17.505 -26.833 -24.1870  0.00  0.00     0.000 O
ATOM     69  HD  BGC C   5      17.304 -26.232 -23.5960  0.00  0.00     0.000 HD
ENDBRANCH 58 62
ENDBRANCH 45 58
ENDBRANCH 44 48
ENDBRANCH 31 44
ENDBRANCH 30 34
ENDBRANCH 17 30
ENDBRANCH 16 20
ENDBRANCH 1 16
TORSDOF 8
ENDMDL
