MODEL 1
REMARK VINA RESULT:      -7.8      0.000      0.000
ROOT
ATOM      1  C1  A00 X   1      30.350  34.926   9.1970  0.00  0.00     0.000 C
ATOM      2  C2  A00 X   1      29.980  35.954  10.3000  0.00  0.00     0.000 C
ATOM      3  C3  A00 X   1      31.014  37.101  10.5440  0.00  0.00     0.000 C
ATOM      4  C4  A00 X   1      32.422  36.874   9.9360  0.00  0.00     0.000 C
ATOM      5  C5  A00 X   1      32.713  35.393   9.6920  0.00  0.00     0.000 C
ATOM      6  O5  A00 X   1      31.720  34.977   8.7280  0.00  0.00     0.000 O
ATOM      7   O  A00 X   1      31.201  37.257  11.9490  0.00  0.00     0.000 O
ATOM      9  HD  A00 X   1      31.981  37.323  11.5790  0.00  0.00     0.000 HD
ATOM      9   O  A00 X   1      32.589  37.604   8.7210  0.00  0.00     0.000 O
ATOM     11  HD  A00 X   1      33.369  37.670   8.3500  0.00  0.00     0.000 HD
ENDROOT
BRANCH 2 11
ATOM     11   O  A00 X   1      28.709  36.534   9.9490  0.00  0.00     0.000 O
ATOM     12   O  A00 X   1      27.797  38.409  11.1410  0.00  0.00     0.000 OA
ATOM     13   O  A00 X   1      28.114  36.298  12.3060  0.00  0.00     0.000 OA
ATOM     14   O  A00 X   1      26.467  36.498  10.6010  0.00  0.00     0.000 OA
ATOM     15   S  A00 X   1      27.732  36.970  11.0950  0.00  0.00     0.000 S
ENDBRANCH 2 11
BRANCH 5 16
ATOM     16   C  A00 X   1      32.745  34.523  10.9530  0.00  0.00     0.000 C
ATOM     17   O  A00 X   1      32.772  33.317  10.8270  0.00  0.00     0.000 OA
ATOM     18   O  A00 X   1      32.751  34.998  12.0720  0.00  0.00     0.000 OA
ENDBRANCH 5 16
BRANCH 1 19
ATOM     19  O4  A00 X   2      29.958  33.573   9.5370  0.00  0.00     0.000 O
BRANCH 19 23
ATOM     20  C1  A00 X   2      26.502  31.306   8.4060  0.00  0.00     0.000 C
ATOM     21  C2  A00 X   2      27.259  32.060   7.2870  0.00  0.00     0.000 C
ATOM     22  C3  A00 X   2      28.677  32.452   7.7510  0.00  0.00     0.000 C
ATOM     23  C4  A00 X   2      28.616  33.248   9.0740  0.00  0.00     0.000 C
ATOM     24  C5  A00 X   2      27.820  32.397  10.1020  0.00  0.00     0.000 C
ATOM     25  O5  A00 X   2      26.487  32.161   9.5810  0.00  0.00     0.000 O
ATOM     26   O  A00 X   2      29.362  33.087   6.6570  0.00  0.00     0.000 O
ATOM     28  HD  A00 X   2      28.709  33.634   6.5000  0.00  0.00     0.000 HD
BRANCH 21 30
ATOM     28   N  A00 X   2      25.970  32.286   6.6250  0.00  0.00     0.000 N
ATOM     30  HD  A00 X   2      26.586  32.452   6.0390  0.00  0.00     0.000 HD
ATOM     30   O  A00 X   2      26.337  32.341   4.3180  0.00  0.00     0.000 OA
ATOM     31   S  A00 X   2      25.925  33.223   5.3520  0.00  0.00     0.000 S
ATOM     32   O  A00 X   2      24.558  33.636   5.2840  0.00  0.00     0.000 OA
ATOM     33   O  A00 X   2      26.771  34.346   5.6230  0.00  0.00     0.000 OA
ENDBRANCH 21 30
BRANCH 24 34
ATOM     34   C  A00 X   2      27.810  32.864  11.5770  0.00  0.00     0.000 C
ATOM     35   O  A00 X   2      28.330  30.651  14.4220  0.00  0.00     0.000 OA
ATOM     36   O  A00 X   2      27.686  31.746  12.4780  0.00  0.00     0.000 O
ATOM     37   O  A00 X   2      29.852  30.874  12.6250  0.00  0.00     0.000 OA
ATOM     38   S  A00 X   2      28.898  31.538  13.4600  0.00  0.00     0.000 S
ATOM     39   O  A00 X   2      29.242  32.835  13.9590  0.00  0.00     0.000 OA
ENDBRANCH 24 34
BRANCH 20 40
ATOM     40  O4  A00 X   3      27.280  30.131   8.6780  0.00  0.00     0.000 O
BRANCH 40 44
ATOM     41  C1  A00 X   3      28.530  26.763   9.1390  0.00  0.00     0.000 C
ATOM     42  C2  A00 X   3      27.516  27.184   8.0540  0.00  0.00     0.000 C
ATOM     43  C3  A00 X   3      26.338  27.979   8.6740  0.00  0.00     0.000 C
ATOM     44  C4  A00 X   3      26.758  29.131   9.5780  0.00  0.00     0.000 C
ATOM     45  C5  A00 X   3      27.772  28.628  10.6440  0.00  0.00     0.000 C
ATOM     46  O5  A00 X   3      28.860  27.875  10.0160  0.00  0.00     0.000 O
ATOM     47   O  A00 X   3      25.293  28.346   7.7760  0.00  0.00     0.000 O
ATOM     49  HD  A00 X   3      25.304  29.078   8.2390  0.00  0.00     0.000 HD
BRANCH 42 49
ATOM     49   O  A00 X   3      28.236  27.977   7.0860  0.00  0.00     0.000 O
ATOM     50   O  A00 X   3      27.697  29.190   5.0930  0.00  0.00     0.000 OA
ATOM     51   O  A00 X   3      26.702  27.074   5.4460  0.00  0.00     0.000 OA
ATOM     52   O  A00 X   3      29.026  27.171   5.0270  0.00  0.00     0.000 OA
ATOM     53   S  A00 X   3      27.906  27.858   5.5690  0.00  0.00     0.000 S
ENDBRANCH 42 49
BRANCH 45 54
ATOM     54   C  A00 X   3      27.076  27.856  11.7700  0.00  0.00     0.000 C
ATOM     55   O  A00 X   3      27.499  27.905  12.9070  0.00  0.00     0.000 OA
ATOM     56   O  A00 X   3      26.086  27.177  11.5440  0.00  0.00     0.000 OA
ENDBRANCH 45 54
BRANCH 41 57
ATOM     57  O4  A00 X   4      28.102  25.572   9.8370  0.00  0.00     0.000 O
BRANCH 57 61
ATOM     58  C1  A00 X   4      30.299  22.933  12.4540  0.00  0.00     0.000 C
ATOM     59  C2  A00 X   4      30.590  24.453  12.5190  0.00  0.00     0.000 C
ATOM     60  C3  A00 X   4      29.518  25.315  11.8210  0.00  0.00     0.000 C
ATOM     61  C4  A00 X   4      29.174  24.776  10.4160  0.00  0.00     0.000 C
ATOM     62  C5  A00 X   4      28.708  23.312  10.6140  0.00  0.00     0.000 C
ATOM     63  O5  A00 X   4      29.804  22.531  11.1560  0.00  0.00     0.000 O
BRANCH 59 66
ATOM     64   N  A00 X   4      31.381  25.627  12.9290  0.00  0.00     0.000 N
ATOM     66  HD  A00 X   4      31.759  26.093  12.3040  0.00  0.00     0.000 HD
ATOM     66   O  A00 X   4      33.003  24.094  13.8330  0.00  0.00     0.000 OA
ATOM     67   S  A00 X   4      32.521  25.425  14.0330  0.00  0.00     0.000 S
ATOM     68   O  A00 X   4      33.428  26.472  13.6630  0.00  0.00     0.000 OA
ATOM     69   O  A00 X   4      31.768  25.692  15.2260  0.00  0.00     0.000 OA
ENDBRANCH 59 66
BRANCH 62 70
ATOM     70   C  A00 X   4      28.210  22.627   9.3180  0.00  0.00     0.000 C
ATOM     71   O  A00 X   4      25.352  20.451   8.8650  0.00  0.00     0.000 OA
ATOM     72   O  A00 X   4      27.593  20.201   8.1880  0.00  0.00     0.000 OA
ATOM     73   O  A00 X   4      26.910  22.062   9.5490  0.00  0.00     0.000 O
ATOM     74   O  A00 X   4      26.997  19.861  10.5260  0.00  0.00     0.000 OA
ATOM     75   S  A00 X   4      26.721  20.527   9.2940  0.00  0.00     0.000 S
ENDBRANCH 62 70
ENDBRANCH 57 61
ENDBRANCH 41 57
ENDBRANCH 40 44
ENDBRANCH 20 40
ENDBRANCH 19 23
ENDBRANCH 1 19
TORSDOF 14
ENDMDL
MODEL 2
REMARK VINA RESULT:      -7.5      3.249      6.603
ROOT
ATOM      1  C1  A00 X   1      27.431  31.385   8.9880  0.00  0.00     0.000 C
ATOM      2  C2  A00 X   1      27.650  32.388  10.1520  0.00  0.00     0.000 C
ATOM      3  C3  A00 X   1      28.699  31.966  11.2330  0.00  0.00     0.000 C
ATOM      4  C4  A00 X   1      29.112  30.472  11.2170  0.00  0.00     0.000 C
ATOM      5  C5  A00 X   1      28.060  29.589  10.5460  0.00  0.00     0.000 C
ATOM      6  O5  A00 X   1      27.997  30.066   9.1830  0.00  0.00     0.000 O
ATOM      7   O  A00 X   1      28.152  32.221  12.5250  0.00  0.00     0.000 O
ATOM      9  HD  A00 X   1      28.558  31.457  12.5660  0.00  0.00     0.000 HD
ATOM      9   O  A00 X   1      30.375  30.286  10.5800  0.00  0.00     0.000 O
ATOM     11  HD  A00 X   1      30.781  29.522  10.6210  0.00  0.00     0.000 HD
ENDROOT
BRANCH 2 11
ATOM     11   O  A00 X   1      28.050  33.647   9.5760  0.00  0.00     0.000 O
ATOM     12   O  A00 X   1      28.687  35.520  10.9370  0.00  0.00     0.000 OA
ATOM     13   O  A00 X   1      26.408  34.681  11.0600  0.00  0.00     0.000 OA
ATOM     14   O  A00 X   1      27.189  35.762   9.0910  0.00  0.00     0.000 OA
ATOM     15   S  A00 X   1      27.550  34.976  10.2400  0.00  0.00     0.000 S
ENDBRANCH 2 11
BRANCH 5 16
ATOM     16   C  A00 X   1      26.698  29.557  11.2470  0.00  0.00     0.000 C
ATOM     17   O  A00 X   1      25.754  29.068  10.6610  0.00  0.00     0.000 OA
ATOM     18   O  A00 X   1      26.531  29.996  12.3670  0.00  0.00     0.000 OA
ENDBRANCH 5 16
BRANCH 1 19
ATOM     19  O4  A00 X   2      26.047  31.309   8.5660  0.00  0.00     0.000 O
BRANCH 19 23
ATOM     20  C1  A00 X   2      26.996  30.867   4.4110  0.00  0.00     0.000 C
ATOM     21  C2  A00 X   2      26.688  32.294   4.9260  0.00  0.00     0.000 C
ATOM     22  C3  A00 X   2      26.796  32.359   6.4630  0.00  0.00     0.000 C
ATOM     23  C4  A00 X   2      25.904  31.279   7.1170  0.00  0.00     0.000 C
ATOM     24  C5  A00 X   2      26.297  29.906   6.5070  0.00  0.00     0.000 C
ATOM     25  O5  A00 X   2      26.082  29.953   5.0730  0.00  0.00     0.000 O
ATOM     26   O  A00 X   2      26.569  33.714   6.8850  0.00  0.00     0.000 O
ATOM     28  HD  A00 X   2      25.840  33.789   6.4240  0.00  0.00     0.000 HD
BRANCH 21 30
ATOM     28   N  A00 X   2      27.234  33.653   4.9830  0.00  0.00     0.000 N
ATOM     30  HD  A00 X   2      26.919  33.543   4.1840  0.00  0.00     0.000 HD
ATOM     30   O  A00 X   2      26.390  34.853   3.1640  0.00  0.00     0.000 OA
ATOM     31   S  A00 X   2      27.639  34.365   3.6310  0.00  0.00     0.000 S
ATOM     32   O  A00 X   2      28.566  35.374   4.0440  0.00  0.00     0.000 OA
ATOM     33   O  A00 X   2      28.299  33.387   2.8180  0.00  0.00     0.000 OA
ENDBRANCH 21 30
BRANCH 24 34
ATOM     34   C  A00 X   2      25.713  28.629   7.1570  0.00  0.00     0.000 C
ATOM     35   O  A00 X   2      23.382  26.378   5.4970  0.00  0.00     0.000 OA
ATOM     36   O  A00 X   2      24.573  28.143   6.4210  0.00  0.00     0.000 O
ATOM     37   O  A00 X   2      25.497  26.970   4.6210  0.00  0.00     0.000 OA
ATOM     38   S  A00 X   2      24.735  26.706   5.8030  0.00  0.00     0.000 S
ATOM     39   O  A00 X   2      25.342  25.896   6.8160  0.00  0.00     0.000 OA
ENDBRANCH 24 34
BRANCH 20 40
ATOM     40  O4  A00 X   3      28.340  30.587   4.8280  0.00  0.00     0.000 O
BRANCH 40 44
ATOM     41  C1  A00 X   3      30.512  28.201   6.4760  0.00  0.00     0.000 C
ATOM     42  C2  A00 X   3      30.957  29.588   5.9630  0.00  0.00     0.000 C
ATOM     43  C3  A00 X   3      30.528  29.799   4.4890  0.00  0.00     0.000 C
ATOM     44  C4  A00 X   3      29.061  29.500   4.2070  0.00  0.00     0.000 C
ATOM     45  C5  A00 X   3      28.692  28.089   4.7460  0.00  0.00     0.000 C
ATOM     46  O5  A00 X   3      29.124  27.931   6.1360  0.00  0.00     0.000 O
ATOM     47   O  A00 X   3      30.961  31.014   3.8820  0.00  0.00     0.000 O
ATOM     49  HD  A00 X   3      30.172  30.988   3.5270  0.00  0.00     0.000 HD
BRANCH 42 49
ATOM     49   O  A00 X   3      30.357  30.572   6.8340  0.00  0.00     0.000 O
ATOM     50   O  A00 X   3      30.237  32.961   6.9250  0.00  0.00     0.000 OA
ATOM     51   O  A00 X   3      32.291  31.943   6.3470  0.00  0.00     0.000 OA
ATOM     52   O  A00 X   3      31.491  31.693   8.5570  0.00  0.00     0.000 OA
ATOM     53   S  A00 X   3      31.127  31.876   7.1950  0.00  0.00     0.000 S
ENDBRANCH 42 49
BRANCH 45 54
ATOM     54   C  A00 X   3      29.207  26.977   3.8230  0.00  0.00     0.000 C
ATOM     55   O  A00 X   3      28.759  25.852   3.9020  0.00  0.00     0.000 OA
ATOM     56   O  A00 X   3      30.076  27.204   2.9960  0.00  0.00     0.000 OA
ENDBRANCH 45 54
BRANCH 41 57
ATOM     57  O4  A00 X   4      31.430  27.162   6.0660  0.00  0.00     0.000 O
BRANCH 57 61
ATOM     58  C1  A00 X   4      32.609  23.429   7.8870  0.00  0.00     0.000 C
ATOM     59  C2  A00 X   4      31.104  23.683   7.6250  0.00  0.00     0.000 C
ATOM     60  C3  A00 X   4      30.837  24.859   6.6630  0.00  0.00     0.000 C
ATOM     61  C4  A00 X   4      31.653  26.111   7.0500  0.00  0.00     0.000 C
ATOM     62  C5  A00 X   4      33.140  25.681   7.0460  0.00  0.00     0.000 C
ATOM     63  O5  A00 X   4      33.345  24.662   8.0590  0.00  0.00     0.000 O
BRANCH 59 66
ATOM     64   N  A00 X   4      29.682  23.299   7.6920  0.00  0.00     0.000 N
ATOM     66  HD  A00 X   4      29.131  23.866   8.0450  0.00  0.00     0.000 HD
ATOM     66   O  A00 X   4      30.301  21.685   9.3690  0.00  0.00     0.000 OA
ATOM     67   S  A00 X   4      29.307  21.896   8.3630  0.00  0.00     0.000 S
ATOM     68   O  A00 X   4      27.990  22.185   8.8480  0.00  0.00     0.000 OA
ATOM     69   O  A00 X   4      29.335  21.047   7.2060  0.00  0.00     0.000 OA
ENDBRANCH 59 66
BRANCH 62 70
ATOM     70   C  A00 X   4      34.134  26.838   7.3060  0.00  0.00     0.000 C
ATOM     71   O  A00 X   4      34.630  28.756  10.3360  0.00  0.00     0.000 OA
ATOM     72   O  A00 X   4      34.328  29.457   8.1080  0.00  0.00     0.000 OA
ATOM     73   O  A00 X   4      34.161  27.135   8.7110  0.00  0.00     0.000 O
ATOM     74   O  A00 X   4      32.416  28.653   9.3870  0.00  0.00     0.000 OA
ATOM     75   S  A00 X   4      33.824  28.600   9.1580  0.00  0.00     0.000 S
ENDBRANCH 62 70
ENDBRANCH 57 61
ENDBRANCH 41 57
ENDBRANCH 40 44
ENDBRANCH 20 40
ENDBRANCH 19 23
ENDBRANCH 1 19
TORSDOF 14
ENDMDL
MODEL 3
REMARK VINA RESULT:      -7.5      3.700      7.242
ROOT
ATOM      1  C1  A00 X   1      27.393  30.812   6.9790  0.00  0.00     0.000 C
ATOM      2  C2  A00 X   1      26.767  31.937   7.8460  0.00  0.00     0.000 C
ATOM      3  C3  A00 X   1      26.820  31.722   9.3940  0.00  0.00     0.000 C
ATOM      4  C4  A00 X   1      27.146  30.279   9.8580  0.00  0.00     0.000 C
ATOM      5  C5  A00 X   1      26.824  29.241   8.7830  0.00  0.00     0.000 C
ATOM      6  O5  A00 X   1      27.690  29.577   7.6770  0.00  0.00     0.000 O
ATOM      7   O  A00 X   1      25.545  32.046   9.9450  0.00  0.00     0.000 O
ATOM      9  HD  A00 X   1      25.824  31.331  10.3480  0.00  0.00     0.000 HD
ATOM      9   O  A00 X   1      28.512  30.155  10.2550  0.00  0.00     0.000 O
ATOM     11  HD  A00 X   1      28.790  29.440  10.6570  0.00  0.00     0.000 HD
ENDROOT
BRANCH 2 11
ATOM     11   O  A00 X   1      27.441  33.168   7.5200  0.00  0.00     0.000 O
ATOM     12   O  A00 X   1      26.308  35.285   7.5600  0.00  0.00     0.000 OA
ATOM     13   O  A00 X   1      25.607  33.590   5.9620  0.00  0.00     0.000 OA
ATOM     14   O  A00 X   1      27.723  34.653   5.7400  0.00  0.00     0.000 OA
ATOM     15   S  A00 X   1      26.691  34.236   6.6500  0.00  0.00     0.000 S
ENDBRANCH 2 11
BRANCH 5 16
ATOM     16   C  A00 X   1      25.344  29.146   8.3970  0.00  0.00     0.000 C
ATOM     17   O  A00 X   1      24.514  29.581   9.1680  0.00  0.00     0.000 OA
ATOM     18   O  A00 X   1      24.975  28.659   7.3470  0.00  0.00     0.000 OA
ENDBRANCH 5 16
BRANCH 1 19
ATOM     19  O4  A00 X   2      26.651  30.565   5.7600  0.00  0.00     0.000 O
BRANCH 19 23
ATOM     20  C1  A00 X   2      29.841  28.762   3.5380  0.00  0.00     0.000 C
ATOM     21  C2  A00 X   2      29.869  30.300   3.7070  0.00  0.00     0.000 C
ATOM     22  C3  A00 X   2      28.940  30.743   4.8570  0.00  0.00     0.000 C
ATOM     23  C4  A00 X   2      27.513  30.188   4.6480  0.00  0.00     0.000 C
ATOM     24  C5  A00 X   2      27.623  28.648   4.4740  0.00  0.00     0.000 C
ATOM     25  O5  A00 X   2      28.460  28.368   3.3210  0.00  0.00     0.000 O
ATOM     26   O  A00 X   2      29.053  32.167   5.0190  0.00  0.00     0.000 O
ATOM     28  HD  A00 X   2      28.928  32.323   4.1770  0.00  0.00     0.000 HD
BRANCH 21 30
ATOM     28   N  A00 X   2      30.469  30.389   2.3730  0.00  0.00     0.000 N
ATOM     30  HD  A00 X   2      30.586  31.159   2.7520  0.00  0.00     0.000 HD
ATOM     30   O  A00 X   2      31.866  32.261   2.3260  0.00  0.00     0.000 OA
ATOM     31   S  A00 X   2      30.661  31.816   1.7210  0.00  0.00     0.000 S
ATOM     32   O  A00 X   2      30.755  31.539   0.3210  0.00  0.00     0.000 OA
ATOM     33   O  A00 X   2      29.477  32.572   2.0000  0.00  0.00     0.000 OA
ENDBRANCH 21 30
BRANCH 24 34
ATOM     34   C  A00 X   2      26.316  27.822   4.4780  0.00  0.00     0.000 C
ATOM     35   O  A00 X   2      25.028  26.026   1.5840  0.00  0.00     0.000 OA
ATOM     36   O  A00 X   2      25.879  27.528   3.1360  0.00  0.00     0.000 O
ATOM     37   O  A00 X   2      27.192  25.705   2.4830  0.00  0.00     0.000 OA
ATOM     38   S  A00 X   2      25.821  26.000   2.7690  0.00  0.00     0.000 S
ATOM     39   O  A00 X   2      25.219  25.338   3.8880  0.00  0.00     0.000 OA
ENDBRANCH 24 34
BRANCH 20 40
ATOM     40  O4  A00 X   3      30.303  28.226   4.7860  0.00  0.00     0.000 O
BRANCH 40 44
ATOM     41  C1  A00 X   3      30.165  25.980   7.6250  0.00  0.00     0.000 C
ATOM     42  C2  A00 X   3      31.291  27.004   7.3680  0.00  0.00     0.000 C
ATOM     43  C3  A00 X   3      31.845  26.869   5.9260  0.00  0.00     0.000 C
ATOM     44  C4  A00 X   3      30.781  26.864   4.8360  0.00  0.00     0.000 C
ATOM     45  C5  A00 X   3      29.689  25.807   5.1630  0.00  0.00     0.000 C
ATOM     46  O5  A00 X   3      29.202  25.966   6.5350  0.00  0.00     0.000 O
ATOM     47   O  A00 X   3      32.952  27.709   5.6030  0.00  0.00     0.000 O
ATOM     49  HD  A00 X   3      32.538  27.771   4.8450  0.00  0.00     0.000 HD
BRANCH 42 49
ATOM     49   O  A00 X   3      30.730  28.316   7.5960  0.00  0.00     0.000 O
ATOM     50   O  A00 X   3      31.442  30.581   7.2930  0.00  0.00     0.000 OA
ATOM     51   O  A00 X   3      32.984  29.005   8.1450  0.00  0.00     0.000 OA
ATOM     52   O  A00 X   3      31.149  29.630   9.4970  0.00  0.00     0.000 OA
ATOM     53   S  A00 X   3      31.617  29.462   8.1650  0.00  0.00     0.000 S
ENDBRANCH 42 49
BRANCH 45 54
ATOM     54   C  A00 X   3      30.166  24.383   4.8530  0.00  0.00     0.000 C
ATOM     55   O  A00 X   3      31.300  24.181   4.4680  0.00  0.00     0.000 OA
ATOM     56   O  A00 X   3      29.416  23.429   4.9860  0.00  0.00     0.000 OA
ENDBRANCH 45 54
BRANCH 41 57
ATOM     57  O4  A00 X   4      30.694  24.677   7.9580  0.00  0.00     0.000 O
BRANCH 57 61
ATOM     58  C1  A00 X   4      29.197  21.511  10.4830  0.00  0.00     0.000 C
ATOM     59  C2  A00 X   4      28.971  21.409   8.9540  0.00  0.00     0.000 C
ATOM     60  C3  A00 X   4      29.843  22.385   8.1370  0.00  0.00     0.000 C
ATOM     61  C4  A00 X   4      29.792  23.817   8.7110  0.00  0.00     0.000 C
ATOM     62  C5  A00 X   4      30.256  23.713  10.1850  0.00  0.00     0.000 C
ATOM     63  O5  A00 X   4      29.322  22.883  10.9220  0.00  0.00     0.000 O
BRANCH 59 66
ATOM     64   N  A00 X   4      28.699  20.480   7.8430  0.00  0.00     0.000 N
ATOM     66  HD  A00 X   4      28.331  20.806   7.1300  0.00  0.00     0.000 HD
ATOM     66   O  A00 X   4      26.981  19.500   9.2150  0.00  0.00     0.000 OA
ATOM     67   S  A00 X   4      27.872  19.147   8.1550  0.00  0.00     0.000 S
ATOM     68   O  A00 X   4      27.256  18.920   6.8810  0.00  0.00     0.000 OA
ATOM     69   O  A00 X   4      28.949  18.246   8.4570  0.00  0.00     0.000 OA
ENDBRANCH 59 66
BRANCH 62 70
ATOM     70   C  A00 X   4      30.378  25.076  10.9070  0.00  0.00     0.000 C
ATOM     71   O  A00 X   4      27.815  26.952  12.6450  0.00  0.00     0.000 OA
ATOM     72   O  A00 X   4      29.371  27.629  11.0110  0.00  0.00     0.000 OA
ATOM     73   O  A00 X   4      29.182  25.322  11.6630  0.00  0.00     0.000 O
ATOM     74   O  A00 X   4      27.425  26.319  10.3510  0.00  0.00     0.000 OA
ATOM     75   S  A00 X   4      28.380  26.636  11.3630  0.00  0.00     0.000 S
ENDBRANCH 62 70
ENDBRANCH 57 61
ENDBRANCH 41 57
ENDBRANCH 40 44
ENDBRANCH 20 40
ENDBRANCH 19 23
ENDBRANCH 1 19
TORSDOF 14
ENDMDL
MODEL 4
REMARK VINA RESULT:      -7.1     56.041     61.025
ROOT
ATOM      1  C1  A00 X   1       8.624   8.819  66.7130  0.00  0.00     0.000 C
ATOM      2  C2  A00 X   1       7.838  10.113  66.3720  0.00  0.00     0.000 C
ATOM      3  C3  A00 X   1       6.290  10.055  66.5960  0.00  0.00     0.000 C
ATOM      4  C4  A00 X   1       5.692   8.636  66.7700  0.00  0.00     0.000 C
ATOM      5  C5  A00 X   1       6.587   7.554  66.1660  0.00  0.00     0.000 C
ATOM      6  O5  A00 X   1       7.818   7.632  66.9200  0.00  0.00     0.000 O
ATOM      7   O  A00 X   1       5.643  10.631  65.4630  0.00  0.00     0.000 O
ATOM      9  HD  A00 X   1       5.190   9.928  65.6860  0.00  0.00     0.000 HD
ATOM      9   O  A00 X   1       5.440   8.341  68.1440  0.00  0.00     0.000 O
ATOM     11  HD  A00 X   1       4.986   7.638  68.3670  0.00  0.00     0.000 HD
ENDROOT
BRANCH 2 11
ATOM     11   O  A00 X   1       8.387  11.182  67.1670  0.00  0.00     0.000 O
ATOM     12   O  A00 X   1       7.250  13.280  67.4320  0.00  0.00     0.000 OA
ATOM     13   O  A00 X   1       8.024  12.617  65.2240  0.00  0.00     0.000 OA
ATOM     14   O  A00 X   1       9.585  13.172  66.9310  0.00  0.00     0.000 OA
ATOM     15   S  A00 X   1       8.276  12.653  66.6380  0.00  0.00     0.000 S
ENDBRANCH 2 11
BRANCH 5 16
ATOM     16   C  A00 X   1       6.790   7.652  64.6500  0.00  0.00     0.000 C
ATOM     17   O  A00 X   1       7.585   6.904  64.1200  0.00  0.00     0.000 OA
ATOM     18   O  A00 X   1       6.179   8.445  63.9620  0.00  0.00     0.000 OA
ENDBRANCH 5 16
BRANCH 1 19
ATOM     19  O4  A00 X   2       9.712   8.564  65.7910  0.00  0.00     0.000 O
BRANCH 19 23
ATOM     20  C1  A00 X   2      13.455   6.577  66.4270  0.00  0.00     0.000 C
ATOM     21  C2  A00 X   2      12.284   5.733  65.8690  0.00  0.00     0.000 C
ATOM     22  C3  A00 X   2      11.176   6.641  65.2960  0.00  0.00     0.000 C
ATOM     23  C4  A00 X   2      10.722   7.676  66.3500  0.00  0.00     0.000 C
ATOM     24  C5  A00 X   2      11.982   8.438  66.8410  0.00  0.00     0.000 C
ATOM     25  O5  A00 X   2      12.910   7.484  67.4210  0.00  0.00     0.000 O
ATOM     26   O  A00 X   2      10.147   5.813  64.7300  0.00  0.00     0.000 O
ATOM     28  HD  A00 X   2      10.083   5.321  65.4400  0.00  0.00     0.000 HD
BRANCH 21 30
ATOM     28   N  A00 X   2      12.461   4.852  64.7100  0.00  0.00     0.000 N
ATOM     30  HD  A00 X   2      12.564   4.361  65.4160  0.00  0.00     0.000 HD
ATOM     30   O  A00 X   2      12.292   2.641  65.4440  0.00  0.00     0.000 OA
ATOM     31   S  A00 X   2      13.273   3.509  64.8950  0.00  0.00     0.000 S
ATOM     32   O  A00 X   2      13.693   3.182  63.5680  0.00  0.00     0.000 OA
ATOM     33   O  A00 X   2      14.407   3.809  65.7160  0.00  0.00     0.000 OA
ENDBRANCH 21 30
BRANCH 24 34
ATOM     34   C  A00 X   2      11.775   9.686  67.7320  0.00  0.00     0.000 C
ATOM     35   O  A00 X   2      14.119  10.776  70.2960  0.00  0.00     0.000 OA
ATOM     36   O  A00 X   2      12.660   9.669  68.8690  0.00  0.00     0.000 O
ATOM     37   O  A00 X   2      14.702  10.439  68.0290  0.00  0.00     0.000 OA
ATOM     38   S  A00 X   2      13.683  10.861  68.9400  0.00  0.00     0.000 S
ATOM     39   O  A00 X   2      12.949  12.046  68.6120  0.00  0.00     0.000 OA
ENDBRANCH 24 34
BRANCH 20 40
ATOM     40  O4  A00 X   3      13.956   7.330  65.3130  0.00  0.00     0.000 O
BRANCH 40 44
ATOM     41  C1  A00 X   3      15.584   9.491  62.9040  0.00  0.00     0.000 C
ATOM     42  C2  A00 X   3      15.307   7.987  62.6910  0.00  0.00     0.000 C
ATOM     43  C3  A00 X   3      15.819   7.153  63.8940  0.00  0.00     0.000 C
ATOM     44  C4  A00 X   3      15.361   7.658  65.2560  0.00  0.00     0.000 C
ATOM     45  C5  A00 X   3      15.677   9.174  65.3960  0.00  0.00     0.000 C
ATOM     46  O5  A00 X   3      15.185   9.919  64.2350  0.00  0.00     0.000 O
ATOM     47   O  A00 X   3      15.695   5.738  63.7680  0.00  0.00     0.000 O
ATOM     49  HD  A00 X   3      15.488   5.794  64.6070  0.00  0.00     0.000 HD
BRANCH 42 49
ATOM     49   O  A00 X   3      13.881   7.839  62.5160  0.00  0.00     0.000 O
ATOM     50   O  A00 X   3      12.377   6.057  61.9780  0.00  0.00     0.000 OA
ATOM     51   O  A00 X   3      14.424   6.215  60.8060  0.00  0.00     0.000 OA
ATOM     52   O  A00 X   3      12.784   7.877  60.4400  0.00  0.00     0.000 OA
ATOM     53   S  A00 X   3      13.318   6.946  61.3730  0.00  0.00     0.000 S
ENDBRANCH 42 49
BRANCH 45 54
ATOM     54   C  A00 X   3      17.163   9.419  65.6850  0.00  0.00     0.000 C
ATOM     55   O  A00 X   3      17.900   8.495  65.9630  0.00  0.00     0.000 OA
ATOM     56   O  A00 X   3      17.630  10.547  65.6430  0.00  0.00     0.000 OA
ENDBRANCH 45 54
BRANCH 41 57
ATOM     57  O4  A00 X   4      16.943   9.838  62.5580  0.00  0.00     0.000 O
BRANCH 57 61
ATOM     58  C1  A00 X   4      18.278  13.884  61.8580  0.00  0.00     0.000 C
ATOM     59  C2  A00 X   4      16.844  13.659  62.3980  0.00  0.00     0.000 C
ATOM     60  C3  A00 X   4      16.608  12.236  62.9430  0.00  0.00     0.000 C
ATOM     61  C4  A00 X   4      17.113  11.156  61.9620  0.00  0.00     0.000 C
ATOM     62  C5  A00 X   4      18.615  11.449  61.7270  0.00  0.00     0.000 C
ATOM     63  O5  A00 X   4      18.755  12.749  61.0990  0.00  0.00     0.000 O
BRANCH 59 66
ATOM     64   N  A00 X   4      16.098  14.479  63.3700  0.00  0.00     0.000 N
ATOM     66  HD  A00 X   4      15.289  14.236  63.5600  0.00  0.00     0.000 HD
ATOM     66   O  A00 X   4      16.011  16.207  61.6960  0.00  0.00     0.000 OA
ATOM     67   S  A00 X   4      16.003  16.055  63.1170  0.00  0.00     0.000 S
ATOM     68   O  A00 X   4      14.756  16.346  63.7620  0.00  0.00     0.000 OA
ATOM     69   O  A00 X   4      17.159  16.498  63.8440  0.00  0.00     0.000 OA
ENDBRANCH 59 66
BRANCH 62 70
ATOM     70   C  A00 X   4      19.334  10.398  60.8470  0.00  0.00     0.000 C
ATOM     71   O  A00 X   4      18.260   8.970  57.6980  0.00  0.00     0.000 OA
ATOM     72   O  A00 X   4      19.058   7.938  59.6580  0.00  0.00     0.000 OA
ATOM     73   O  A00 X   4      18.671  10.310  59.5750  0.00  0.00     0.000 O
ATOM     74   O  A00 X   4      16.784   8.812  59.5980  0.00  0.00     0.000 OA
ATOM     75   S  A00 X   4      18.128   8.909  59.1270  0.00  0.00     0.000 S
ENDBRANCH 62 70
ENDBRANCH 57 61
ENDBRANCH 41 57
ENDBRANCH 40 44
ENDBRANCH 20 40
ENDBRANCH 19 23
ENDBRANCH 1 19
TORSDOF 14
ENDMDL
MODEL 5
REMARK VINA RESULT:      -6.7      4.223      8.122
ROOT
ATOM      1  C1  A00 X   1      27.553  29.831   5.8030  0.00  0.00     0.000 C
ATOM      2  C2  A00 X   1      26.697  30.997   6.3660  0.00  0.00     0.000 C
ATOM      3  C3  A00 X   1      26.669  31.138   7.9240  0.00  0.00     0.000 C
ATOM      4  C4  A00 X   1      27.181  29.908   8.7160  0.00  0.00     0.000 C
ATOM      5  C5  A00 X   1      27.105  28.620   7.8960  0.00  0.00     0.000 C
ATOM      6  O5  A00 X   1      27.987  28.847   6.7740  0.00  0.00     0.000 O
ATOM      7   O  A00 X   1      25.322  31.355   8.3390  0.00  0.00     0.000 O
ATOM      9  HD  A00 X   1      25.678  30.803   8.9040  0.00  0.00     0.000 HD
ATOM      9   O  A00 X   1      28.516  30.105   9.1810  0.00  0.00     0.000 O
ATOM     11  HD  A00 X   1      28.872  29.554   9.7460  0.00  0.00     0.000 HD
ENDROOT
BRANCH 2 11
ATOM     11   O  A00 X   1      27.193  32.222   5.7930  0.00  0.00     0.000 O
ATOM     12   O  A00 X   1      26.042  34.311   6.0720  0.00  0.00     0.000 OA
ATOM     13   O  A00 X   1      24.961  32.511   4.8440  0.00  0.00     0.000 OA
ATOM     14   O  A00 X   1      26.869  33.608   3.9420  0.00  0.00     0.000 OA
ATOM     15   S  A00 X   1      26.175  33.220   5.1400  0.00  0.00     0.000 S
ENDBRANCH 2 11
BRANCH 5 16
ATOM     16   C  A00 X   1      25.691  28.195   7.4870  0.00  0.00     0.000 C
ATOM     17   O  A00 X   1      25.562  27.244   6.7440  0.00  0.00     0.000 OA
ATOM     18   O  A00 X   1      24.697  28.770   7.8850  0.00  0.00     0.000 OA
ENDBRANCH 5 16
BRANCH 1 19
ATOM     19  O4  A00 X   2      26.951  29.201   4.6460  0.00  0.00     0.000 O
BRANCH 19 23
ATOM     20  C1  A00 X   2      30.240  26.853   3.2200  0.00  0.00     0.000 C
ATOM     21  C2  A00 X   2      30.418  28.390   3.2460  0.00  0.00     0.000 C
ATOM     22  C3  A00 X   2      29.365  29.050   4.1610  0.00  0.00     0.000 C
ATOM     23  C4  A00 X   2      27.940  28.617   3.7500  0.00  0.00     0.000 C
ATOM     24  C5  A00 X   2      27.898  27.065   3.7450  0.00  0.00     0.000 C
ATOM     25  O5  A00 X   2      28.879  26.574   2.7950  0.00  0.00     0.000 O
ATOM     26   O  A00 X   2      29.614  30.465   4.2050  0.00  0.00     0.000 O
ATOM     28  HD  A00 X   2      29.653  30.536   3.3430  0.00  0.00     0.000 HD
BRANCH 21 30
ATOM     28   N  A00 X   2      31.301  29.447   3.7500  0.00  0.00     0.000 N
ATOM     30  HD  A00 X   2      31.687  29.109   3.0520  0.00  0.00     0.000 HD
ATOM     30   O  A00 X   2      32.836  29.975   2.0700  0.00  0.00     0.000 OA
ATOM     31   S  A00 X   2      32.834  29.400   3.3690  0.00  0.00     0.000 S
ATOM     32   O  A00 X   2      33.459  30.193   4.3820  0.00  0.00     0.000 OA
ATOM     33   O  A00 X   2      33.255  28.035   3.4750  0.00  0.00     0.000 OA
ENDBRANCH 21 30
BRANCH 24 34
ATOM     34   C  A00 X   2      26.521  26.377   3.5900  0.00  0.00     0.000 C
ATOM     35   O  A00 X   2      24.486  26.539   0.5750  0.00  0.00     0.000 OA
ATOM     36   O  A00 X   2      25.802  26.896   2.4530  0.00  0.00     0.000 O
ATOM     37   O  A00 X   2      26.724  25.774   0.6190  0.00  0.00     0.000 OA
ATOM     38   S  A00 X   2      25.481  25.847   1.3260  0.00  0.00     0.000 S
ATOM     39   O  A00 X   2      25.026  24.664   1.9910  0.00  0.00     0.000 OA
ENDBRANCH 24 34
BRANCH 20 40
ATOM     40  O4  A00 X   3      30.417  26.419   4.5770  0.00  0.00     0.000 O
BRANCH 40 44
ATOM     41  C1  A00 X   3      30.038  24.531   7.6450  0.00  0.00     0.000 C
ATOM     42  C2  A00 X   3      31.177  25.535   7.3640  0.00  0.00     0.000 C
ATOM     43  C3  A00 X   3      31.859  25.235   6.0050  0.00  0.00     0.000 C
ATOM     44  C4  A00 X   3      30.896  25.082   4.8340  0.00  0.00     0.000 C
ATOM     45  C5  A00 X   3      29.784  24.055   5.1900  0.00  0.00     0.000 C
ATOM     46  O5  A00 X   3      29.176  24.370   6.4840  0.00  0.00     0.000 O
ATOM     47   O  A00 X   3      32.985  26.047   5.6800  0.00  0.00     0.000 O
ATOM     49  HD  A00 X   3      32.640  26.011   4.8860  0.00  0.00     0.000 HD
BRANCH 42 49
ATOM     49   O  A00 X   3      30.592  26.855   7.3820  0.00  0.00     0.000 O
ATOM     50   O  A00 X   3      31.353  29.093   7.0030  0.00  0.00     0.000 OA
ATOM     51   O  A00 X   3      32.727  27.613   8.2330  0.00  0.00     0.000 OA
ATOM     52   O  A00 X   3      30.695  28.334   9.2030  0.00  0.00     0.000 OA
ATOM     53   S  A00 X   3      31.377  28.056   7.9860  0.00  0.00     0.000 S
ENDBRANCH 42 49
BRANCH 45 54
ATOM     54   C  A00 X   3      30.295  22.612   5.0980  0.00  0.00     0.000 C
ATOM     55   O  A00 X   3      31.482  22.369   5.1740  0.00  0.00     0.000 OA
ATOM     56   O  A00 X   3      29.517  21.682   4.9470  0.00  0.00     0.000 OA
ENDBRANCH 45 54
BRANCH 41 57
ATOM     57  O4  A00 X   4      30.542  23.287   8.1790  0.00  0.00     0.000 O
BRANCH 57 61
ATOM     58  C1  A00 X   4      28.754  20.194  10.6030  0.00  0.00     0.000 C
ATOM     59  C2  A00 X   4      28.617  20.101   9.0630  0.00  0.00     0.000 C
ATOM     60  C3  A00 X   4      29.580  21.035   8.3030  0.00  0.00     0.000 C
ATOM     61  C4  A00 X   4      29.558  22.469   8.8750  0.00  0.00     0.000 C
ATOM     62  C5  A00 X   4      29.928  22.345  10.3740  0.00  0.00     0.000 C
ATOM     63  O5  A00 X   4      28.915  21.559  11.0510  0.00  0.00     0.000 O
BRANCH 59 66
ATOM     64   N  A00 X   4      27.270  20.499   8.6160  0.00  0.00     0.000 N
ATOM     66  HD  A00 X   4      26.840  21.071   9.1030  0.00  0.00     0.000 HD
ATOM     66   O  A00 X   4      26.530  18.283   9.2010  0.00  0.00     0.000 OA
ATOM     67   S  A00 X   4      26.204  19.347   8.3040  0.00  0.00     0.000 S
ATOM     68   O  A00 X   4      24.982  20.042   8.5880  0.00  0.00     0.000 OA
ATOM     69   O  A00 X   4      26.454  19.144   6.9050  0.00  0.00     0.000 OA
ENDBRANCH 59 66
BRANCH 62 70
ATOM     70   C  A00 X   4      30.067  23.702  11.1040  0.00  0.00     0.000 C
ATOM     71   O  A00 X   4      32.929  25.033  12.8770  0.00  0.00     0.000 OA
ATOM     72   O  A00 X   4      30.668  24.873  13.5150  0.00  0.00     0.000 OA
ATOM     73   O  A00 X   4      31.445  23.917  11.4490  0.00  0.00     0.000 O
ATOM     74   O  A00 X   4      32.068  22.878  13.5320  0.00  0.00     0.000 OA
ATOM     75   S  A00 X   4      31.795  24.156  12.9590  0.00  0.00     0.000 S
ENDBRANCH 62 70
ENDBRANCH 57 61
ENDBRANCH 41 57
ENDBRANCH 40 44
ENDBRANCH 20 40
ENDBRANCH 19 23
ENDBRANCH 1 19
TORSDOF 14
ENDMDL
MODEL 6
REMARK VINA RESULT:      -6.6     39.342     43.458
ROOT
ATOM      1  C1  A00 X   1      28.603   8.717  51.2470  0.00  0.00     0.000 C
ATOM      2  C2  A00 X   1      29.826   9.579  51.6590  0.00  0.00     0.000 C
ATOM      3  C3  A00 X   1      30.355   9.369  53.1170  0.00  0.00     0.000 C
ATOM      4  C4  A00 X   1      29.393   8.619  54.0750  0.00  0.00     0.000 C
ATOM      5  C5  A00 X   1      27.938   8.703  53.6140  0.00  0.00     0.000 C
ATOM      6  O5  A00 X   1      27.921   8.039  52.3310  0.00  0.00     0.000 O
ATOM      7   O  A00 X   1      30.597  10.645  53.7040  0.00  0.00     0.000 O
ATOM      9  HD  A00 X   1      30.226  10.152  54.3110  0.00  0.00     0.000 HD
ATOM      9   O  A00 X   1      29.772   7.252  54.2300  0.00  0.00     0.000 O
ATOM     11  HD  A00 X   1      29.401   6.758  54.8370  0.00  0.00     0.000 HD
ENDROOT
BRANCH 2 11
ATOM     11   O  A00 X   1      30.891   9.302  50.7300  0.00  0.00     0.000 O
ATOM     12   O  A00 X   1      33.135  10.073  51.1030  0.00  0.00     0.000 OA
ATOM     13   O  A00 X   1      31.357  11.700  50.7730  0.00  0.00     0.000 OA
ATOM     14   O  A00 X   1      32.064  10.308  48.9790  0.00  0.00     0.000 OA
ATOM     15   S  A00 X   1      31.927  10.433  50.4050  0.00  0.00     0.000 S
ENDBRANCH 2 11
BRANCH 5 16
ATOM     16   C  A00 X   1      27.349  10.117  53.5810  0.00  0.00     0.000 C
ATOM     17   O  A00 X   1      26.259  10.280  53.0720  0.00  0.00     0.000 OA
ATOM     18   O  A00 X   1      27.929  11.075  54.0500  0.00  0.00     0.000 OA
ENDBRANCH 5 16
BRANCH 1 19
ATOM     19  O4  A00 X   2      27.670   9.434  50.4020  0.00  0.00     0.000 O
BRANCH 19 23
ATOM     20  C1  A00 X   2      28.289  11.925  46.9700  0.00  0.00     0.000 C
ATOM     21  C2  A00 X   2      28.768  10.455  46.8820  0.00  0.00     0.000 C
ATOM     22  C3  A00 X   2      28.106   9.595  47.9790  0.00  0.00     0.000 C
ATOM     23  C4  A00 X   2      28.338  10.220  49.3730  0.00  0.00     0.000 C
ATOM     24  C5  A00 X   2      27.837  11.689  49.3250  0.00  0.00     0.000 C
ATOM     25  O5  A00 X   2      28.586  12.405  48.3090  0.00  0.00     0.000 O
ATOM     26   O  A00 X   2      28.527   8.231  47.8130  0.00  0.00     0.000 O
ATOM     28  HD  A00 X   2      29.366   8.442  47.7710  0.00  0.00     0.000 HD
BRANCH 21 30
ATOM     28   N  A00 X   2      28.503   9.434  45.8640  0.00  0.00     0.000 N
ATOM     30  HD  A00 X   2      29.206   9.869  45.6060  0.00  0.00     0.000 HD
ATOM     30   O  A00 X   2      30.421   9.203  44.5500  0.00  0.00     0.000 OA
ATOM     31   S  A00 X   2      29.080   9.648  44.4080  0.00  0.00     0.000 S
ATOM     32   O  A00 X   2      28.252   8.817  43.5900  0.00  0.00     0.000 OA
ATOM     33   O  A00 X   2      28.886  11.027  44.0730  0.00  0.00     0.000 OA
ENDBRANCH 21 30
BRANCH 24 34
ATOM     34   C  A00 X   2      27.745  12.468  50.6580  0.00  0.00     0.000 C
ATOM     35   O  A00 X   2      29.049  15.832  51.1500  0.00  0.00     0.000 OA
ATOM     36   O  A00 X   2      28.638  13.599  50.6650  0.00  0.00     0.000 O
ATOM     37   O  A00 X   2      27.498  15.250  49.4620  0.00  0.00     0.000 OA
ATOM     38   S  A00 X   2      27.943  15.003  50.8000  0.00  0.00     0.000 S
ATOM     39   O  A00 X   2      26.943  14.864  51.8160  0.00  0.00     0.000 OA
ENDBRANCH 24 34
BRANCH 20 40
ATOM     40  O4  A00 X   3      26.868  11.882  46.7800  0.00  0.00     0.000 O
BRANCH 40 44
ATOM     41  C1  A00 X   3      23.303  12.529  46.7670  0.00  0.00     0.000 C
ATOM     42  C2  A00 X   3      24.046  11.672  45.7190  0.00  0.00     0.000 C
ATOM     43  C3  A00 X   3      25.270  12.432  45.1470  0.00  0.00     0.000 C
ATOM     44  C4  A00 X   3      26.198  13.023  46.2020  0.00  0.00     0.000 C
ATOM     45  C5  A00 X   3      25.380  13.873  47.2140  0.00  0.00     0.000 C
ATOM     46  O5  A00 X   3      24.229  13.121  47.7190  0.00  0.00     0.000 O
ATOM     47   O  A00 X   3      25.984  11.770  44.1050  0.00  0.00     0.000 O
ATOM     49  HD  A00 X   3      26.670  12.101  44.5170  0.00  0.00     0.000 HD
BRANCH 42 49
ATOM     49   O  A00 X   3      24.444  10.449  46.3770  0.00  0.00     0.000 O
ATOM     50   O  A00 X   3      25.572   8.433  45.7510  0.00  0.00     0.000 OA
ATOM     51   O  A00 X   3      23.977   9.355  44.2690  0.00  0.00     0.000 OA
ATOM     52   O  A00 X   3      23.221   8.446  46.3160  0.00  0.00     0.000 OA
ATOM     53   S  A00 X   3      24.303   9.082  45.6470  0.00  0.00     0.000 S
ENDBRANCH 42 49
BRANCH 45 54
ATOM     54   C  A00 X   3      24.998  15.239  46.6300  0.00  0.00     0.000 C
ATOM     55   O  A00 X   3      24.561  16.117  47.3450  0.00  0.00     0.000 OA
ATOM     56   O  A00 X   3      25.125  15.466  45.4370  0.00  0.00     0.000 OA
ENDBRANCH 45 54
BRANCH 41 57
ATOM     57  O4  A00 X   4      22.413  13.482  46.1440  0.00  0.00     0.000 O
BRANCH 57 61
ATOM     58  C1  A00 X   4      18.523  15.027  47.2030  0.00  0.00     0.000 C
ATOM     59  C2  A00 X   4      19.756  15.507  48.0080  0.00  0.00     0.000 C
ATOM     60  C3  A00 X   4      21.101  15.181  47.3270  0.00  0.00     0.000 C
ATOM     61  C4  A00 X   4      21.162  13.714  46.8520  0.00  0.00     0.000 C
ATOM     62  C5  A00 X   4      19.960  13.515  45.8960  0.00  0.00     0.000 C
ATOM     63  O5  A00 X   4      18.726  13.714  46.6320  0.00  0.00     0.000 O
BRANCH 59 66
ATOM     64   N  A00 X   4      19.300  14.579  49.0590  0.00  0.00     0.000 N
ATOM     66  HD  A00 X   4      18.697  13.995  48.8430  0.00  0.00     0.000 HD
ATOM     66   O  A00 X   4      18.214  16.455  50.1060  0.00  0.00     0.000 OA
ATOM     67   S  A00 X   4      18.794  15.194  50.4460  0.00  0.00     0.000 S
ATOM     68   O  A00 X   4      17.868  14.179  50.8560  0.00  0.00     0.000 OA
ATOM     69   O  A00 X   4      20.025  15.200  51.1840  0.00  0.00     0.000 OA
ENDBRANCH 59 66
BRANCH 62 70
ATOM     70   C  A00 X   4      19.912  12.122  45.2230  0.00  0.00     0.000 C
ATOM     71   O  A00 X   4      18.193  11.133  42.1940  0.00  0.00     0.000 OA
ATOM     72   O  A00 X   4      18.225  10.146  44.3320  0.00  0.00     0.000 OA
ATOM     73   O  A00 X   4      19.324  12.245  43.9180  0.00  0.00     0.000 O
ATOM     74   O  A00 X   4      16.916  12.168  43.9570  0.00  0.00     0.000 OA
ATOM     75   S  A00 X   4      18.053  11.382  43.6010  0.00  0.00     0.000 S
ENDBRANCH 62 70
ENDBRANCH 57 61
ENDBRANCH 41 57
ENDBRANCH 40 44
ENDBRANCH 20 40
ENDBRANCH 19 23
ENDBRANCH 1 19
TORSDOF 14
ENDMDL
MODEL 7
REMARK VINA RESULT:      -6.5     39.689     45.774
ROOT
ATOM      1  C1  A00 X   1      29.625   7.459  54.1330  0.00  0.00     0.000 C
ATOM      2  C2  A00 X   1      29.946   8.158  55.4810  0.00  0.00     0.000 C
ATOM      3  C3  A00 X   1      29.606   7.346  56.7750  0.00  0.00     0.000 C
ATOM      4  C4  A00 X   1      28.670   6.127  56.5720  0.00  0.00     0.000 C
ATOM      5  C5  A00 X   1      27.830   6.250  55.3010  0.00  0.00     0.000 C
ATOM      6  O5  A00 X   1      28.794   6.275  54.2250  0.00  0.00     0.000 O
ATOM      7   O  A00 X   1      28.950   8.211  57.6990  0.00  0.00     0.000 O
ATOM      9  HD  A00 X   1      28.538   7.450  57.7250  0.00  0.00     0.000 HD
ATOM      9   O  A00 X   1      29.404   4.903  56.5490  0.00  0.00     0.000 O
ATOM     11  HD  A00 X   1      28.992   4.142  56.5750  0.00  0.00     0.000 HD
ENDROOT
BRANCH 2 11
ATOM     11   O  A00 X   1      31.351   8.479  55.4850  0.00  0.00     0.000 O
ATOM     12   O  A00 X   1      32.493   9.160  57.4840  0.00  0.00     0.000 OA
ATOM     13   O  A00 X   1      30.722  10.566  56.5880  0.00  0.00     0.000 OA
ATOM     14   O  A00 X   1      32.779  10.325  55.4170  0.00  0.00     0.000 OA
ATOM     15   S  A00 X   1      31.845   9.710  56.3210  0.00  0.00     0.000 S
ENDBRANCH 2 11
BRANCH 5 16
ATOM     16   C  A00 X   1      26.856   7.432  55.2790  0.00  0.00     0.000 C
ATOM     17   O  A00 X   1      26.535   7.940  56.3340  0.00  0.00     0.000 OA
ATOM     18   O  A00 X   1      26.400   7.883  54.2470  0.00  0.00     0.000 OA
ENDBRANCH 5 16
BRANCH 1 19
ATOM     19  O4  A00 X   2      29.127   8.377  53.1300  0.00  0.00     0.000 O
BRANCH 19 23
ATOM     20  C1  A00 X   2      31.140  11.346  50.7840  0.00  0.00     0.000 C
ATOM     21  C2  A00 X   2      31.703   9.905  50.7480  0.00  0.00     0.000 C
ATOM     22  C3  A00 X   2      30.658   8.894  51.2650  0.00  0.00     0.000 C
ATOM     23  C4  A00 X   2      30.150   9.305  52.6650  0.00  0.00     0.000 C
ATOM     24  C5  A00 X   2      29.632  10.766  52.5720  0.00  0.00     0.000 C
ATOM     25  O5  A00 X   2      30.724  11.623  52.1480  0.00  0.00     0.000 O
ATOM     26   O  A00 X   2      31.202   7.568  51.1480  0.00  0.00     0.000 O
ATOM     28  HD  A00 X   2      31.941   7.782  51.5450  0.00  0.00     0.000 HD
BRANCH 21 30
ATOM     28   N  A00 X   2      32.029   9.076  49.5830  0.00  0.00     0.000 N
ATOM     30  HD  A00 X   2      32.743   9.526  49.7790  0.00  0.00     0.000 HD
ATOM     30   O  A00 X   2      34.354   9.007  49.3680  0.00  0.00     0.000 OA
ATOM     31   S  A00 X   2      33.233   9.511  48.6570  0.00  0.00     0.000 S
ATOM     32   O  A00 X   2      32.960   8.854  47.4160  0.00  0.00     0.000 OA
ATOM     33   O  A00 X   2      33.152  10.932  48.4950  0.00  0.00     0.000 OA
ENDBRANCH 21 30
BRANCH 24 34
ATOM     34   C  A00 X   2      28.858  11.341  53.7820  0.00  0.00     0.000 C
ATOM     35   O  A00 X   2      25.584  12.917  53.5490  0.00  0.00     0.000 OA
ATOM     36   O  A00 X   2      27.784  12.202  53.3550  0.00  0.00     0.000 O
ATOM     37   O  A00 X   2      26.058  10.734  52.7720  0.00  0.00     0.000 OA
ATOM     38   S  A00 X   2      26.341  11.727  53.7630  0.00  0.00     0.000 S
ATOM     39   O  A00 X   2      26.426  11.299  55.1260  0.00  0.00     0.000 OA
ENDBRANCH 24 34
BRANCH 20 40
ATOM     40  O4  A00 X   3      29.990  11.335  49.9250  0.00  0.00     0.000 O
BRANCH 40 44
ATOM     41  C1  A00 X   3      26.910  11.942  48.1170  0.00  0.00     0.000 C
ATOM     42  C2  A00 X   3      28.155  11.246  47.5260  0.00  0.00     0.000 C
ATOM     43  C3  A00 X   3      29.432  12.090  47.7720  0.00  0.00     0.000 C
ATOM     44  C4  A00 X   3      29.627  12.538  49.2150  0.00  0.00     0.000 C
ATOM     45  C5  A00 X   3      28.337  13.232  49.7350  0.00  0.00     0.000 C
ATOM     46  O5  A00 X   3      27.157  12.406  49.4740  0.00  0.00     0.000 O
ATOM     47   O  A00 X   3      30.633  11.585  47.1920  0.00  0.00     0.000 O
ATOM     49  HD  A00 X   3      30.976  11.862  47.9370  0.00  0.00     0.000 HD
BRANCH 42 49
ATOM     49   O  A00 X   3      28.251   9.948  48.1530  0.00  0.00     0.000 O
ATOM     50   O  A00 X   3      29.715   8.059  48.0090  0.00  0.00     0.000 OA
ATOM     51   O  A00 X   3      29.073   9.159  46.0170  0.00  0.00     0.000 OA
ATOM     52   O  A00 X   3      27.432   7.955  47.2190  0.00  0.00     0.000 OA
ATOM     53   S  A00 X   3      28.642   8.697  47.3130  0.00  0.00     0.000 S
ENDBRANCH 42 49
BRANCH 45 54
ATOM     54   C  A00 X   3      28.205  14.662  49.1960  0.00  0.00     0.000 C
ATOM     55   O  A00 X   3      27.173  15.285  49.3420  0.00  0.00     0.000 OA
ATOM     56   O  A00 X   3      29.133  15.197  48.6100  0.00  0.00     0.000 OA
ENDBRANCH 45 54
BRANCH 41 57
ATOM     57  O4  A00 X   4      26.398  12.964  47.2320  0.00  0.00     0.000 O
BRANCH 57 61
ATOM     58  C1  A00 X   4      22.374  13.543  45.7810  0.00  0.00     0.000 C
ATOM     59  C2  A00 X   4      23.017  14.655  46.6470  0.00  0.00     0.000 C
ATOM     60  C3  A00 X   4      24.545  14.509  46.8000  0.00  0.00     0.000 C
ATOM     61  C4  A00 X   4      24.947  13.068  47.1820  0.00  0.00     0.000 C
ATOM     62  C5  A00 X   4      24.381  12.148  46.0720  0.00  0.00     0.000 C
ATOM     63  O5  A00 X   4      22.933  12.241  46.0680  0.00  0.00     0.000 O
BRANCH 59 66
ATOM     64   N  A00 X   4      22.976  15.893  47.4460  0.00  0.00     0.000 N
ATOM     66  HD  A00 X   4      23.171  15.833  48.2870  0.00  0.00     0.000 HD
ATOM     66   O  A00 X   4      20.580  15.848  47.2090  0.00  0.00     0.000 OA
ATOM     67   S  A00 X   4      21.646  16.781  47.3990  0.00  0.00     0.000 S
ATOM     68   O  A00 X   4      21.701  17.398  48.6920  0.00  0.00     0.000 OA
ATOM     69   O  A00 X   4      21.967  17.661  46.3120  0.00  0.00     0.000 OA
ENDBRANCH 59 66
BRANCH 62 70
ATOM     70   C  A00 X   4      24.777  10.660  46.2210  0.00  0.00     0.000 C
ATOM     71   O  A00 X   4      26.668   8.583  43.9370  0.00  0.00     0.000 OA
ATOM     72   O  A00 X   4      24.618   8.192  45.0280  0.00  0.00     0.000 OA
ATOM     73   O  A00 X   4      25.729  10.318  45.2010  0.00  0.00     0.000 O
ATOM     74   O  A00 X   4      24.695   9.700  43.1150  0.00  0.00     0.000 OA
ATOM     75   S  A00 X   4      25.376   9.134  44.2350  0.00  0.00     0.000 S
ENDBRANCH 62 70
ENDBRANCH 57 61
ENDBRANCH 41 57
ENDBRANCH 40 44
ENDBRANCH 20 40
ENDBRANCH 19 23
ENDBRANCH 1 19
TORSDOF 14
ENDMDL
MODEL 8
REMARK VINA RESULT:      -6.4      3.192      5.810
ROOT
ATOM      1  C1  A00 X   1      27.868  31.156   6.8520  0.00  0.00     0.000 C
ATOM      2  C2  A00 X   1      28.516  32.201   5.9040  0.00  0.00     0.000 C
ATOM      3  C3  A00 X   1      29.829  32.876   6.4200  0.00  0.00     0.000 C
ATOM      4  C4  A00 X   1      30.118  32.705   7.9340  0.00  0.00     0.000 C
ATOM      5  C5  A00 X   1      28.851  32.399   8.7320  0.00  0.00     0.000 C
ATOM      6  O5  A00 X   1      28.382  31.137   8.2060  0.00  0.00     0.000 O
ATOM      7   O  A00 X   1      29.746  34.279   6.1800  0.00  0.00     0.000 O
ATOM      9  HD  A00 X   1      30.094  34.175   6.9660  0.00  0.00     0.000 HD
ATOM      9   O  A00 X   1      31.093  31.689   8.1670  0.00  0.00     0.000 O
ATOM     11  HD  A00 X   1      31.441  31.585   8.9530  0.00  0.00     0.000 HD
ENDROOT
BRANCH 2 11
ATOM     11   O  A00 X   1      28.787  31.546   4.6490  0.00  0.00     0.000 O
ATOM     12   O  A00 X   1      29.911  32.667   2.8480  0.00  0.00     0.000 OA
ATOM     13   O  A00 X   1      27.737  33.475   3.5810  0.00  0.00     0.000 OA
ATOM     14   O  A00 X   1      27.934  31.374   2.4820  0.00  0.00     0.000 OA
ATOM     15   S  A00 X   1      28.587  32.347   3.3170  0.00  0.00     0.000 S
ENDBRANCH 2 11
BRANCH 5 16
ATOM     16   C  A00 X   1      27.790  33.503   8.7130  0.00  0.00     0.000 C
ATOM     17   O  A00 X   1      26.703  33.273   9.2010  0.00  0.00     0.000 OA
ATOM     18   O  A00 X   1      28.000  34.600   8.2350  0.00  0.00     0.000 OA
ENDBRANCH 5 16
BRANCH 1 19
ATOM     19  O4  A00 X   2      26.420  31.206   6.8370  0.00  0.00     0.000 O
BRANCH 19 23
ATOM     20  C1  A00 X   2      25.969  26.945   6.7960  0.00  0.00     0.000 C
ATOM     21  C2  A00 X   2      25.865  27.687   5.4420  0.00  0.00     0.000 C
ATOM     22  C3  A00 X   2      26.466  29.105   5.5450  0.00  0.00     0.000 C
ATOM     23  C4  A00 X   2      25.817  29.887   6.7090  0.00  0.00     0.000 C
ATOM     24  C5  A00 X   2      25.970  29.033   7.9980  0.00  0.00     0.000 C
ATOM     25  O5  A00 X   2      25.303  27.760   7.7970  0.00  0.00     0.000 O
ATOM     26   O  A00 X   2      26.408  29.726   4.2490  0.00  0.00     0.000 O
ATOM     28  HD  A00 X   2      25.570  29.536   4.1400  0.00  0.00     0.000 HD
BRANCH 21 30
ATOM     28   N  A00 X   2      26.332  27.829   4.0590  0.00  0.00     0.000 N
ATOM     30  HD  A00 X   2      25.861  27.103   4.0910  0.00  0.00     0.000 HD
ATOM     30   O  A00 X   2      25.054  26.413   2.7110  0.00  0.00     0.000 OA
ATOM     31   S  A00 X   2      26.399  26.541   3.1450  0.00  0.00     0.000 S
ATOM     32   O  A00 X   2      27.333  26.900   2.1230  0.00  0.00     0.000 OA
ATOM     33   O  A00 X   2      26.926  25.479   3.9490  0.00  0.00     0.000 OA
ENDBRANCH 21 30
BRANCH 24 34
ATOM     34   C  A00 X   2      25.608  29.690   9.3510  0.00  0.00     0.000 C
ATOM     35   O  A00 X   2      27.102  28.757  12.5370  0.00  0.00     0.000 OA
ATOM     36   O  A00 X   2      26.078  28.897  10.4590  0.00  0.00     0.000 O
ATOM     37   O  A00 X   2      28.345  29.442  10.6450  0.00  0.00     0.000 OA
ATOM     38   S  A00 X   2      27.133  29.602  11.3890  0.00  0.00     0.000 S
ATOM     39   O  A00 X   2      26.657  30.935  11.6030  0.00  0.00     0.000 OA
ENDBRANCH 24 34
BRANCH 20 40
ATOM     40  O4  A00 X   3      27.371  26.872   7.0920  0.00  0.00     0.000 O
BRANCH 40 44
ATOM     41  C1  A00 X   3      30.580  26.655   8.7590  0.00  0.00     0.000 C
ATOM     42  C2  A00 X   3      30.333  26.304   7.2750  0.00  0.00     0.000 C
ATOM     43  C3  A00 X   3      29.140  25.326   7.1270  0.00  0.00     0.000 C
ATOM     44  C4  A00 X   3      27.874  25.756   7.8580  0.00  0.00     0.000 C
ATOM     45  C5  A00 X   3      28.202  26.086   9.3410  0.00  0.00     0.000 C
ATOM     46  O5  A00 X   3      29.340  27.003   9.4330  0.00  0.00     0.000 O
ATOM     47   O  A00 X   3      28.874  24.863   5.8050  0.00  0.00     0.000 O
ATOM     49  HD  A00 X   3      28.051  24.954   6.0590  0.00  0.00     0.000 HD
BRANCH 42 49
ATOM     49   O  A00 X   3      30.087  27.547   6.5820  0.00  0.00     0.000 O
ATOM     50   O  A00 X   3      29.555  28.206   4.3430  0.00  0.00     0.000 OA
ATOM     51   O  A00 X   3      31.170  26.513   4.6810  0.00  0.00     0.000 OA
ATOM     52   O  A00 X   3      31.697  28.721   5.3400  0.00  0.00     0.000 OA
ATOM     53   S  A00 X   3      30.653  27.774   5.1500  0.00  0.00     0.000 S
ENDBRANCH 42 49
BRANCH 45 54
ATOM     54   C  A00 X   3      28.382  24.815  10.1790  0.00  0.00     0.000 C
ATOM     55   O  A00 X   3      28.216  23.719   9.6840  0.00  0.00     0.000 OA
ATOM     56   O  A00 X   3      28.694  24.882  11.3580  0.00  0.00     0.000 OA
ENDBRANCH 45 54
BRANCH 41 57
ATOM     57  O4  A00 X   4      31.346  25.629   9.4300  0.00  0.00     0.000 O
BRANCH 57 61
ATOM     58  C1  A00 X   4      34.389  25.736  12.4900  0.00  0.00     0.000 C
ATOM     59  C2  A00 X   4      32.931  26.081  12.8820  0.00  0.00     0.000 C
ATOM     60  C3  A00 X   4      31.894  25.666  11.8190  0.00  0.00     0.000 C
ATOM     61  C4  A00 X   4      32.313  26.116  10.4030  0.00  0.00     0.000 C
ATOM     62  C5  A00 X   4      33.703  25.486  10.1390  0.00  0.00     0.000 C
ATOM     63  O5  A00 X   4      34.656  26.015  11.0960  0.00  0.00     0.000 O
BRANCH 59 66
ATOM     64   N  A00 X   4      32.025  26.049  14.0450  0.00  0.00     0.000 N
ATOM     66  HD  A00 X   4      31.301  26.522  14.0010  0.00  0.00     0.000 HD
ATOM     66   O  A00 X   4      33.690  27.304  15.2500  0.00  0.00     0.000 OA
ATOM     67   S  A00 X   4      32.634  26.370  15.4880  0.00  0.00     0.000 S
ATOM     68   O  A00 X   4      31.476  26.903  16.1450  0.00  0.00     0.000 OA
ATOM     69   O  A00 X   4      32.994  25.047  15.9120  0.00  0.00     0.000 OA
ENDBRANCH 59 66
BRANCH 62 70
ATOM     70   C  A00 X   4      34.249  25.735   8.7130  0.00  0.00     0.000 C
ATOM     71   O  A00 X   4      37.111  24.222   7.0910  0.00  0.00     0.000 OA
ATOM     72   O  A00 X   4      36.476  26.481   7.2890  0.00  0.00     0.000 OA
ATOM     73   O  A00 X   4      35.242  24.744   8.4050  0.00  0.00     0.000 O
ATOM     74   O  A00 X   4      37.438  25.328   9.2090  0.00  0.00     0.000 OA
ATOM     75   S  A00 X   4      36.675  25.240   8.0050  0.00  0.00     0.000 S
ENDBRANCH 62 70
ENDBRANCH 57 61
ENDBRANCH 41 57
ENDBRANCH 40 44
ENDBRANCH 20 40
ENDBRANCH 19 23
ENDBRANCH 1 19
TORSDOF 14
ENDMDL
MODEL 9
REMARK VINA RESULT:      -6.4      3.228      6.103
ROOT
ATOM      1  C1  A00 X   1      26.757  31.564   6.9890  0.00  0.00     0.000 C
ATOM      2  C2  A00 X   1      26.452  33.059   6.7050  0.00  0.00     0.000 C
ATOM      3  C3  A00 X   1      27.603  34.069   7.0250  0.00  0.00     0.000 C
ATOM      4  C4  A00 X   1      28.747  33.517   7.9150  0.00  0.00     0.000 C
ATOM      5  C5  A00 X   1      28.302  32.315   8.7480  0.00  0.00     0.000 C
ATOM      6  O5  A00 X   1      27.946  31.307   7.7760  0.00  0.00     0.000 O
ATOM      7   O  A00 X   1      27.053  35.185   7.7210  0.00  0.00     0.000 O
ATOM      9  HD  A00 X   1      27.804  34.990   8.1050  0.00  0.00     0.000 HD
ATOM      9   O  A00 X   1      29.891  33.167   7.1360  0.00  0.00     0.000 O
ATOM     11  HD  A00 X   1      30.643  32.972   7.5200  0.00  0.00     0.000 HD
ENDROOT
BRANCH 2 11
ATOM     11   O  A00 X   1      26.098  33.178   5.3130  0.00  0.00     0.000 O
ATOM     12   O  A00 X   1      27.568  32.444   3.5620  0.00  0.00     0.000 OA
ATOM     13   O  A00 X   1      28.259  34.274   5.0060  0.00  0.00     0.000 OA
ATOM     14   O  A00 X   1      26.467  34.563   3.4700  0.00  0.00     0.000 OA
ATOM     15   S  A00 X   1      27.194  33.631   4.2880  0.00  0.00     0.000 S
ENDBRANCH 2 11
BRANCH 5 16
ATOM     16   C  A00 X   1      27.194  32.606   9.7640  0.00  0.00     0.000 C
ATOM     17   O  A00 X   1      27.074  33.738  10.1860  0.00  0.00     0.000 OA
ATOM     18   O  A00 X   1      26.428  31.749  10.1570  0.00  0.00     0.000 OA
ENDBRANCH 5 16
BRANCH 1 19
ATOM     19  O4  A00 X   2      25.611  30.847   7.5110  0.00  0.00     0.000 O
BRANCH 19 23
ATOM     20  C1  A00 X   2      26.775  26.917   6.2590  0.00  0.00     0.000 C
ATOM     21  C2  A00 X   2      26.259  27.891   5.1710  0.00  0.00     0.000 C
ATOM     22  C3  A00 X   2      26.297  29.348   5.6760  0.00  0.00     0.000 C
ATOM     23  C4  A00 X   2      25.532  29.482   7.0110  0.00  0.00     0.000 C
ATOM     24  C5  A00 X   2      26.127  28.447   8.0050  0.00  0.00     0.000 C
ATOM     25  O5  A00 X   2      25.964  27.117   7.4480  0.00  0.00     0.000 O
ATOM     26   O  A00 X   2      25.876  30.216   4.6090  0.00  0.00     0.000 O
ATOM     28  HD  A00 X   2      25.162  29.754   4.4480  0.00  0.00     0.000 HD
BRANCH 21 30
ATOM     28   N  A00 X   2      26.260  28.642   3.9120  0.00  0.00     0.000 N
ATOM     30  HD  A00 X   2      26.277  27.802   3.7030  0.00  0.00     0.000 HD
ATOM     30   O  A00 X   2      25.694  27.171   2.1870  0.00  0.00     0.000 OA
ATOM     31   S  A00 X   2      26.812  27.938   2.6090  0.00  0.00     0.000 S
ATOM     32   O  A00 X   2      27.152  29.031   1.7520  0.00  0.00     0.000 OA
ATOM     33   O  A00 X   2      27.991  27.216   2.9850  0.00  0.00     0.000 OA
ENDBRANCH 21 30
BRANCH 24 34
ATOM     34   C  A00 X   2      25.693  28.531   9.4870  0.00  0.00     0.000 C
ATOM     35   O  A00 X   2      27.746  27.421  12.2820  0.00  0.00     0.000 OA
ATOM     36   O  A00 X   2      26.531  27.711  10.3250  0.00  0.00     0.000 O
ATOM     37   O  A00 X   2      28.450  29.003  10.6710  0.00  0.00     0.000 OA
ATOM     38   S  A00 X   2      27.347  28.487  11.4230  0.00  0.00     0.000 S
ATOM     39   O  A00 X   2      26.442  29.431  12.0070  0.00  0.00     0.000 OA
ENDBRANCH 24 34
BRANCH 20 40
ATOM     40  O4  A00 X   3      28.127  27.317   6.5280  0.00  0.00     0.000 O
BRANCH 40 44
ATOM     41  C1  A00 X   3      31.315  27.956   8.1250  0.00  0.00     0.000 C
ATOM     42  C2  A00 X   3      31.090  27.906   6.5980  0.00  0.00     0.000 C
ATOM     43  C3  A00 X   3      30.342  26.611   6.1890  0.00  0.00     0.000 C
ATOM     44  C4  A00 X   3      29.076  26.331   6.9890  0.00  0.00     0.000 C
ATOM     45  C5  A00 X   3      29.383  26.394   8.5120  0.00  0.00     0.000 C
ATOM     46  O5  A00 X   3      30.098  27.627   8.8500  0.00  0.00     0.000 O
ATOM     47   O  A00 X   3      30.155  26.415   4.7890  0.00  0.00     0.000 O
ATOM     49  HD  A00 X   3      29.383  26.118   5.0480  0.00  0.00     0.000 HD
BRANCH 42 49
ATOM     49   O  A00 X   3      30.335  29.086   6.2430  0.00  0.00     0.000 O
ATOM     50   O  A00 X   3      29.402  30.007   4.2400  0.00  0.00     0.000 OA
ATOM     51   O  A00 X   3      31.556  29.038   4.1540  0.00  0.00     0.000 OA
ATOM     52   O  A00 X   3      31.273  31.050   5.3610  0.00  0.00     0.000 OA
ATOM     53   S  A00 X   3      30.647  29.850   4.9230  0.00  0.00     0.000 S
ENDBRANCH 42 49
BRANCH 45 54
ATOM     54   C  A00 X   3      30.099  25.129   8.9990  0.00  0.00     0.000 C
ATOM     55   O  A00 X   3      30.630  24.375   8.2090  0.00  0.00     0.000 OA
ATOM     56   O  A00 X   3      30.147  24.856  10.1880  0.00  0.00     0.000 OA
ENDBRANCH 45 54
BRANCH 41 57
ATOM     57  O4  A00 X   4      32.464  27.175   8.5210  0.00  0.00     0.000 O
BRANCH 57 61
ATOM     58  C1  A00 X   4      35.002  27.392  12.0070  0.00  0.00     0.000 C
ATOM     59  C2  A00 X   4      33.941  26.265  11.9310  0.00  0.00     0.000 C
ATOM     60  C3  A00 X   4      33.355  26.067  10.5180  0.00  0.00     0.000 C
ATOM     61  C4  A00 X   4      32.931  27.407   9.8800  0.00  0.00     0.000 C
ATOM     62  C5  A00 X   4      34.195  28.303   9.8670  0.00  0.00     0.000 C
ATOM     63  O5  A00 X   4      34.618  28.551  11.2320  0.00  0.00     0.000 O
BRANCH 59 66
ATOM     64   N  A00 X   4      32.696  26.105  12.7030  0.00  0.00     0.000 N
ATOM     66  HD  A00 X   4      32.212  26.812  12.8330  0.00  0.00     0.000 HD
ATOM     66   O  A00 X   4      34.068  25.746  14.6500  0.00  0.00     0.000 OA
ATOM     67   S  A00 X   4      32.779  25.400  14.1370  0.00  0.00     0.000 S
ATOM     68   O  A00 X   4      31.666  26.020  14.7950  0.00  0.00     0.000 OA
ATOM     69   O  A00 X   4      32.553  24.034  13.7600  0.00  0.00     0.000 OA
ENDBRANCH 59 66
BRANCH 62 70
ATOM     70   C  A00 X   4      33.997  29.664   9.1590  0.00  0.00     0.000 C
ATOM     71   O  A00 X   4      32.510  32.697  10.4620  0.00  0.00     0.000 OA
ATOM     72   O  A00 X   4      32.125  31.543   8.4460  0.00  0.00     0.000 OA
ATOM     73   O  A00 X   4      33.596  30.649  10.1250  0.00  0.00     0.000 O
ATOM     74   O  A00 X   4      31.221  30.660  10.5290  0.00  0.00     0.000 OA
ATOM     75   S  A00 X   4      32.247  31.410   9.8800  0.00  0.00     0.000 S
ENDBRANCH 62 70
ENDBRANCH 57 61
ENDBRANCH 41 57
ENDBRANCH 40 44
ENDBRANCH 20 40
ENDBRANCH 19 23
ENDBRANCH 1 19
TORSDOF 14
ENDMDL
MODEL 10
REMARK VINA RESULT:      -6.1      3.613      8.529
ROOT
ATOM      1  C1  A00 X   1      28.658  30.384  11.0890  0.00  0.00     0.000 C
ATOM      2  C2  A00 X   1      27.230  30.561  10.5090  0.00  0.00     0.000 C
ATOM      3  C3  A00 X   1      26.889  31.979   9.9420  0.00  0.00     0.000 C
ATOM      4  C4  A00 X   1      27.861  33.114  10.3540  0.00  0.00     0.000 C
ATOM      5  C5  A00 X   1      28.628  32.782  11.6330  0.00  0.00     0.000 C
ATOM      6  O5  A00 X   1      29.404  31.608  11.3020  0.00  0.00     0.000 O
ATOM      7   O  A00 X   1      25.598  32.361  10.4110  0.00  0.00     0.000 O
ATOM      9  HD  A00 X   1      26.105  33.061  10.4600  0.00  0.00     0.000 HD
ATOM      9   O  A00 X   1      28.780  33.420   9.3050  0.00  0.00     0.000 O
ATOM     11  HD  A00 X   1      29.287  34.120   9.3550  0.00  0.00     0.000 HD
ENDROOT
BRANCH 2 11
ATOM     11   O  A00 X   1      27.056  29.584   9.4640  0.00  0.00     0.000 O
ATOM     12   O  A00 X   1      25.472  29.893   7.6860  0.00  0.00     0.000 OA
ATOM     13   O  A00 X   1      24.669  29.676   9.9720  0.00  0.00     0.000 OA
ATOM     14   O  A00 X   1      25.653  27.819   8.8600  0.00  0.00     0.000 OA
ATOM     15   S  A00 X   1      25.607  29.252   8.9690  0.00  0.00     0.000 S
ENDBRANCH 2 11
BRANCH 5 16
ATOM     16   C  A00 X   1      27.759  32.610  12.8830  0.00  0.00     0.000 C
ATOM     17   O  A00 X   1      26.605  32.982  12.8440  0.00  0.00     0.000 OA
ATOM     18   O  A00 X   1      28.182  32.109  13.9060  0.00  0.00     0.000 OA
ENDBRANCH 5 16
BRANCH 1 19
ATOM     19  O4  A00 X   2      28.685  29.538  12.2650  0.00  0.00     0.000 O
BRANCH 19 23
ATOM     20  C1  A00 X   2      31.177  26.586  10.4090  0.00  0.00     0.000 C
ATOM     21  C2  A00 X   2      29.730  26.174  10.7720  0.00  0.00     0.000 C
ATOM     22  C3  A00 X   2      28.849  27.417  11.0160  0.00  0.00     0.000 C
ATOM     23  C4  A00 X   2      29.492  28.341  12.0740  0.00  0.00     0.000 C
ATOM     24  C5  A00 X   2      30.937  28.665  11.6050  0.00  0.00     0.000 C
ATOM     25  O5  A00 X   2      31.679  27.423  11.4850  0.00  0.00     0.000 O
ATOM     26   O  A00 X   2      27.503  26.984  11.2810  0.00  0.00     0.000 O
ATOM     28  HD  A00 X   2      27.752  26.413  11.8820  0.00  0.00     0.000 HD
BRANCH 21 30
ATOM     28   N  A00 X   2      30.293  24.837  10.5570  0.00  0.00     0.000 N
ATOM     30  HD  A00 X   2      29.489  24.725  10.8600  0.00  0.00     0.000 HD
ATOM     30   O  A00 X   2      28.536  23.298  10.5620  0.00  0.00     0.000 OA
ATOM     31   S  A00 X   2      29.674  23.617  11.3490  0.00  0.00     0.000 S
ATOM     32   O  A00 X   2      30.716  22.637  11.3290  0.00  0.00     0.000 OA
ATOM     33   O  A00 X   2      29.433  24.060  12.6900  0.00  0.00     0.000 OA
ENDBRANCH 21 30
BRANCH 24 34
ATOM     34   C  A00 X   2      31.721  29.757  12.3700  0.00  0.00     0.000 C
ATOM     35   O  A00 X   2      34.421  31.724  10.9220  0.00  0.00     0.000 OA
ATOM     36   O  A00 X   2      32.937  30.108  11.6800  0.00  0.00     0.000 O
ATOM     37   O  A00 X   2      32.247  31.585  10.0020  0.00  0.00     0.000 OA
ATOM     38   S  A00 X   2      33.028  31.604  11.2010  0.00  0.00     0.000 S
ATOM     39   O  A00 X   2      32.555  32.406  12.2880  0.00  0.00     0.000 OA
ENDBRANCH 24 34
BRANCH 20 40
ATOM     40  O4  A00 X   3      31.069  27.363   9.2080  0.00  0.00     0.000 O
BRANCH 40 44
ATOM     41  C1  A00 X   3      31.251  29.212   6.0980  0.00  0.00     0.000 C
ATOM     42  C2  A00 X   3      30.747  27.758   6.2290  0.00  0.00     0.000 C
ATOM     43  C3  A00 X   3      31.763  26.888   7.0140  0.00  0.00     0.000 C
ATOM     44  C4  A00 X   3      32.216  27.485   8.3400  0.00  0.00     0.000 C
ATOM     45  C5  A00 X   3      32.712  28.943   8.1260  0.00  0.00     0.000 C
ATOM     46  O5  A00 X   3      31.728  29.724   7.3720  0.00  0.00     0.000 O
ATOM     47   O  A00 X   3      31.442  25.502   7.1230  0.00  0.00     0.000 O
ATOM     49  HD  A00 X   3      31.757  25.608   7.9230  0.00  0.00     0.000 HD
BRANCH 42 49
ATOM     49   O  A00 X   3      29.469  27.812   6.8990  0.00  0.00     0.000 O
ATOM     50   O  A00 X   3      27.827  26.229   7.6290  0.00  0.00     0.000 OA
ATOM     51   O  A00 X   3      28.850  25.923   5.5190  0.00  0.00     0.000 OA
ATOM     52   O  A00 X   3      27.391  27.759   5.8080  0.00  0.00     0.000 OA
ATOM     53   S  A00 X   3      28.306  26.880   6.4500  0.00  0.00     0.000 S
ENDBRANCH 42 49
BRANCH 45 54
ATOM     54   C  A00 X   3      34.114  28.980   7.5060  0.00  0.00     0.000 C
ATOM     55   O  A00 X   3      34.742  30.018   7.4580  0.00  0.00     0.000 OA
ATOM     56   O  A00 X   3      34.623  27.968   7.0490  0.00  0.00     0.000 OA
ENDBRANCH 45 54
BRANCH 41 57
ATOM     57  O4  A00 X   4      32.199  29.353   5.0160  0.00  0.00     0.000 O
BRANCH 57 61
ATOM     58  C1  A00 X   4      33.214  32.632   2.3980  0.00  0.00     0.000 C
ATOM     59  C2  A00 X   4      33.490  32.782   3.9150  0.00  0.00     0.000 C
ATOM     60  C3  A00 X   4      33.430  31.447   4.6850  0.00  0.00     0.000 C
ATOM     61  C4  A00 X   4      32.166  30.636   4.3290  0.00  0.00     0.000 C
ATOM     62  C5  A00 X   4      32.203  30.423   2.7950  0.00  0.00     0.000 C
ATOM     63  O5  A00 X   4      32.131  31.712   2.1330  0.00  0.00     0.000 O
BRANCH 59 66
ATOM     64   N  A00 X   4      32.340  33.636   4.2620  0.00  0.00     0.000 N
ATOM     66  HD  A00 X   4      31.664  33.637   3.7200  0.00  0.00     0.000 HD
ATOM     66   O  A00 X   4      33.729  35.538   3.7610  0.00  0.00     0.000 OA
ATOM     67   S  A00 X   4      32.612  35.181   4.5770  0.00  0.00     0.000 S
ATOM     68   O  A00 X   4      31.355  35.749   4.1860  0.00  0.00     0.000 OA
ATOM     69   O  A00 X   4      32.812  35.118   5.9970  0.00  0.00     0.000 OA
ENDBRANCH 59 66
BRANCH 62 70
ATOM     70   C  A00 X   4      31.064  29.528   2.2530  0.00  0.00     0.000 C
ATOM     71   O  A00 X   4      27.526  30.261   2.0240  0.00  0.00     0.000 OA
ATOM     72   O  A00 X   4      28.650  28.382   2.8880  0.00  0.00     0.000 OA
ATOM     73   O  A00 X   4      29.866  30.310   2.1220  0.00  0.00     0.000 O
ATOM     74   O  A00 X   4      28.605  30.453   4.1710  0.00  0.00     0.000 OA
ATOM     75   S  A00 X   4      28.586  29.826   2.8890  0.00  0.00     0.000 S
ENDBRANCH 62 70
ENDBRANCH 57 61
ENDBRANCH 41 57
ENDBRANCH 40 44
ENDBRANCH 20 40
ENDBRANCH 19 23
ENDBRANCH 1 19
TORSDOF 14
ENDMDL
MODEL 11
REMARK VINA RESULT:      -6.0      3.682      9.578
ROOT
ATOM      1  C1  A00 X   1      28.872  30.957  10.6280  0.00  0.00     0.000 C
ATOM      2  C2  A00 X   1      27.444  30.568  10.1630  0.00  0.00     0.000 C
ATOM      3  C3  A00 X   1      26.604  31.708   9.4970  0.00  0.00     0.000 C
ATOM      4  C4  A00 X   1      27.141  33.146   9.7120  0.00  0.00     0.000 C
ATOM      5  C5  A00 X   1      28.040  33.249  10.9440  0.00  0.00     0.000 C
ATOM      6  O5  A00 X   1      29.156  32.378  10.6570  0.00  0.00     0.000 O
ATOM      7   O  A00 X   1      25.286  31.682  10.0410  0.00  0.00     0.000 O
ATOM      9  HD  A00 X   1      25.520  32.514   9.9780  0.00  0.00     0.000 HD
ATOM      9   O  A00 X   1      27.843  33.619   8.5620  0.00  0.00     0.000 O
ATOM     11  HD  A00 X   1      28.077  34.450   8.5000  0.00  0.00     0.000 HD
ENDROOT
BRANCH 2 11
ATOM     11   O  A00 X   1      27.568  29.473   9.2340  0.00  0.00     0.000 O
ATOM     12   O  A00 X   1      25.705  28.693   7.9340  0.00  0.00     0.000 OA
ATOM     13   O  A00 X   1      25.633  28.492  10.3570  0.00  0.00     0.000 OA
ATOM     14   O  A00 X   1      27.155  27.180   9.0840  0.00  0.00     0.000 OA
ATOM     15   S  A00 X   1      26.417  28.412   9.1550  0.00  0.00     0.000 S
ENDBRANCH 2 11
BRANCH 5 16
ATOM     16   C  A00 X   1      27.349  32.943  12.2770  0.00  0.00     0.000 C
ATOM     17   O  A00 X   1      26.145  33.079  12.3530  0.00  0.00     0.000 OA
ATOM     18   O  A00 X   1      27.961  32.562  13.2550  0.00  0.00     0.000 OA
ENDBRANCH 5 16
BRANCH 1 19
ATOM     19  O4  A00 X   2      29.251  30.317  11.8720  0.00  0.00     0.000 O
BRANCH 19 23
ATOM     20  C1  A00 X   2      32.953  28.843  10.2960  0.00  0.00     0.000 C
ATOM     21  C2  A00 X   2      31.824  27.814  10.5470  0.00  0.00     0.000 C
ATOM     22  C3  A00 X   2      30.459  28.521  10.6880  0.00  0.00     0.000 C
ATOM     23  C4  A00 X   2      30.525  29.618  11.7750  0.00  0.00     0.000 C
ATOM     24  C5  A00 X   2      31.701  30.568  11.4200  0.00  0.00     0.000 C
ATOM     25  O5  A00 X   2      32.931  29.797  11.3900  0.00  0.00     0.000 O
ATOM     26   O  A00 X   2      29.438  27.522  10.8510  0.00  0.00     0.000 O
ATOM     28  HD  A00 X   2      29.866  27.115  11.4840  0.00  0.00     0.000 HD
BRANCH 21 30
ATOM     28   N  A00 X   2      32.850  26.833  10.9150  0.00  0.00     0.000 N
ATOM     30  HD  A00 X   2      32.119  26.391  10.7730  0.00  0.00     0.000 HD
ATOM     30   O  A00 X   2      32.081  24.714  10.3040  0.00  0.00     0.000 OA
ATOM     31   S  A00 X   2      32.390  25.434  11.4880  0.00  0.00     0.000 S
ATOM     32   O  A00 X   2      33.539  24.964  12.1980  0.00  0.00     0.000 OA
ATOM     33   O  A00 X   2      31.311  25.682  12.3970  0.00  0.00     0.000 OA
ENDBRANCH 21 30
BRANCH 24 34
ATOM     34   C  A00 X   2      31.840  31.883  12.2230  0.00  0.00     0.000 C
ATOM     35   O  A00 X   2      31.920  32.055  15.8590  0.00  0.00     0.000 OA
ATOM     36   O  A00 X   2      31.489  31.689  13.6080  0.00  0.00     0.000 O
ATOM     37   O  A00 X   2      33.401  30.741  14.5650  0.00  0.00     0.000 OA
ATOM     38   S  A00 X   2      32.648  31.956  14.6370  0.00  0.00     0.000 S
ATOM     39   O  A00 X   2      33.293  33.163  14.2150  0.00  0.00     0.000 OA
ENDBRANCH 24 34
BRANCH 20 40
ATOM     40  O4  A00 X   3      32.607  29.507   9.0720  0.00  0.00     0.000 O
BRANCH 40 44
ATOM     41  C1  A00 X   3      32.129  32.398   6.9410  0.00  0.00     0.000 C
ATOM     42  C2  A00 X   3      31.980  30.931   6.4820  0.00  0.00     0.000 C
ATOM     43  C3  A00 X   3      33.222  30.094   6.8820  0.00  0.00     0.000 C
ATOM     44  C4  A00 X   3      33.628  30.224   8.3450  0.00  0.00     0.000 C
ATOM     45  C5  A00 X   3      33.763  31.724   8.7290  0.00  0.00     0.000 C
ATOM     46  O5  A00 X   3      32.574  32.477   8.3230  0.00  0.00     0.000 O
ATOM     47   O  A00 X   3      33.233  28.741   6.4320  0.00  0.00     0.000 O
ATOM     49  HD  A00 X   3      33.575  28.602   7.2150  0.00  0.00     0.000 HD
BRANCH 42 49
ATOM     49   O  A00 X   3      30.777  30.416   7.0940  0.00  0.00     0.000 O
ATOM     50   O  A00 X   3      29.008  28.933   6.4610  0.00  0.00     0.000 OA
ATOM     51   O  A00 X   3      29.809  30.495   4.8770  0.00  0.00     0.000 OA
ATOM     52   O  A00 X   3      28.628  31.302   6.7590  0.00  0.00     0.000 OA
ATOM     53   S  A00 X   3      29.471  30.270   6.2610  0.00  0.00     0.000 S
ENDBRANCH 42 49
BRANCH 45 54
ATOM     54   C  A00 X   3      35.069  32.330   8.2010  0.00  0.00     0.000 C
ATOM     55   O  A00 X   3      35.928  31.622   7.7170  0.00  0.00     0.000 OA
ATOM     56   O  A00 X   3      35.269  33.533   8.2590  0.00  0.00     0.000 OA
ENDBRANCH 45 54
BRANCH 41 57
ATOM     57  O4  A00 X   4      32.936  33.166   6.0200  0.00  0.00     0.000 O
BRANCH 57 61
ATOM     58  C1  A00 X   4      32.224  37.214   4.6990  0.00  0.00     0.000 C
ATOM     59  C2  A00 X   4      33.620  36.854   5.2660  0.00  0.00     0.000 C
ATOM     60  C3  A00 X   4      33.870  35.335   5.3640  0.00  0.00     0.000 C
ATOM     61  C4  A00 X   4      32.686  34.600   6.0280  0.00  0.00     0.000 C
ATOM     62  C5  A00 X   4      31.435  34.931   5.1770  0.00  0.00     0.000 C
ATOM     63  O5  A00 X   4      31.186  36.359   5.2320  0.00  0.00     0.000 O
BRANCH 59 66
ATOM     64   N  A00 X   4      33.406  37.463   6.5910  0.00  0.00     0.000 N
ATOM     66  HD  A00 X   4      32.588  37.607   6.8380  0.00  0.00     0.000 HD
ATOM     66   O  A00 X   4      34.307  39.505   5.6870  0.00  0.00     0.000 OA
ATOM     67   S  A00 X   4      34.181  38.819   6.9350  0.00  0.00     0.000 S
ATOM     68   O  A00 X   4      33.269  39.408   7.8720  0.00  0.00     0.000 OA
ATOM     69   O  A00 X   4      35.373  38.286   7.5300  0.00  0.00     0.000 OA
ENDBRANCH 59 66
BRANCH 62 70
ATOM     70   C  A00 X   4      30.152  34.191   5.6250  0.00  0.00     0.000 C
ATOM     71   O  A00 X   4      27.366  33.070   3.6030  0.00  0.00     0.000 OA
ATOM     72   O  A00 X   4      27.408  34.300   5.6100  0.00  0.00     0.000 OA
ATOM     73   O  A00 X   4      29.444  33.725   4.4650  0.00  0.00     0.000 O
ATOM     74   O  A00 X   4      27.992  35.397   3.5140  0.00  0.00     0.000 OA
ATOM     75   S  A00 X   4      27.958  34.191   4.2770  0.00  0.00     0.000 S
ENDBRANCH 62 70
ENDBRANCH 57 61
ENDBRANCH 41 57
ENDBRANCH 40 44
ENDBRANCH 20 40
ENDBRANCH 19 23
ENDBRANCH 1 19
TORSDOF 14
ENDMDL
MODEL 12
REMARK VINA RESULT:      -5.8      3.668      8.482
ROOT
ATOM      1  C1  A00 X   1      30.778  32.879  12.8750  0.00  0.00     0.000 C
ATOM      2  C2  A00 X   1      29.943  33.627  13.9480  0.00  0.00     0.000 C
ATOM      3  C3  A00 X   1      28.399  33.681  13.7030  0.00  0.00     0.000 C
ATOM      4  C4  A00 X   1      27.936  33.316  12.2690  0.00  0.00     0.000 C
ATOM      5  C5  A00 X   1      29.050  33.500  11.2390  0.00  0.00     0.000 C
ATOM      6  O5  A00 X   1      30.081  32.571  11.6420  0.00  0.00     0.000 O
ATOM      7   O  A00 X   1      27.943  35.009  13.9500  0.00  0.00     0.000 O
ATOM      9  HD  A00 X   1      27.532  34.725  13.2420  0.00  0.00     0.000 HD
ATOM      9   O  A00 X   1      27.437  31.980  12.2060  0.00  0.00     0.000 O
ATOM     11  HD  A00 X   1      27.027  31.696  11.4980  0.00  0.00     0.000 HD
ENDROOT
BRANCH 2 11
ATOM     11   O  A00 X   1      30.195  32.995  15.2180  0.00  0.00     0.000 O
ATOM     12   O  A00 X   1      30.454  30.617  15.4250  0.00  0.00     0.000 OA
ATOM     13   O  A00 X   1      28.318  31.523  14.6950  0.00  0.00     0.000 OA
ATOM     14   O  A00 X   1      29.072  31.864  16.9250  0.00  0.00     0.000 OA
ATOM     15   S  A00 X   1      29.460  31.653  15.5570  0.00  0.00     0.000 S
ENDBRANCH 2 11
BRANCH 5 16
ATOM     16   C  A00 X   1      29.551  34.939  11.0770  0.00  0.00     0.000 C
ATOM     17   O  A00 X   1      28.876  35.843  11.5240  0.00  0.00     0.000 OA
ATOM     18   O  A00 X   1      30.601  35.206  10.5260  0.00  0.00     0.000 OA
ENDBRANCH 5 16
BRANCH 1 19
ATOM     19  O4  A00 X   2      32.055  33.511  12.6160  0.00  0.00     0.000 O
BRANCH 19 23
ATOM     20  C1  A00 X   2      33.926  30.049  10.9200  0.00  0.00     0.000 C
ATOM     21  C2  A00 X   2      33.918  30.173  12.4630  0.00  0.00     0.000 C
ATOM     22  C3  A00 X   2      32.865  31.202  12.9250  0.00  0.00     0.000 C
ATOM     23  C4  A00 X   2      33.080  32.557  12.2160  0.00  0.00     0.000 C
ATOM     24  C5  A00 X   2      33.087  32.296  10.6850  0.00  0.00     0.000 C
ATOM     25  O5  A00 X   2      34.164  31.374  10.3730  0.00  0.00     0.000 O
ATOM     26   O  A00 X   2      32.848  31.230  14.3630  0.00  0.00     0.000 O
ATOM     28  HD  A00 X   2      33.708  31.322  14.4210  0.00  0.00     0.000 HD
BRANCH 21 30
ATOM     28   N  A00 X   2      35.234  29.527  12.4850  0.00  0.00     0.000 N
ATOM     30  HD  A00 X   2      34.923  29.491  13.2930  0.00  0.00     0.000 HD
ATOM     30   O  A00 X   2      35.404  28.291  14.4600  0.00  0.00     0.000 OA
ATOM     31   S  A00 X   2      36.007  29.428  13.8600  0.00  0.00     0.000 S
ATOM     32   O  A00 X   2      37.372  29.253  13.4700  0.00  0.00     0.000 OA
ATOM     33   O  A00 X   2      35.839  30.683  14.5310  0.00  0.00     0.000 OA
ENDBRANCH 21 30
BRANCH 24 34
ATOM     34   C  A00 X   2      33.056  33.520   9.7390  0.00  0.00     0.000 C
ATOM     35   O  A00 X   2      35.685  36.034   9.5700  0.00  0.00     0.000 OA
ATOM     36   O  A00 X   2      34.028  34.509  10.1340  0.00  0.00     0.000 O
ATOM     37   O  A00 X   2      36.050  33.717   9.2670  0.00  0.00     0.000 OA
ATOM     38   S  A00 X   2      35.148  34.810   9.0720  0.00  0.00     0.000 S
ATOM     39   O  A00 X   2      34.488  34.908   7.8040  0.00  0.00     0.000 OA
ENDBRANCH 24 34
BRANCH 20 40
ATOM     40  O4  A00 X   3      32.609  29.610  10.5590  0.00  0.00     0.000 O
BRANCH 40 44
ATOM     41  C1  A00 X   3      29.511  29.916   8.7060  0.00  0.00     0.000 C
ATOM     42  C2  A00 X   3      29.847  28.762   9.6750  0.00  0.00     0.000 C
ATOM     43  C3  A00 X   3      31.230  28.145   9.3450  0.00  0.00     0.000 C
ATOM     44  C4  A00 X   3      32.359  29.159   9.2100  0.00  0.00     0.000 C
ATOM     45  C5  A00 X   3      31.949  30.283   8.2180  0.00  0.00     0.000 C
ATOM     46  O5  A00 X   3      30.634  30.828   8.5600  0.00  0.00     0.000 O
ATOM     47   O  A00 X   3      31.608  27.011  10.1230  0.00  0.00     0.000 O
ATOM     49  HD  A00 X   3      32.387  27.388  10.0900  0.00  0.00     0.000 HD
BRANCH 42 49
ATOM     49   O  A00 X   3      29.817  29.309  11.0110  0.00  0.00     0.000 O
ATOM     50   O  A00 X   3      30.127  28.472  13.2330  0.00  0.00     0.000 OA
ATOM     51   O  A00 X   3      28.892  27.177  11.6880  0.00  0.00     0.000 OA
ATOM     52   O  A00 X   3      27.963  29.213  12.4490  0.00  0.00     0.000 OA
ATOM     53   S  A00 X   3      29.166  28.506  12.1750  0.00  0.00     0.000 S
ENDBRANCH 42 49
BRANCH 45 54
ATOM     54   C  A00 X   3      32.048  29.817   6.7600  0.00  0.00     0.000 C
ATOM     55   O  A00 X   3      32.062  28.634   6.4880  0.00  0.00     0.000 OA
ATOM     56   O  A00 X   3      32.116  30.627   5.8480  0.00  0.00     0.000 OA
ENDBRANCH 45 54
BRANCH 41 57
ATOM     57  O4  A00 X   4      28.987  29.425   7.4520  0.00  0.00     0.000 O
BRANCH 57 61
ATOM     58  C1  A00 X   4      26.336  31.126   4.4990  0.00  0.00     0.000 C
ATOM     59  C2  A00 X   4      27.709  31.802   4.7400  0.00  0.00     0.000 C
ATOM     60  C3  A00 X   4      28.697  30.922   5.5320  0.00  0.00     0.000 C
ATOM     61  C4  A00 X   4      28.040  30.311   6.7880  0.00  0.00     0.000 C
ATOM     62  C5  A00 X   4      26.812  29.508   6.2920  0.00  0.00     0.000 C
ATOM     63  O5  A00 X   4      25.869  30.416   5.6690  0.00  0.00     0.000 O
BRANCH 59 66
ATOM     64   N  A00 X   4      28.664  32.921   4.6430  0.00  0.00     0.000 N
ATOM     66  HD  A00 X   4      28.869  33.336   5.3750  0.00  0.00     0.000 HD
ATOM     66   O  A00 X   4      26.940  34.163   3.5100  0.00  0.00     0.000 OA
ATOM     67   S  A00 X   4      28.365  34.082   3.5840  0.00  0.00     0.000 S
ATOM     68   O  A00 X   4      29.013  35.189   4.2250  0.00  0.00     0.000 OA
ATOM     69   O  A00 X   4      29.067  33.570   2.4420  0.00  0.00     0.000 OA
ENDBRANCH 59 66
BRANCH 62 70
ATOM     70   C  A00 X   4      26.078  28.723   7.4050  0.00  0.00     0.000 C
ATOM     71   O  A00 X   4      23.820  29.976   9.9430  0.00  0.00     0.000 OA
ATOM     72   O  A00 X   4      25.693  28.560  10.1190  0.00  0.00     0.000 OA
ATOM     73   O  A00 X   4      25.100  29.576   8.0220  0.00  0.00     0.000 O
ATOM     74   O  A00 X   4      26.020  30.950   9.7750  0.00  0.00     0.000 OA
ATOM     75   S  A00 X   4      25.196  29.802   9.5700  0.00  0.00     0.000 S
ENDBRANCH 62 70
ENDBRANCH 57 61
ENDBRANCH 41 57
ENDBRANCH 40 44
ENDBRANCH 20 40
ENDBRANCH 19 23
ENDBRANCH 1 19
TORSDOF 14
ENDMDL
MODEL 13
REMARK VINA RESULT:      -5.2     44.491     50.117
ROOT
ATOM      1  C1  A00 X   1      40.027  10.165  51.3900  0.00  0.00     0.000 C
ATOM      2  C2  A00 X   1      39.722  10.886  50.0500  0.00  0.00     0.000 C
ATOM      3  C3  A00 X   1      40.313  12.327  49.8950  0.00  0.00     0.000 C
ATOM      4  C4  A00 X   1      40.802  12.993  51.2060  0.00  0.00     0.000 C
ATOM      5  C5  A00 X   1      40.144  12.384  52.4440  0.00  0.00     0.000 C
ATOM      6  O5  A00 X   1      40.568  11.002  52.4420  0.00  0.00     0.000 O
ATOM      7   O  A00 X   1      39.303  13.180  49.3600  0.00  0.00     0.000 O
ATOM      9  HD  A00 X   1      39.715  13.627  49.9760  0.00  0.00     0.000 HD
ATOM      9   O  A00 X   1      42.223  12.920  51.3290  0.00  0.00     0.000 O
ATOM     11  HD  A00 X   1      42.635  13.367  51.9460  0.00  0.00     0.000 HD
ENDROOT
BRANCH 2 11
ATOM     11   O  A00 X   1      40.221  10.057  48.9820  0.00  0.00     0.000 O
ATOM     12   O  A00 X   1      40.351  10.845  46.7170  0.00  0.00     0.000 OA
ATOM     13   O  A00 X   1      38.173  10.625  47.7780  0.00  0.00     0.000 OA
ATOM     14   O  A00 X   1      39.456   8.693  47.2490  0.00  0.00     0.000 OA
ATOM     15   S  A00 X   1      39.493  10.089  47.5940  0.00  0.00     0.000 S
ENDBRANCH 2 11
BRANCH 5 16
ATOM     16   C  A00 X   1      38.624  12.559  52.5220  0.00  0.00     0.000 C
ATOM     17   O  A00 X   1      38.009  11.926  53.3550  0.00  0.00     0.000 OA
ATOM     18   O  A00 X   1      38.017  13.312  51.7870  0.00  0.00     0.000 OA
ENDBRANCH 5 16
BRANCH 1 19
ATOM     19  O4  A00 X   2      38.913   9.371  51.8660  0.00  0.00     0.000 O
BRANCH 19 23
ATOM     20  C1  A00 X   2      38.068   5.189  51.4740  0.00  0.00     0.000 C
ATOM     21  C2  A00 X   2      39.451   5.588  52.0410  0.00  0.00     0.000 C
ATOM     22  C3  A00 X   2      39.446   7.054  52.5220  0.00  0.00     0.000 C
ATOM     23  C4  A00 X   2      38.965   7.995  51.3940  0.00  0.00     0.000 C
ATOM     24  C5  A00 X   2      37.585   7.479  50.9020  0.00  0.00     0.000 C
ATOM     25  O5  A00 X   2      37.742   6.122  50.4100  0.00  0.00     0.000 O
ATOM     26   O  A00 X   2      40.727   7.354  53.1010  0.00  0.00     0.000 O
ATOM     28  HD  A00 X   2      41.163   7.046  52.4200  0.00  0.00     0.000 HD
BRANCH 21 30
ATOM     28   N  A00 X   2      40.011   4.408  51.3750  0.00  0.00     0.000 N
ATOM     30  HD  A00 X   2      40.604   4.679  51.9450  0.00  0.00     0.000 HD
ATOM     30   O  A00 X   2      41.815   3.642  52.6470  0.00  0.00     0.000 OA
ATOM     31   S  A00 X   2      41.580   4.214  51.3690  0.00  0.00     0.000 S
ATOM     32   O  A00 X   2      41.808   3.335  50.2630  0.00  0.00     0.000 OA
ATOM     33   O  A00 X   2      42.165   5.496  51.1140  0.00  0.00     0.000 OA
ENDBRANCH 21 30
BRANCH 24 34
ATOM     34   C  A00 X   2      36.779   8.376  49.9330  0.00  0.00     0.000 C
ATOM     35   O  A00 X   2      33.446   9.662  50.6370  0.00  0.00     0.000 OA
ATOM     36   O  A00 X   2      35.389   8.434  50.3080  0.00  0.00     0.000 O
ATOM     37   O  A00 X   2      35.319  10.005  52.0400  0.00  0.00     0.000 OA
ATOM     38   S  A00 X   2      34.857   9.863  50.6930  0.00  0.00     0.000 S
ATOM     39   O  A00 X   2      35.381  10.767  49.7130  0.00  0.00     0.000 OA
ENDBRANCH 24 34
BRANCH 20 40
ATOM     40  O4  A00 X   3      37.142   5.354  52.5570  0.00  0.00     0.000 O
BRANCH 40 44
ATOM     41  C1  A00 X   3      34.713   5.024  55.2250  0.00  0.00     0.000 C
ATOM     42  C2  A00 X   3      35.855   4.023  54.9460  0.00  0.00     0.000 C
ATOM     43  C3  A00 X   3      35.867   3.596  53.4560  0.00  0.00     0.000 C
ATOM     44  C4  A00 X   3      35.832   4.753  52.4650  0.00  0.00     0.000 C
ATOM     45  C5  A00 X   3      34.656   5.711  52.8070  0.00  0.00     0.000 C
ATOM     46  O5  A00 X   3      34.678   6.079  54.2240  0.00  0.00     0.000 O
ATOM     47   O  A00 X   3      36.829   2.605  53.1000  0.00  0.00     0.000 O
ATOM     49  HD  A00 X   3      36.901   3.091  52.3870  0.00  0.00     0.000 HD
BRANCH 42 49
ATOM     49   O  A00 X   3      37.089   4.675  55.3190  0.00  0.00     0.000 O
ATOM     50   O  A00 X   3      39.421   4.140  55.2480  0.00  0.00     0.000 OA
ATOM     51   O  A00 X   3      37.886   2.468  55.9090  0.00  0.00     0.000 OA
ATOM     52   O  A00 X   3      38.225   4.316  57.3420  0.00  0.00     0.000 OA
ATOM     53   S  A00 X   3      38.233   3.864  55.9940  0.00  0.00     0.000 S
ENDBRANCH 42 49
BRANCH 45 54
ATOM     54   C  A00 X   3      33.308   5.139  52.3530  0.00  0.00     0.000 C
ATOM     55   O  A00 X   3      32.313   5.835  52.3410  0.00  0.00     0.000 OA
ATOM     56   O  A00 X   3      33.210   3.975  51.9960  0.00  0.00     0.000 OA
ENDBRANCH 45 54
BRANCH 41 57
ATOM     57  O4  A00 X   4      33.447   4.351  55.4130  0.00  0.00     0.000 O
BRANCH 57 61
ATOM     58  C1  A00 X   4      29.933   5.320  57.7260  0.00  0.00     0.000 C
ATOM     59  C2  A00 X   4      30.016   5.816  56.2610  0.00  0.00     0.000 C
ATOM     60  C3  A00 X   4      31.120   5.120  55.4380  0.00  0.00     0.000 C
ATOM     61  C4  A00 X   4      32.465   5.090  56.1940  0.00  0.00     0.000 C
ATOM     62  C5  A00 X   4      32.194   4.366  57.5370  0.00  0.00     0.000 C
ATOM     63  O5  A00 X   4      31.243   5.139  58.3120  0.00  0.00     0.000 O
BRANCH 59 66
ATOM     64   N  A00 X   4      29.924   6.968  55.3460  0.00  0.00     0.000 N
ATOM     66  HD  A00 X   4      30.541   7.574  55.4020  0.00  0.00     0.000 HD
ATOM     66   O  A00 X   4      28.013   7.697  56.6170  0.00  0.00     0.000 OA
ATOM     67   S  A00 X   4      28.551   7.788  55.2960  0.00  0.00     0.000 S
ATOM     68   O  A00 X   4      29.037   9.082  54.9150  0.00  0.00     0.000 OA
ATOM     69   O  A00 X   4      27.873   7.081  54.2460  0.00  0.00     0.000 OA
ENDBRANCH 59 66
BRANCH 62 70
ATOM     70   C  A00 X   4      33.459   4.138  58.3980  0.00  0.00     0.000 C
ATOM     71   O  A00 X   4      35.540   1.183  58.6210  0.00  0.00     0.000 OA
ATOM     72   O  A00 X   4      34.578   2.513  60.3090  0.00  0.00     0.000 OA
ATOM     73   O  A00 X   4      34.099   2.919  57.9870  0.00  0.00     0.000 O
ATOM     74   O  A00 X   4      33.177   0.964  59.0530  0.00  0.00     0.000 OA
ATOM     75   S  A00 X   4      34.328   1.809  59.0710  0.00  0.00     0.000 S
ENDBRANCH 62 70
ENDBRANCH 57 61
ENDBRANCH 41 57
ENDBRANCH 40 44
ENDBRANCH 20 40
ENDBRANCH 19 23
ENDBRANCH 1 19
TORSDOF 14
ENDMDL
MODEL 14
REMARK VINA RESULT:      -5.2      3.649      5.348
ROOT
ATOM      1  C1  A00 X   1      31.531  36.078  11.2350  0.00  0.00     0.000 C
ATOM      2  C2  A00 X   1      30.387  37.125  11.2000  0.00  0.00     0.000 C
ATOM      3  C3  A00 X   1      30.805  38.588  10.8370  0.00  0.00     0.000 C
ATOM      4  C4  A00 X   1      32.324  38.889  10.9200  0.00  0.00     0.000 C
ATOM      5  C5  A00 X   1      33.058  37.910  11.8360  0.00  0.00     0.000 C
ATOM      6  O5  A00 X   1      32.876  36.618  11.2140  0.00  0.00     0.000 O
ATOM      7   O  A00 X   1      30.165  39.485  11.7430  0.00  0.00     0.000 O
ATOM      9  HD  A00 X   1      30.977  39.767  11.6340  0.00  0.00     0.000 HD
ATOM      9   O  A00 X   1      32.928  38.884   9.6260  0.00  0.00     0.000 O
ATOM     11  HD  A00 X   1      33.739  39.167   9.5180  0.00  0.00     0.000 HD
ENDROOT
BRANCH 2 11
ATOM     11   O  A00 X   1      29.404  36.669  10.2500  0.00  0.00     0.000 O
ATOM     12   O  A00 X   1      27.561  38.049   9.5670  0.00  0.00     0.000 OA
ATOM     13   O  A00 X   1      27.721  37.339  11.8880  0.00  0.00     0.000 OA
ATOM     14   O  A00 X   1      27.256  35.758  10.1740  0.00  0.00     0.000 OA
ATOM     15   S  A00 X   1      27.894  37.004  10.5020  0.00  0.00     0.000 S
ENDBRANCH 2 11
BRANCH 5 16
ATOM     16   C  A00 X   1      32.624  37.949  13.3050  0.00  0.00     0.000 C
ATOM     17   O  A00 X   1      32.016  38.920  13.7060  0.00  0.00     0.000 OA
ATOM     18   O  A00 X   1      32.861  37.043  14.0790  0.00  0.00     0.000 OA
ENDBRANCH 5 16
BRANCH 1 19
ATOM     19  O4  A00 X   2      31.370  35.106  12.2970  0.00  0.00     0.000 O
BRANCH 19 23
ATOM     20  C1  A00 X   2      28.239  32.237  12.8790  0.00  0.00     0.000 C
ATOM     21  C2  A00 X   2      28.666  32.544  11.4230  0.00  0.00     0.000 C
ATOM     22  C3  A00 X   2      30.046  33.233  11.3880  0.00  0.00     0.000 C
ATOM     23  C4  A00 X   2      30.052  34.486  12.2920  0.00  0.00     0.000 C
ATOM     24  C5  A00 X   2      29.591  34.051  13.7100  0.00  0.00     0.000 C
ATOM     25  O5  A00 X   2      28.256  33.489  13.6150  0.00  0.00     0.000 O
ATOM     26   O  A00 X   2      30.427  33.433  10.0160  0.00  0.00     0.000 O
ATOM     28  HD  A00 X   2      29.672  33.801   9.8080  0.00  0.00     0.000 HD
BRANCH 21 30
ATOM     28   N  A00 X   2      27.897  31.343  11.0830  0.00  0.00     0.000 N
ATOM     30  HD  A00 X   2      27.743  31.924  10.4590  0.00  0.00     0.000 HD
ATOM     30   O  A00 X   2      27.257  31.500   8.8410  0.00  0.00     0.000 OA
ATOM     31   S  A00 X   2      26.649  31.487  10.1240  0.00  0.00     0.000 S
ATOM     32   O  A00 X   2      25.866  30.325  10.4110  0.00  0.00     0.000 OA
ATOM     33   O  A00 X   2      25.945  32.671  10.5210  0.00  0.00     0.000 OA
ENDBRANCH 21 30
BRANCH 24 34
ATOM     34   C  A00 X   2      29.728  35.073  14.8630  0.00  0.00     0.000 C
ATOM     35   O  A00 X   2      27.146  35.701  17.3520  0.00  0.00     0.000 OA
ATOM     36   O  A00 X   2      28.449  35.361  15.4610  0.00  0.00     0.000 O
ATOM     37   O  A00 X   2      28.067  33.567  16.9120  0.00  0.00     0.000 OA
ATOM     38   S  A00 X   2      28.316  34.975  16.9790  0.00  0.00     0.000 S
ATOM     39   O  A00 X   2      29.525  35.406  17.6140  0.00  0.00     0.000 OA
ENDBRANCH 24 34
BRANCH 20 40
ATOM     40  O4  A00 X   3      29.247  31.360  13.4010  0.00  0.00     0.000 O
BRANCH 40 44
ATOM     41  C1  A00 X   3      30.885  28.426  14.7560  0.00  0.00     0.000 C
ATOM     42  C2  A00 X   3      29.574  28.405  13.9410  0.00  0.00     0.000 C
ATOM     43  C3  A00 X   3      28.547  29.414  14.5150  0.00  0.00     0.000 C
ATOM     44  C4  A00 X   3      29.092  30.819  14.7310  0.00  0.00     0.000 C
ATOM     45  C5  A00 X   3      30.406  30.759  15.5610  0.00  0.00     0.000 C
ATOM     46  O5  A00 X   3      31.341  29.787  14.9890  0.00  0.00     0.000 O
ATOM     47   O  A00 X   3      27.263  29.418  13.8930  0.00  0.00     0.000 O
ATOM     49  HD  A00 X   3      27.335  30.273  14.0080  0.00  0.00     0.000 HD
BRANCH 42 49
ATOM     49   O  A00 X   3      29.919  28.723  12.5750  0.00  0.00     0.000 O
ATOM     50   O  A00 X   3      28.827  28.636  10.4460  0.00  0.00     0.000 OA
ATOM     51   O  A00 X   3      28.528  26.842  11.9560  0.00  0.00     0.000 OA
ATOM     52   O  A00 X   3      30.661  27.157  10.9900  0.00  0.00     0.000 OA
ATOM     53   S  A00 X   3      29.462  27.795  11.4120  0.00  0.00     0.000 S
ENDBRANCH 42 49
BRANCH 45 54
ATOM     54   C  A00 X   3      30.126  30.523  17.0500  0.00  0.00     0.000 C
ATOM     55   O  A00 X   3      29.067  30.054  17.4140  0.00  0.00     0.000 OA
ATOM     56   O  A00 X   3      30.962  30.802  17.8950  0.00  0.00     0.000 OA
ENDBRANCH 45 54
BRANCH 41 57
ATOM     57  O4  A00 X   4      30.781  27.628  15.9560  0.00  0.00     0.000 O
BRANCH 57 61
ATOM     58  C1  A00 X   4      33.479  24.574  17.3820  0.00  0.00     0.000 C
ATOM     59  C2  A00 X   4      33.190  25.793  18.2940  0.00  0.00     0.000 C
ATOM     60  C3  A00 X   4      31.963  26.615  17.8500  0.00  0.00     0.000 C
ATOM     61  C4  A00 X   4      31.997  26.925  16.3380  0.00  0.00     0.000 C
ATOM     62  C5  A00 X   4      32.075  25.557  15.6150  0.00  0.00     0.000 C
ATOM     63  O5  A00 X   4      33.312  24.893  15.9820  0.00  0.00     0.000 O
BRANCH 59 66
ATOM     64   N  A00 X   4      33.096  25.991  19.7520  0.00  0.00     0.000 N
ATOM     66  HD  A00 X   4      33.025  26.804  20.0410  0.00  0.00     0.000 HD
ATOM     66   O  A00 X   4      35.406  25.324  19.8910  0.00  0.00     0.000 OA
ATOM     67   S  A00 X   4      34.214  25.323  20.6800  0.00  0.00     0.000 S
ATOM     68   O  A00 X   4      34.208  26.234  21.7880  0.00  0.00     0.000 OA
ATOM     69   O  A00 X   4      33.594  24.059  20.9550  0.00  0.00     0.000 OA
ENDBRANCH 59 66
BRANCH 62 70
ATOM     70   C  A00 X   4      32.008  25.653  14.0720  0.00  0.00     0.000 C
ATOM     71   O  A00 X   4      29.828  23.881  11.7890  0.00  0.00     0.000 OA
ATOM     72   O  A00 X   4      32.161  24.194  11.7500  0.00  0.00     0.000 OA
ATOM     73   O  A00 X   4      30.837  24.965  13.6040  0.00  0.00     0.000 O
ATOM     74   O  A00 X   4      31.187  22.599  13.3130  0.00  0.00     0.000 OA
ATOM     75   S  A00 X   4      31.033  23.805  12.5660  0.00  0.00     0.000 S
ENDBRANCH 62 70
ENDBRANCH 57 61
ENDBRANCH 41 57
ENDBRANCH 40 44
ENDBRANCH 20 40
ENDBRANCH 19 23
ENDBRANCH 1 19
TORSDOF 14
ENDMDL
MODEL 15
REMARK VINA RESULT:      -5.1      5.829     10.038
ROOT
ATOM      1  C1  A00 X   1      28.507  35.167  15.7230  0.00  0.00     0.000 C
ATOM      2  C2  A00 X   1      29.201  34.131  16.6470  0.00  0.00     0.000 C
ATOM      3  C3  A00 X   1      29.027  34.357  18.1850  0.00  0.00     0.000 C
ATOM      4  C4  A00 X   1      28.512  35.759  18.6010  0.00  0.00     0.000 C
ATOM      5  C5  A00 X   1      28.781  36.814  17.5290  0.00  0.00     0.000 C
ATOM      6  O5  A00 X   1      28.029  36.368  16.3780  0.00  0.00     0.000 O
ATOM      7   O  A00 X   1      30.293  34.187  18.8190  0.00  0.00     0.000 O
ATOM      9  HD  A00 X   1      29.911  34.870  19.1900  0.00  0.00     0.000 HD
ATOM      9   O  A00 X   1      27.119  35.731  18.9120  0.00  0.00     0.000 O
ATOM     11  HD  A00 X   1      26.737  36.414  19.2830  0.00  0.00     0.000 HD
ENDROOT
BRANCH 2 11
ATOM     11   O  A00 X   1      28.692  32.827  16.3040  0.00  0.00     0.000 O
ATOM     12   O  A00 X   1      29.518  30.827  17.3450  0.00  0.00     0.000 OA
ATOM     13   O  A00 X   1      31.020  32.164  15.9770  0.00  0.00     0.000 OA
ATOM     14   O  A00 X   1      29.216  30.978  14.9790  0.00  0.00     0.000 OA
ATOM     15   S  A00 X   1      29.698  31.633  16.1640  0.00  0.00     0.000 S
ENDBRANCH 2 11
BRANCH 5 16
ATOM     16   C  A00 X   1      30.262  37.072  17.2310  0.00  0.00     0.000 C
ATOM     17   O  A00 X   1      30.552  37.725  16.2500  0.00  0.00     0.000 OA
ATOM     18   O  A00 X   1      31.152  36.653  17.9440  0.00  0.00     0.000 OA
ENDBRANCH 5 16
BRANCH 1 19
ATOM     19  O4  A00 X   2      29.291  35.483  14.5460  0.00  0.00     0.000 O
BRANCH 19 23
ATOM     20  C1  A00 X   2      28.128  36.668  10.5960  0.00  0.00     0.000 C
ATOM     21  C2  A00 X   2      28.037  37.732  11.7170  0.00  0.00     0.000 C
ATOM     22  C3  A00 X   2      28.874  37.310  12.9430  0.00  0.00     0.000 C
ATOM     23  C4  A00 X   2      28.466  35.899  13.4210  0.00  0.00     0.000 C
ATOM     24  C5  A00 X   2      28.581  34.935  12.2080  0.00  0.00     0.000 C
ATOM     25  O5  A00 X   2      27.695  35.400  11.1560  0.00  0.00     0.000 O
ATOM     26   O  A00 X   2      28.813  38.359  13.9250  0.00  0.00     0.000 O
ATOM     28  HD  A00 X   2      27.949  38.408  13.8920  0.00  0.00     0.000 HD
BRANCH 21 30
ATOM     28   N  A00 X   2      28.567  39.058  11.3870  0.00  0.00     0.000 N
ATOM     30  HD  A00 X   2      27.707  39.103  11.3000  0.00  0.00     0.000 HD
ATOM     30   O  A00 X   2      26.797  40.583  11.4420  0.00  0.00     0.000 OA
ATOM     31   S  A00 X   2      27.692  40.023  10.4910  0.00  0.00     0.000 S
ATOM     32   O  A00 X   2      28.646  40.940   9.9480  0.00  0.00     0.000 OA
ATOM     33   O  A00 X   2      27.117  39.228   9.4480  0.00  0.00     0.000 OA
ENDBRANCH 21 30
BRANCH 24 34
ATOM     34   C  A00 X   2      28.449  33.417  12.4730  0.00  0.00     0.000 C
ATOM     35   O  A00 X   2      26.449  31.157  10.4350  0.00  0.00     0.000 OA
ATOM     36   O  A00 X   2      27.339  32.854  11.7450  0.00  0.00     0.000 O
ATOM     37   O  A00 X   2      28.161  32.545   9.5770  0.00  0.00     0.000 OA
ATOM     38   S  A00 X   2      27.719  31.755  10.6860  0.00  0.00     0.000 S
ATOM     39   O  A00 X   2      28.679  30.900  11.3170  0.00  0.00     0.000 OA
ENDBRANCH 24 34
BRANCH 20 40
ATOM     40  O4  A00 X   3      29.517  36.589  10.2470  0.00  0.00     0.000 O
BRANCH 40 44
ATOM     41  C1  A00 X   3      32.876  36.100   8.9800  0.00  0.00     0.000 C
ATOM     42  C2  A00 X   3      32.146  37.460   9.0370  0.00  0.00     0.000 C
ATOM     43  C3  A00 X   3      30.738  37.361   8.3940  0.00  0.00     0.000 C
ATOM     44  C4  A00 X   3      29.888  36.205   8.9060  0.00  0.00     0.000 C
ATOM     45  C5  A00 X   3      30.688  34.875   8.8120  0.00  0.00     0.000 C
ATOM     46  O5  A00 X   3      32.012  35.017   9.4210  0.00  0.00     0.000 O
ATOM     47   O  A00 X   3      30.004  38.581   8.3130  0.00  0.00     0.000 O
ATOM     49  HD  A00 X   3      29.340  38.064   8.5160  0.00  0.00     0.000 HD
BRANCH 42 49
ATOM     49   O  A00 X   3      32.066  37.839  10.4280  0.00  0.00     0.000 O
ATOM     50   O  A00 X   3      31.267  39.726  11.6660  0.00  0.00     0.000 OA
ATOM     51   O  A00 X   3      32.471  40.100   9.6670  0.00  0.00     0.000 OA
ATOM     52   O  A00 X   3      33.625  39.209  11.5270  0.00  0.00     0.000 OA
ATOM     53   S  A00 X   3      32.371  39.302  10.8630  0.00  0.00     0.000 S
ENDBRANCH 42 49
BRANCH 45 54
ATOM     54   C  A00 X   3      30.739  34.343   7.3750  0.00  0.00     0.000 C
ATOM     55   O  A00 X   3      30.960  33.169   7.1570  0.00  0.00     0.000 OA
ATOM     56   O  A00 X   3      30.559  35.089   6.4250  0.00  0.00     0.000 OA
ENDBRANCH 45 54
BRANCH 41 57
ATOM     57  O4  A00 X   4      33.487  35.876   7.6900  0.00  0.00     0.000 O
BRANCH 57 61
ATOM     58  C1  A00 X   4      36.614  33.159   6.4740  0.00  0.00     0.000 C
ATOM     59  C2  A00 X   4      35.157  32.851   6.0480  0.00  0.00     0.000 C
ATOM     60  C3  A00 X   4      34.200  34.048   6.2210  0.00  0.00     0.000 C
ATOM     61  C4  A00 X   4      34.349  34.705   7.6090  0.00  0.00     0.000 C
ATOM     62  C5  A00 X   4      35.835  35.123   7.7360  0.00  0.00     0.000 C
ATOM     63  O5  A00 X   4      36.669  33.938   7.6910  0.00  0.00     0.000 O
BRANCH 59 66
ATOM     64   N  A00 X   4      34.474  31.773   6.7860  0.00  0.00     0.000 N
ATOM     66  HD  A00 X   4      34.688  31.660   7.6180  0.00  0.00     0.000 HD
ATOM     66   O  A00 X   4      35.723  30.204   5.4520  0.00  0.00     0.000 OA
ATOM     67   S  A00 X   4      34.484  30.301   6.1590  0.00  0.00     0.000 S
ATOM     68   O  A00 X   4      34.392  29.511   7.3530  0.00  0.00     0.000 OA
ATOM     69   O  A00 X   4      33.275  30.346   5.3880  0.00  0.00     0.000 OA
ENDBRANCH 59 66
BRANCH 62 70
ATOM     70   C  A00 X   4      36.163  35.906   9.0300  0.00  0.00     0.000 C
ATOM     71   O  A00 X   4      36.747  34.622  12.3640  0.00  0.00     0.000 OA
ATOM     72   O  A00 X   4      35.350  36.362  11.6130  0.00  0.00     0.000 OA
ATOM     73   O  A00 X   4      36.558  34.982  10.0570  0.00  0.00     0.000 O
ATOM     74   O  A00 X   4      34.687  34.045  11.2520  0.00  0.00     0.000 OA
ATOM     75   S  A00 X   4      35.748  34.989  11.4000  0.00  0.00     0.000 S
ENDBRANCH 62 70
ENDBRANCH 57 61
ENDBRANCH 41 57
ENDBRANCH 40 44
ENDBRANCH 20 40
ENDBRANCH 19 23
ENDBRANCH 1 19
TORSDOF 14
ENDMDL
MODEL 16
REMARK VINA RESULT:      -4.4     44.058     49.281
ROOT
ATOM      1  C1  A00 X   1      38.142  11.932  51.1490  0.00  0.00     0.000 C
ATOM      2  C2  A00 X   1      37.419  13.216  51.6370  0.00  0.00     0.000 C
ATOM      3  C3  A00 X   1      38.246  14.542  51.5620  0.00  0.00     0.000 C
ATOM      4  C4  A00 X   1      39.774  14.366  51.3660  0.00  0.00     0.000 C
ATOM      5  C5  A00 X   1      40.260  12.990  51.8180  0.00  0.00     0.000 C
ATOM      6  O5  A00 X   1      39.573  12.056  50.9540  0.00  0.00     0.000 O
ATOM      7   O  A00 X   1      38.074  15.258  52.7830  0.00  0.00     0.000 O
ATOM      9  HD  A00 X   1      38.909  15.322  52.5650  0.00  0.00     0.000 HD
ATOM      9   O  A00 X   1      40.154  14.591  50.0080  0.00  0.00     0.000 O
ATOM     11  HD  A00 X   1      40.990  14.654  49.7900  0.00  0.00     0.000 HD
ENDROOT
BRANCH 2 11
ATOM     11   O  A00 X   1      36.218  13.366  50.8550  0.00  0.00     0.000 O
ATOM     12   O  A00 X   1      34.855  15.339  50.9880  0.00  0.00     0.000 OA
ATOM     13   O  A00 X   1      35.096  13.924  52.9520  0.00  0.00     0.000 OA
ATOM     14   O  A00 X   1      33.901  13.149  51.0470  0.00  0.00     0.000 OA
ATOM     15   S  A00 X   1      34.953  14.005  51.5240  0.00  0.00     0.000 S
ENDBRANCH 2 11
BRANCH 5 16
ATOM     16   C  A00 X   1      40.074  12.695  53.3100  0.00  0.00     0.000 C
ATOM     17   O  A00 X   1      40.216  11.554  53.6990  0.00  0.00     0.000 OA
ATOM     18   O  A00 X   1      39.796  13.561  54.1160  0.00  0.00     0.000 OA
ENDBRANCH 5 16
BRANCH 1 19
ATOM     19  O4  A00 X   2      37.817  10.767  51.9450  0.00  0.00     0.000 O
BRANCH 19 23
ATOM     20  C1  A00 X   2      37.367   6.644  50.8640  0.00  0.00     0.000 C
ATOM     21  C2  A00 X   2      38.805   7.173  51.0810  0.00  0.00     0.000 C
ATOM     22  C3  A00 X   2      38.790   8.501  51.8660  0.00  0.00     0.000 C
ATOM     23  C4  A00 X   2      37.869   9.532  51.1750  0.00  0.00     0.000 C
ATOM     24  C5  A00 X   2      36.471   8.877  51.0000  0.00  0.00     0.000 C
ATOM     25  O5  A00 X   2      36.613   7.684  50.1860  0.00  0.00     0.000 O
ATOM     26   O  A00 X   2      40.147   8.914  52.1010  0.00  0.00     0.000 O
ATOM     28  HD  A00 X   2      40.372   8.819  51.2700  0.00  0.00     0.000 HD
BRANCH 21 30
ATOM     28   N  A00 X   2      39.902   6.664  51.9100  0.00  0.00     0.000 N
ATOM     30  HD  A00 X   2      39.960   6.264  51.1440  0.00  0.00     0.000 HD
ATOM     30   O  A00 X   2      41.441   5.603  50.5090  0.00  0.00     0.000 OA
ATOM     31   S  A00 X   2      40.537   5.262  51.5500  0.00  0.00     0.000 S
ATOM     32   O  A00 X   2      41.153   4.845  52.7720  0.00  0.00     0.000 OA
ATOM     33   O  A00 X   2      39.458   4.383  51.2110  0.00  0.00     0.000 OA
ENDBRANCH 21 30
BRANCH 24 34
ATOM     34   C  A00 X   2      35.301   9.778  50.5410  0.00  0.00     0.000 C
ATOM     35   O  A00 X   2      34.832  10.928  47.1180  0.00  0.00     0.000 OA
ATOM     36   O  A00 X   2      35.562  10.355  49.2450  0.00  0.00     0.000 O
ATOM     37   O  A00 X   2      35.027   8.653  47.7320  0.00  0.00     0.000 OA
ATOM     38   S  A00 X   2      34.549   9.947  48.1130  0.00  0.00     0.000 S
ATOM     39   O  A00 X   2      33.242  10.028  48.6910  0.00  0.00     0.000 OA
ENDBRANCH 24 34
BRANCH 20 40
ATOM     40  O4  A00 X   3      36.827   6.440  52.1780  0.00  0.00     0.000 O
BRANCH 40 44
ATOM     41  C1  A00 X   3      34.650   6.169  55.0610  0.00  0.00     0.000 C
ATOM     42  C2  A00 X   3      36.025   5.479  54.9280  0.00  0.00     0.000 C
ATOM     43  C3  A00 X   3      36.128   4.699  53.5920  0.00  0.00     0.000 C
ATOM     44  C4  A00 X   3      35.742   5.504  52.3580  0.00  0.00     0.000 C
ATOM     45  C5  A00 X   3      34.349   6.162  52.5660  0.00  0.00     0.000 C
ATOM     46  O5  A00 X   3      34.294   6.878  53.8420  0.00  0.00     0.000 O
ATOM     47   O  A00 X   3      37.325   3.948  53.4000  0.00  0.00     0.000 O
ATOM     49  HD  A00 X   3      37.239   4.233  52.5860  0.00  0.00     0.000 HD
BRANCH 42 49
ATOM     49   O  A00 X   3      37.029   6.514  55.0140  0.00  0.00     0.000 O
ATOM     50   O  A00 X   3      39.414   6.632  54.8520  0.00  0.00     0.000 OA
ATOM     51   O  A00 X   3      38.439   4.836  56.0400  0.00  0.00     0.000 OA
ATOM     52   O  A00 X   3      38.267   7.012  56.9460  0.00  0.00     0.000 OA
ATOM     53   S  A00 X   3      38.373   6.247  55.7520  0.00  0.00     0.000 S
ENDBRANCH 42 49
BRANCH 45 54
ATOM     54   C  A00 X   3      33.211   5.149  52.3930  0.00  0.00     0.000 C
ATOM     55   O  A00 X   3      32.058   5.520  52.3190  0.00  0.00     0.000 OA
ATOM     56   O  A00 X   3      33.444   3.952  52.3270  0.00  0.00     0.000 OA
ENDBRANCH 45 54
BRANCH 41 57
ATOM     57  O4  A00 X   4      33.635   5.252  55.5260  0.00  0.00     0.000 O
BRANCH 57 61
ATOM     58  C1  A00 X   4      29.841   5.913  57.4770  0.00  0.00     0.000 C
ATOM     59  C2  A00 X   4      29.850   5.609  55.9580  0.00  0.00     0.000 C
ATOM     60  C3  A00 X   4      31.193   5.044  55.4530  0.00  0.00     0.000 C
ATOM     61  C4  A00 X   4      32.392   5.873  55.9600  0.00  0.00     0.000 C
ATOM     62  C5  A00 X   4      32.302   5.869  57.5060  0.00  0.00     0.000 C
ATOM     63  O5  A00 X   4      31.075   6.526  57.9150  0.00  0.00     0.000 O
BRANCH 59 66
ATOM     64   N  A00 X   4      29.643   6.967  55.4250  0.00  0.00     0.000 N
ATOM     66  HD  A00 X   4      29.846   7.634  55.9380  0.00  0.00     0.000 HD
ATOM     66   O  A00 X   4      27.275   6.562  55.5910  0.00  0.00     0.000 OA
ATOM     67   S  A00 X   4      28.204   7.335  54.8290  0.00  0.00     0.000 S
ATOM     68   O  A00 X   4      28.178   8.748  55.0710  0.00  0.00     0.000 OA
ATOM     69   O  A00 X   4      28.402   6.978  53.4530  0.00  0.00     0.000 OA
ENDBRANCH 59 66
BRANCH 62 70
ATOM     70   C  A00 X   4      33.491   6.565  58.2110  0.00  0.00     0.000 C
ATOM     71   O  A00 X   4      34.055  10.103  58.7310  0.00  0.00     0.000 OA
ATOM     72   O  A00 X   4      35.480   8.431  57.8830  0.00  0.00     0.000 OA
ATOM     73   O  A00 X   4      33.180   7.954  58.4050  0.00  0.00     0.000 O
ATOM     74   O  A00 X   4      33.692   9.312  56.4820  0.00  0.00     0.000 OA
ATOM     75   S  A00 X   4      34.160   9.017  57.7970  0.00  0.00     0.000 S
ENDBRANCH 62 70
ENDBRANCH 57 61
ENDBRANCH 41 57
ENDBRANCH 40 44
ENDBRANCH 20 40
ENDBRANCH 19 23
ENDBRANCH 1 19
TORSDOF 14
ENDMDL
MODEL 17
REMARK VINA RESULT:      -4.2     40.448     45.786
ROOT
ATOM      1  C1  A00 X   1      35.738  15.097  53.5230  0.00  0.00     0.000 C
ATOM      2  C2  A00 X   1      34.828  16.321  53.8110  0.00  0.00     0.000 C
ATOM      3  C3  A00 X   1      35.273  17.246  54.9920  0.00  0.00     0.000 C
ATOM      4  C4  A00 X   1      36.332  16.643  55.9500  0.00  0.00     0.000 C
ATOM      5  C5  A00 X   1      36.349  15.115  55.9050  0.00  0.00     0.000 C
ATOM      6  O5  A00 X   1      36.718  14.792  54.5460  0.00  0.00     0.000 O
ATOM      7   O  A00 X   1      34.131  17.549  55.7900  0.00  0.00     0.000 O
ATOM      9  HD  A00 X   1      34.788  17.396  56.3320  0.00  0.00     0.000 HD
ATOM      9   O  A00 X   1      37.637  17.148  55.6680  0.00  0.00     0.000 O
ATOM     11  HD  A00 X   1      38.295  16.996  56.2100  0.00  0.00     0.000 HD
ENDROOT
BRANCH 2 11
ATOM     11   O  A00 X   1      34.753  17.105  52.6040  0.00  0.00     0.000 O
ATOM     12   O  A00 X   1      33.212  18.932  52.3700  0.00  0.00     0.000 OA
ATOM     13   O  A00 X   1      32.349  16.675  52.6470  0.00  0.00     0.000 OA
ATOM     14   O  A00 X   1      33.486  17.293  50.6520  0.00  0.00     0.000 OA
ATOM     15   S  A00 X   1      33.345  17.530  52.0630  0.00  0.00     0.000 S
ENDBRANCH 2 11
BRANCH 5 16
ATOM     16   C  A00 X   1      35.053  14.440  56.3660  0.00  0.00     0.000 C
ATOM     17   O  A00 X   1      34.258  15.089  57.0140  0.00  0.00     0.000 OA
ATOM     18   O  A00 X   1      34.790  13.284  56.0990  0.00  0.00     0.000 OA
ENDBRANCH 5 16
BRANCH 1 19
ATOM     19  O4  A00 X   2      34.988  13.918  53.1410  0.00  0.00     0.000 O
BRANCH 19 23
ATOM     20  C1  A00 X   2      36.037  10.581  50.6650  0.00  0.00     0.000 C
ATOM     21  C2  A00 X   2      36.548  10.575  52.1260  0.00  0.00     0.000 C
ATOM     22  C3  A00 X   2      35.755  11.578  52.9900  0.00  0.00     0.000 C
ATOM     23  C4  A00 X   2      35.779  12.985  52.3510  0.00  0.00     0.000 C
ATOM     24  C5  A00 X   2      35.264  12.852  50.8920  0.00  0.00     0.000 C
ATOM     25  O5  A00 X   2      36.135  11.943  50.1690  0.00  0.00     0.000 O
ATOM     26   O  A00 X   2      36.219  11.486  54.3470  0.00  0.00     0.000 O
ATOM     28  HD  A00 X   2      37.052  11.559  54.1210  0.00  0.00     0.000 HD
BRANCH 21 30
ATOM     28   N  A00 X   2      36.440   9.525  53.1430  0.00  0.00     0.000 N
ATOM     30  HD  A00 X   2      37.173   9.376  52.7060  0.00  0.00     0.000 HD
ATOM     30   O  A00 X   2      38.533   8.509  53.3650  0.00  0.00     0.000 OA
ATOM     31   S  A00 X   2      37.227   8.171  52.9220  0.00  0.00     0.000 S
ATOM     32   O  A00 X   2      36.531   7.236  53.7500  0.00  0.00     0.000 OA
ATOM     33   O  A00 X   2      37.081   7.818  51.5410  0.00  0.00     0.000 OA
ENDBRANCH 21 30
BRANCH 24 34
ATOM     34   C  A00 X   2      34.973  14.151  50.1040  0.00  0.00     0.000 C
ATOM     35   O  A00 X   2      36.111  14.774  46.7020  0.00  0.00     0.000 OA
ATOM     36   O  A00 X   2      35.828  14.265  48.9490  0.00  0.00     0.000 O
ATOM     37   O  A00 X   2      34.817  12.900  47.3410  0.00  0.00     0.000 OA
ATOM     38   S  A00 X   2      35.084  14.288  47.5640  0.00  0.00     0.000 S
ATOM     39   O  A00 X   2      33.961  15.163  47.7220  0.00  0.00     0.000 OA
ENDBRANCH 24 34
BRANCH 20 40
ATOM     40  O4  A00 X   3      34.657  10.195  50.7360  0.00  0.00     0.000 O
BRANCH 40 44
ATOM     41  C1  A00 X   3      31.139   9.478  50.2480  0.00  0.00     0.000 C
ATOM     42  C2  A00 X   3      32.109   8.606  51.0740  0.00  0.00     0.000 C
ATOM     43  C3  A00 X   3      33.387   8.275  50.2630  0.00  0.00     0.000 C
ATOM     44  C4  A00 X   3      34.065   9.483  49.6280  0.00  0.00     0.000 C
ATOM     45  C5  A00 X   3      33.029  10.305  48.8110  0.00  0.00     0.000 C
ATOM     46  O5  A00 X   3      31.835  10.586  49.6120  0.00  0.00     0.000 O
ATOM     47   O  A00 X   3      34.319   7.400  50.8970  0.00  0.00     0.000 O
ATOM     49  HD  A00 X   3      34.896   7.935  50.5340  0.00  0.00     0.000 HD
BRANCH 42 49
ATOM     49   O  A00 X   3      32.422   9.344  52.2760  0.00  0.00     0.000 O
ATOM     50   O  A00 X   3      33.765   8.990  54.2260  0.00  0.00     0.000 OA
ATOM     51   O  A00 X   3      32.475   7.195  53.3870  0.00  0.00     0.000 OA
ATOM     52   O  A00 X   3      31.350   9.040  54.3430  0.00  0.00     0.000 OA
ATOM     53   S  A00 X   3      32.514   8.612  53.6470  0.00  0.00     0.000 S
ENDBRANCH 42 49
BRANCH 45 54
ATOM     54   C  A00 X   3      32.711   9.642  47.4660  0.00  0.00     0.000 C
ATOM     55   O  A00 X   3      33.268   8.615  47.1360  0.00  0.00     0.000 OA
ATOM     56   O  A00 X   3      31.894  10.134  46.7030  0.00  0.00     0.000 OA
ENDBRANCH 45 54
BRANCH 41 57
ATOM     57  O4  A00 X   4      30.348   8.681  49.3370  0.00  0.00     0.000 O
BRANCH 57 61
ATOM     58  C1  A00 X   4      26.437   9.452  47.6810  0.00  0.00     0.000 C
ATOM     59  C2  A00 X   4      27.653   9.411  46.7220  0.00  0.00     0.000 C
ATOM     60  C3  A00 X   4      28.912   8.783  47.3530  0.00  0.00     0.000 C
ATOM     61  C4  A00 X   4      29.203   9.365  48.7530  0.00  0.00     0.000 C
ATOM     62  C5  A00 X   4      27.935   9.109  49.6040  0.00  0.00     0.000 C
ATOM     63  O5  A00 X   4      26.817   9.829  49.0240  0.00  0.00     0.000 O
BRANCH 59 66
ATOM     64   N  A00 X   4      28.350   9.729  45.4630  0.00  0.00     0.000 N
ATOM     66  HD  A00 X   4      28.959  10.344  45.4880  0.00  0.00     0.000 HD
ATOM     66   O  A00 X   4      26.294  10.714  44.6890  0.00  0.00     0.000 OA
ATOM     67   S  A00 X   4      27.468  10.080  44.1760  0.00  0.00     0.000 S
ATOM     68   O  A00 X   4      28.373  10.938  43.4690  0.00  0.00     0.000 OA
ATOM     69   O  A00 X   4      27.327   8.772  43.6020  0.00  0.00     0.000 OA
ENDBRANCH 59 66
BRANCH 62 70
ATOM     70   C  A00 X   4      28.073   9.528  51.0870  0.00  0.00     0.000 C
ATOM     71   O  A00 X   4      27.686  12.816  52.5530  0.00  0.00     0.000 OA
ATOM     72   O  A00 X   4      29.398  11.217  52.8000  0.00  0.00     0.000 OA
ATOM     73   O  A00 X   4      27.594  10.873  51.2470  0.00  0.00     0.000 O
ATOM     74   O  A00 X   4      29.268  12.535  50.7540  0.00  0.00     0.000 OA
ATOM     75   S  A00 X   4      28.577  11.935  51.8500  0.00  0.00     0.000 S
ENDBRANCH 62 70
ENDBRANCH 57 61
ENDBRANCH 41 57
ENDBRANCH 40 44
ENDBRANCH 20 40
ENDBRANCH 19 23
ENDBRANCH 1 19
TORSDOF 14
ENDMDL
MODEL 18
REMARK VINA RESULT:      -3.8     44.904     50.482
ROOT
ATOM      1  C1  A00 X   1      40.389   9.558  51.0270  0.00  0.00     0.000 C
ATOM      2  C2  A00 X   1      39.792  10.780  50.2810  0.00  0.00     0.000 C
ATOM      3  C3  A00 X   1      40.724  12.030  50.1520  0.00  0.00     0.000 C
ATOM      4  C4  A00 X   1      41.963  12.038  51.0830  0.00  0.00     0.000 C
ATOM      5  C5  A00 X   1      41.774  11.139  52.3040  0.00  0.00     0.000 C
ATOM      6  O5  A00 X   1      41.614   9.809  51.7600  0.00  0.00     0.000 O
ATOM      7   O  A00 X   1      39.970  13.197  50.4700  0.00  0.00     0.000 O
ATOM      9  HD  A00 X   1      40.749  13.288  50.8380  0.00  0.00     0.000 HD
ATOM      9   O  A00 X   1      43.146  11.655  50.3810  0.00  0.00     0.000 O
ATOM     11  HD  A00 X   1      43.925  11.746  50.7480  0.00  0.00     0.000 HD
ENDROOT
BRANCH 2 11
ATOM     11   O  A00 X   1      39.407  10.344  48.9620  0.00  0.00     0.000 O
ATOM     12   O  A00 X   1      40.028   8.187  48.1070  0.00  0.00     0.000 OA
ATOM     13   O  A00 X   1      41.765   9.814  48.6070  0.00  0.00     0.000 OA
ATOM     14   O  A00 X   1      40.264  10.172  46.7970  0.00  0.00     0.000 OA
ATOM     15   S  A00 X   1      40.449   9.565  48.0870  0.00  0.00     0.000 S
ENDBRANCH 2 11
BRANCH 5 16
ATOM     16   C  A00 X   1      40.640  11.556  53.2460  0.00  0.00     0.000 C
ATOM     17   O  A00 X   1      40.293  10.784  54.1160  0.00  0.00     0.000 OA
ATOM     18   O  A00 X   1      40.082  12.632  53.1580  0.00  0.00     0.000 OA
ENDBRANCH 5 16
BRANCH 1 19
ATOM     19  O4  A00 X   2      39.414   8.870  51.8480  0.00  0.00     0.000 O
BRANCH 19 23
ATOM     20  C1  A00 X   2      37.953   4.842  51.7570  0.00  0.00     0.000 C
ATOM     21  C2  A00 X   2      39.419   5.060  52.2030  0.00  0.00     0.000 C
ATOM     22  C3  A00 X   2      39.660   6.532  52.5990  0.00  0.00     0.000 C
ATOM     23  C4  A00 X   2      39.233   7.479  51.4540  0.00  0.00     0.000 C
ATOM     24  C5  A00 X   2      37.760   7.149  51.0880  0.00  0.00     0.000 C
ATOM     25  O5  A00 X   2      37.683   5.762  50.6660  0.00  0.00     0.000 O
ATOM     26   O  A00 X   2      41.011   6.669  53.0690  0.00  0.00     0.000 O
ATOM     28  HD  A00 X   2      41.346   6.268  52.3780  0.00  0.00     0.000 HD
BRANCH 21 30
ATOM     28   N  A00 X   2      40.044   4.509  53.4090  0.00  0.00     0.000 N
ATOM     30  HD  A00 X   2      40.188   3.941  52.7710  0.00  0.00     0.000 HD
ATOM     30   O  A00 X   2      41.520   2.819  52.7560  0.00  0.00     0.000 OA
ATOM     31   S  A00 X   2      40.308   2.952  53.4830  0.00  0.00     0.000 S
ATOM     32   O  A00 X   2      40.413   2.692  54.8850  0.00  0.00     0.000 OA
ATOM     33   O  A00 X   2      39.152   2.301  52.9420  0.00  0.00     0.000 OA
ENDBRANCH 21 30
BRANCH 24 34
ATOM     34   C  A00 X   2      37.019   8.108  50.1270  0.00  0.00     0.000 C
ATOM     35   O  A00 X   2      34.267  10.272  51.1260  0.00  0.00     0.000 OA
ATOM     36   O  A00 X   2      35.775   8.561  50.6980  0.00  0.00     0.000 O
ATOM     37   O  A00 X   2      36.395  10.281  52.1560  0.00  0.00     0.000 OA
ATOM     38   S  A00 X   2      35.670  10.112  50.9340  0.00  0.00     0.000 S
ATOM     39   O  A00 X   2      36.198  10.737  49.7580  0.00  0.00     0.000 OA
ENDBRANCH 24 34
BRANCH 20 40
ATOM     40  O4  A00 X   3      37.146   5.192  52.8910  0.00  0.00     0.000 O
BRANCH 40 44
ATOM     41  C1  A00 X   3      34.648   6.003  55.3850  0.00  0.00     0.000 C
ATOM     42  C2  A00 X   3      35.831   5.035  55.6070  0.00  0.00     0.000 C
ATOM     43  C3  A00 X   3      35.904   3.979  54.4740  0.00  0.00     0.000 C
ATOM     44  C4  A00 X   3      35.861   4.558  53.0650  0.00  0.00     0.000 C
ATOM     45  C5  A00 X   3      34.644   5.514  52.9190  0.00  0.00     0.000 C
ATOM     46  O5  A00 X   3      34.608   6.486  54.0140  0.00  0.00     0.000 O
ATOM     47   O  A00 X   3      36.909   2.978  54.6200  0.00  0.00     0.000 O
ATOM     49  HD  A00 X   3      36.986   3.090  53.7650  0.00  0.00     0.000 HD
BRANCH 42 49
ATOM     49   O  A00 X   3      37.030   5.839  55.6580  0.00  0.00     0.000 O
ATOM     50   O  A00 X   3      39.364   5.446  56.0150  0.00  0.00     0.000 OA
ATOM     51   O  A00 X   3      37.795   4.296  57.3590  0.00  0.00     0.000 OA
ATOM     52   O  A00 X   3      38.017   6.633  57.6350  0.00  0.00     0.000 OA
ATOM     53   S  A00 X   3      38.127   5.547  56.7230  0.00  0.00     0.000 S
ENDBRANCH 42 49
BRANCH 45 54
ATOM     54   C  A00 X   3      33.330   4.740  52.7580  0.00  0.00     0.000 C
ATOM     55   O  A00 X   3      32.337   5.289  52.3250  0.00  0.00     0.000 OA
ATOM     56   O  A00 X   3      33.258   3.559  53.0620  0.00  0.00     0.000 OA
ENDBRANCH 45 54
BRANCH 41 57
ATOM     57  O4  A00 X   4      33.400   5.434  55.8430  0.00  0.00     0.000 O
BRANCH 57 61
ATOM     58  C1  A00 X   4      29.749   7.160  57.3690  0.00  0.00     0.000 C
ATOM     59  C2  A00 X   4      30.096   7.363  55.8730  0.00  0.00     0.000 C
ATOM     60  C3  A00 X   4      31.207   6.420  55.3670  0.00  0.00     0.000 C
ATOM     61  C4  A00 X   4      32.420   6.398  56.3210  0.00  0.00     0.000 C
ATOM     62  C5  A00 X   4      31.876   5.968  57.7070  0.00  0.00     0.000 C
ATOM     63  O5  A00 X   4      30.931   6.962  58.1780  0.00  0.00     0.000 O
BRANCH 59 66
ATOM     64   N  A00 X   4      30.230   8.281  54.7280  0.00  0.00     0.000 N
ATOM     66  HD  A00 X   4      30.909   8.818  54.7230  0.00  0.00     0.000 HD
ATOM     66   O  A00 X   4      28.316   9.466  55.5830  0.00  0.00     0.000 OA
ATOM     67   S  A00 X   4      28.979   9.200  54.3440  0.00  0.00     0.000 S
ATOM     68   O  A00 X   4      29.652  10.319  53.7520  0.00  0.00     0.000 OA
ATOM     69   O  A00 X   4      28.316   8.346  53.4010  0.00  0.00     0.000 OA
ENDBRANCH 59 66
BRANCH 62 70
ATOM     70   C  A00 X   4      32.971   5.779  58.7840  0.00  0.00     0.000 C
ATOM     71   O  A00 X   4      32.698   4.204  62.0330  0.00  0.00     0.000 OA
ATOM     72   O  A00 X   4      33.611   6.283  61.4070  0.00  0.00     0.000 OA
ATOM     73   O  A00 X   4      32.486   4.888  59.8020  0.00  0.00     0.000 O
ATOM     74   O  A00 X   4      31.191   6.009  61.4970  0.00  0.00     0.000 OA
ATOM     75   S  A00 X   4      32.467   5.407  61.2820  0.00  0.00     0.000 S
ENDBRANCH 62 70
ENDBRANCH 57 61
ENDBRANCH 41 57
ENDBRANCH 40 44
ENDBRANCH 20 40
ENDBRANCH 19 23
ENDBRANCH 1 19
TORSDOF 14
ENDMDL
MODEL 19
REMARK VINA RESULT:      -3.8     42.185     46.743
ROOT
ATOM      1  C1  A00 X   1      37.879  14.839  53.4710  0.00  0.00     0.000 C
ATOM      2  C2  A00 X   1      37.052  16.101  53.8330  0.00  0.00     0.000 C
ATOM      3  C3  A00 X   1      37.674  17.041  54.9180  0.00  0.00     0.000 C
ATOM      4  C4  A00 X   1      38.828  16.428  55.7520  0.00  0.00     0.000 C
ATOM      5  C5  A00 X   1      38.790  14.900  55.7550  0.00  0.00     0.000 C
ATOM      6  O5  A00 X   1      38.972  14.527  54.3700  0.00  0.00     0.000 O
ATOM      7   O  A00 X   1      36.654  17.406  55.8460  0.00  0.00     0.000 O
ATOM      9  HD  A00 X   1      37.370  17.246  56.3040  0.00  0.00     0.000 HD
ATOM      9   O  A00 X   1      40.101  16.879  55.2910  0.00  0.00     0.000 O
ATOM     11  HD  A00 X   1      40.818  16.718  55.7500  0.00  0.00     0.000 HD
ENDROOT
BRANCH 2 11
ATOM     11   O  A00 X   1      36.848  16.854  52.6220  0.00  0.00     0.000 O
ATOM     12   O  A00 X   1      35.916  19.067  52.6430  0.00  0.00     0.000 OA
ATOM     13   O  A00 X   1      34.555  17.195  53.3920  0.00  0.00     0.000 OA
ATOM     14   O  A00 X   1      35.162  17.403  51.1020  0.00  0.00     0.000 OA
ATOM     15   S  A00 X   1      35.532  17.690  52.4620  0.00  0.00     0.000 S
ENDBRANCH 2 11
BRANCH 5 16
ATOM     16   C  A00 X   1      37.544  14.284  56.3970  0.00  0.00     0.000 C
ATOM     17   O  A00 X   1      37.342  13.096  56.2520  0.00  0.00     0.000 OA
ATOM     18   O  A00 X   1      36.756  14.939  57.0500  0.00  0.00     0.000 OA
ENDBRANCH 5 16
BRANCH 1 19
ATOM     19  O4  A00 X   2      37.050  13.676  53.2250  0.00  0.00     0.000 O
BRANCH 19 23
ATOM     20  C1  A00 X   2      37.640  10.265  50.7000  0.00  0.00     0.000 C
ATOM     21  C2  A00 X   2      38.361  10.273  52.0700  0.00  0.00     0.000 C
ATOM     22  C3  A00 X   2      37.729  11.314  53.0170  0.00  0.00     0.000 C
ATOM     23  C4  A00 X   2      37.693  12.707  52.3490  0.00  0.00     0.000 C
ATOM     24  C5  A00 X   2      36.965  12.560  50.9850  0.00  0.00     0.000 C
ATOM     25  O5  A00 X   2      37.697  11.613  50.1640  0.00  0.00     0.000 O
ATOM     26   O  A00 X   2      38.386  11.235  54.2930  0.00  0.00     0.000 O
ATOM     28  HD  A00 X   2      39.177  11.281  53.9450  0.00  0.00     0.000 HD
BRANCH 21 30
ATOM     28   N  A00 X   2      38.419   9.316  53.1780  0.00  0.00     0.000 N
ATOM     30  HD  A00 X   2      39.033   9.083  52.6130  0.00  0.00     0.000 HD
ATOM     30   O  A00 X   2      40.456   8.178  53.0510  0.00  0.00     0.000 OA
ATOM     31   S  A00 X   2      39.070   7.898  52.9230  0.00  0.00     0.000 S
ATOM     32   O  A00 X   2      38.520   7.081  53.9600  0.00  0.00     0.000 OA
ATOM     33   O  A00 X   2      38.614   7.448  51.6410  0.00  0.00     0.000 OA
ENDBRANCH 21 30
BRANCH 24 34
ATOM     34   C  A00 X   2      36.592  13.852  50.2190  0.00  0.00     0.000 C
ATOM     35   O  A00 X   2      37.271  14.394  46.6830  0.00  0.00     0.000 OA
ATOM     36   O  A00 X   2      37.285  13.929  48.9570  0.00  0.00     0.000 O
ATOM     37   O  A00 X   2      36.043  12.557  47.5260  0.00  0.00     0.000 OA
ATOM     38   S  A00 X   2      36.361  13.943  47.6840  0.00  0.00     0.000 S
ATOM     39   O  A00 X   2      35.285  14.842  47.9760  0.00  0.00     0.000 OA
ENDBRANCH 24 34
BRANCH 20 40
ATOM     40  O4  A00 X   3      36.277   9.918  50.9820  0.00  0.00     0.000 O
BRANCH 40 44
ATOM     41  C1  A00 X   3      32.692   9.397  50.9560  0.00  0.00     0.000 C
ATOM     42  C2  A00 X   3      33.704   8.513  51.7150  0.00  0.00     0.000 C
ATOM     43  C3  A00 X   3      34.855   8.058  50.7810  0.00  0.00     0.000 C
ATOM     44  C4  A00 X   3      35.516   9.185  49.9970  0.00  0.00     0.000 C
ATOM     45  C5  A00 X   3      34.437  10.024  49.2580  0.00  0.00     0.000 C
ATOM     46  O5  A00 X   3      33.366  10.422  50.1750  0.00  0.00     0.000 O
ATOM     47   O  A00 X   3      35.806   7.163  51.3550  0.00  0.00     0.000 O
ATOM     49  HD  A00 X   3      36.364   7.640  50.8940  0.00  0.00     0.000 HD
BRANCH 42 49
ATOM     49   O  A00 X   3      34.201   9.295  52.8230  0.00  0.00     0.000 O
ATOM     50   O  A00 X   3      35.708   8.948  54.6500  0.00  0.00     0.000 OA
ATOM     51   O  A00 X   3      34.197   7.223  54.0750  0.00  0.00     0.000 OA
ATOM     52   O  A00 X   3      33.331   9.217  55.0030  0.00  0.00     0.000 OA
ATOM     53   S  A00 X   3      34.377   8.646  54.2270  0.00  0.00     0.000 S
ENDBRANCH 42 49
BRANCH 45 54
ATOM     54   C  A00 X   3      33.922   9.308  48.0040  0.00  0.00     0.000 C
ATOM     55   O  A00 X   3      34.458   8.294  47.6060  0.00  0.00     0.000 OA
ATOM     56   O  A00 X   3      32.966   9.746  47.3820  0.00  0.00     0.000 OA
ENDBRANCH 45 54
BRANCH 41 57
ATOM     57  O4  A00 X   4      31.753   8.602  50.1960  0.00  0.00     0.000 O
BRANCH 57 61
ATOM     58  C1  A00 X   4      27.504   9.159  49.6760  0.00  0.00     0.000 C
ATOM     59  C2  A00 X   4      28.419   9.230  48.4280  0.00  0.00     0.000 C
ATOM     60  C3  A00 X   4      29.835   8.668  48.6710  0.00  0.00     0.000 C
ATOM     61  C4  A00 X   4      30.457   9.225  49.9700  0.00  0.00     0.000 C
ATOM     62  C5  A00 X   4      29.479   8.858  51.1140  0.00  0.00     0.000 C
ATOM     63  O5  A00 X   4      28.209   9.520  50.8860  0.00  0.00     0.000 O
BRANCH 59 66
ATOM     64   N  A00 X   4      27.927   8.590  47.1950  0.00  0.00     0.000 N
ATOM     66  HD  A00 X   4      28.472   8.544  46.5230  0.00  0.00     0.000 HD
ATOM     66   O  A00 X   4      26.494  10.501  46.8930  0.00  0.00     0.000 OA
ATOM     67   S  A00 X   4      26.551   9.110  46.5680  0.00  0.00     0.000 S
ATOM     68   O  A00 X   4      26.767   8.809  45.1830  0.00  0.00     0.000 OA
ATOM     69   O  A00 X   4      25.625   8.231  47.2240  0.00  0.00     0.000 OA
ENDBRANCH 59 66
BRANCH 62 70
ATOM     70   C  A00 X   4      29.986   9.240  52.5250  0.00  0.00     0.000 C
ATOM     71   O  A00 X   4      30.777   7.064  55.3080  0.00  0.00     0.000 OA
ATOM     72   O  A00 X   4      29.455   9.010  55.2100  0.00  0.00     0.000 OA
ATOM     73   O  A00 X   4      30.402   8.052  53.2170  0.00  0.00     0.000 O
ATOM     74   O  A00 X   4      28.584   6.917  54.3180  0.00  0.00     0.000 OA
ATOM     75   S  A00 X   4      29.724   7.729  54.5940  0.00  0.00     0.000 S
ENDBRANCH 62 70
ENDBRANCH 57 61
ENDBRANCH 41 57
ENDBRANCH 40 44
ENDBRANCH 20 40
ENDBRANCH 19 23
ENDBRANCH 1 19
TORSDOF 14
ENDMDL
MODEL 20
REMARK VINA RESULT:      -3.7     40.225     45.441
ROOT
ATOM      1  C1  A00 X   1      37.361  14.410  53.0260  0.00  0.00     0.000 C
ATOM      2  C2  A00 X   1      36.806  15.651  53.7750  0.00  0.00     0.000 C
ATOM      3  C3  A00 X   1      37.492  15.994  55.1390  0.00  0.00     0.000 C
ATOM      4  C4  A00 X   1      38.370  14.871  55.7470  0.00  0.00     0.000 C
ATOM      5  C5  A00 X   1      37.987  13.489  55.2180  0.00  0.00     0.000 C
ATOM      6  O5  A00 X   1      38.241  13.555  53.7970  0.00  0.00     0.000 O
ATOM      7   O  A00 X   1      36.479  16.282  56.1000  0.00  0.00     0.000 O
ATOM      9  HD  A00 X   1      37.081  15.803  56.4990  0.00  0.00     0.000 HD
ATOM      9   O  A00 X   1      39.758  15.109  55.5120  0.00  0.00     0.000 O
ATOM     11  HD  A00 X   1      40.360  14.631  55.9110  0.00  0.00     0.000 HD
ENDROOT
BRANCH 2 11
ATOM     11   O  A00 X   1      36.922  16.784  52.8930  0.00  0.00     0.000 O
ATOM     12   O  A00 X   1      36.643  19.037  53.6770  0.00  0.00     0.000 OA
ATOM     13   O  A00 X   1      34.757  17.503  53.7680  0.00  0.00     0.000 OA
ATOM     14   O  A00 X   1      35.590  18.265  51.6750  0.00  0.00     0.000 OA
ATOM     15   S  A00 X   1      35.908  17.970  53.0460  0.00  0.00     0.000 S
ENDBRANCH 2 11
BRANCH 5 16
ATOM     16   C  A00 X   1      36.566  13.033  55.5660  0.00  0.00     0.000 C
ATOM     17   O  A00 X   1      36.114  12.059  55.0010  0.00  0.00     0.000 OA
ATOM     18   O  A00 X   1      35.881  13.607  56.3890  0.00  0.00     0.000 OA
ENDBRANCH 5 16
BRANCH 1 19
ATOM     19  O4  A00 X   2      36.325  13.643  52.3650  0.00  0.00     0.000 O
BRANCH 19 23
ATOM     20  C1  A00 X   2      36.447  11.032  48.9690  0.00  0.00     0.000 C
ATOM     21  C2  A00 X   2      37.211  10.588  50.2400  0.00  0.00     0.000 C
ATOM     22  C3  A00 X   2      36.731  11.379  51.4750  0.00  0.00     0.000 C
ATOM     23  C4  A00 X   2      36.826  12.900  51.2180  0.00  0.00     0.000 C
ATOM     24  C5  A00 X   2      36.040  13.211  49.9150  0.00  0.00     0.000 C
ATOM     25  O5  A00 X   2      36.634  12.465  48.8210  0.00  0.00     0.000 O
ATOM     26   O  A00 X   2      37.419  10.884  52.6360  0.00  0.00     0.000 O
ATOM     28  HD  A00 X   2      38.198  10.948  52.2630  0.00  0.00     0.000 HD
BRANCH 21 30
ATOM     28   N  A00 X   2      37.687   9.757  51.3500  0.00  0.00     0.000 N
ATOM     30  HD  A00 X   2      37.847   9.317  50.6210  0.00  0.00     0.000 HD
ATOM     30   O  A00 X   2      39.094   8.110  50.4730  0.00  0.00     0.000 OA
ATOM     31   S  A00 X   2      37.834   8.199  51.1220  0.00  0.00     0.000 S
ATOM     32   O  A00 X   2      37.796   7.659  52.4450  0.00  0.00     0.000 OA
ATOM     33   O  A00 X   2      36.688   7.771  50.3760  0.00  0.00     0.000 OA
ENDBRANCH 21 30
BRANCH 24 34
ATOM     34   C  A00 X   2      35.786  14.695  49.5580  0.00  0.00     0.000 C
ATOM     35   O  A00 X   2      33.122  15.836  47.3530  0.00  0.00     0.000 OA
ATOM     36   O  A00 X   2      34.917  14.815  48.4140  0.00  0.00     0.000 O
ATOM     37   O  A00 X   2      32.766  14.513  49.2810  0.00  0.00     0.000 OA
ATOM     38   S  A00 X   2      33.552  15.548  48.6820  0.00  0.00     0.000 S
ATOM     39   O  A00 X   2      33.859  16.696  49.4820  0.00  0.00     0.000 OA
ENDBRANCH 24 34
BRANCH 20 40
ATOM     40  O4  A00 X   3      35.064  10.754  49.2320  0.00  0.00     0.000 O
BRANCH 40 44
ATOM     41  C1  A00 X   3      31.585   9.765  49.4500  0.00  0.00     0.000 C
ATOM     42  C2  A00 X   3      32.784   8.802  49.5880  0.00  0.00     0.000 C
ATOM     43  C3  A00 X   3      33.772   8.974  48.4060  0.00  0.00     0.000 C
ATOM     44  C4  A00 X   3      34.191  10.413  48.1340  0.00  0.00     0.000 C
ATOM     45  C5  A00 X   3      32.933  11.317  48.0030  0.00  0.00     0.000 C
ATOM     46  O5  A00 X   3      32.024  11.115  49.1330  0.00  0.00     0.000 O
ATOM     47   O  A00 X   3      34.877   8.072  48.3820  0.00  0.00     0.000 O
ATOM     49  HD  A00 X   3      35.303   8.778  48.1160  0.00  0.00     0.000 HD
BRANCH 42 49
ATOM     49   O  A00 X   3      33.418   9.094  50.8530  0.00  0.00     0.000 O
ATOM     50   O  A00 X   3      34.332   7.826  52.6660  0.00  0.00     0.000 OA
ATOM     51   O  A00 X   3      32.304   7.112  51.6830  0.00  0.00     0.000 OA
ATOM     52   O  A00 X   3      32.309   9.125  52.9220  0.00  0.00     0.000 OA
ATOM     53   S  A00 X   3      33.083   8.246  52.1140  0.00  0.00     0.000 S
ENDBRANCH 42 49
BRANCH 45 54
ATOM     54   C  A00 X   3      32.249  11.145  46.6410  0.00  0.00     0.000 C
ATOM     55   O  A00 X   3      32.533  10.210  45.9200  0.00  0.00     0.000 OA
ATOM     56   O  A00 X   3      31.409  11.945  46.2580  0.00  0.00     0.000 OA
ENDBRANCH 45 54
BRANCH 41 57
ATOM     57  O4  A00 X   4      30.584   9.246  48.5460  0.00  0.00     0.000 O
BRANCH 57 61
ATOM     58  C1  A00 X   4      26.400  10.224  48.1320  0.00  0.00     0.000 C
ATOM     59  C2  A00 X   4      27.378  10.662  47.0130  0.00  0.00     0.000 C
ATOM     60  C3  A00 X   4      28.749   9.960  47.0860  0.00  0.00     0.000 C
ATOM     61  C4  A00 X   4      29.334   9.992  48.5140  0.00  0.00     0.000 C
ATOM     62  C5  A00 X   4      28.284   9.317  49.4310  0.00  0.00     0.000 C
ATOM     63  O5  A00 X   4      27.061  10.098  49.4110  0.00  0.00     0.000 O
BRANCH 59 66
ATOM     64   N  A00 X   4      27.848  12.015  46.6650  0.00  0.00     0.000 N
ATOM     66  HD  A00 X   4      28.056  12.546  47.3180  0.00  0.00     0.000 HD
ATOM     66   O  A00 X   4      25.598  12.507  45.9610  0.00  0.00     0.000 OA
ATOM     67   S  A00 X   4      26.945  12.903  45.6890  0.00  0.00     0.000 S
ATOM     68   O  A00 X   4      27.302  14.219  46.1320  0.00  0.00     0.000 OA
ATOM     69   O  A00 X   4      27.507  12.536  44.4200  0.00  0.00     0.000 OA
ENDBRANCH 59 66
BRANCH 62 70
ATOM     70   C  A00 X   4      28.739   9.154  50.9000  0.00  0.00     0.000 C
ATOM     71   O  A00 X   4      26.714   8.575  53.8450  0.00  0.00     0.000 OA
ATOM     72   O  A00 X   4      28.424  10.143  53.4430  0.00  0.00     0.000 OA
ATOM     73   O  A00 X   4      27.632   8.696  51.6930  0.00  0.00     0.000 O
ATOM     74   O  A00 X   4      26.220  10.489  52.4640  0.00  0.00     0.000 OA
ATOM     75   S  A00 X   4      27.204   9.564  52.9270  0.00  0.00     0.000 S
ENDBRANCH 62 70
ENDBRANCH 57 61
ENDBRANCH 41 57
ENDBRANCH 40 44
ENDBRANCH 20 40
ENDBRANCH 19 23
ENDBRANCH 1 19
TORSDOF 14
ENDMDL
MODEL 21
REMARK VINA RESULT:      -3.7     44.530     49.804
ROOT
ATOM      1  C1  A00 X   1      38.303  12.408  51.5540  0.00  0.00     0.000 C
ATOM      2  C2  A00 X   1      37.063  13.337  51.6390  0.00  0.00     0.000 C
ATOM      3  C3  A00 X   1      37.354  14.845  51.9340  0.00  0.00     0.000 C
ATOM      4  C4  A00 X   1      38.776  15.161  52.4630  0.00  0.00     0.000 C
ATOM      5  C5  A00 X   1      39.437  13.942  53.1060  0.00  0.00     0.000 C
ATOM      6  O5  A00 X   1      39.546  12.976  52.0360  0.00  0.00     0.000 O
ATOM      7   O  A00 X   1      36.441  15.301  52.9300  0.00  0.00     0.000 O
ATOM      9  HD  A00 X   1      37.215  15.640  53.1190  0.00  0.00     0.000 HD
ATOM      9   O  A00 X   1      39.616  15.675  51.4290  0.00  0.00     0.000 O
ATOM     11  HD  A00 X   1      40.390  16.014  51.6180  0.00  0.00     0.000 HD
ENDROOT
BRANCH 2 11
ATOM     11   O  A00 X   1      36.350  13.232  50.3910  0.00  0.00     0.000 O
ATOM     12   O  A00 X   1      34.535  14.703  49.8380  0.00  0.00     0.000 OA
ATOM     13   O  A00 X   1      34.307  13.190  51.7290  0.00  0.00     0.000 OA
ATOM     14   O  A00 X   1      34.381  12.340  49.5090  0.00  0.00     0.000 OA
ATOM     15   S  A00 X   1      34.792  13.398  50.3920  0.00  0.00     0.000 S
ENDBRANCH 2 11
BRANCH 5 16
ATOM     16   C  A00 X   1      38.725  13.400  54.3500  0.00  0.00     0.000 C
ATOM     17   O  A00 X   1      39.069  12.324  54.7950  0.00  0.00     0.000 OA
ATOM     18   O  A00 X   1      37.836  14.011  54.9100  0.00  0.00     0.000 OA
ENDBRANCH 5 16
BRANCH 1 19
ATOM     19  O4  A00 X   2      38.064  11.099  52.1270  0.00  0.00     0.000 O
BRANCH 19 23
ATOM     20  C1  A00 X   2      37.195   7.344  50.2540  0.00  0.00     0.000 C
ATOM     21  C2  A00 X   2      38.390   8.157  49.7030  0.00  0.00     0.000 C
ATOM     22  C3  A00 X   2      38.841   9.229  50.7180  0.00  0.00     0.000 C
ATOM     23  C4  A00 X   2      37.648  10.120  51.1320  0.00  0.00     0.000 C
ATOM     24  C5  A00 X   2      36.516   9.190  51.6460  0.00  0.00     0.000 C
ATOM     25  O5  A00 X   2      36.135   8.283  50.5790  0.00  0.00     0.000 O
ATOM     26   O  A00 X   2      39.992   9.909  50.1900  0.00  0.00     0.000 O
ATOM     28  HD  A00 X   2      39.615  10.061  49.4250  0.00  0.00     0.000 HD
BRANCH 21 30
ATOM     28   N  A00 X   2      39.816   7.962  49.4240  0.00  0.00     0.000 N
ATOM     30  HD  A00 X   2      39.382   7.632  48.7510  0.00  0.00     0.000 HD
ATOM     30   O  A00 X   2      40.052   7.472  47.1520  0.00  0.00     0.000 OA
ATOM     31   S  A00 X   2      40.242   6.831  48.4040  0.00  0.00     0.000 S
ATOM     32   O  A00 X   2      41.605   6.563  48.7460  0.00  0.00     0.000 OA
ATOM     33   O  A00 X   2      39.426   5.686  48.6780  0.00  0.00     0.000 OA
ENDBRANCH 21 30
BRANCH 24 34
ATOM     34   C  A00 X   2      35.296   9.845  52.3370  0.00  0.00     0.000 C
ATOM     35   O  A00 X   2      31.847   9.356  51.2790  0.00  0.00     0.000 OA
ATOM     36   O  A00 X   2      34.120   9.764  51.5070  0.00  0.00     0.000 O
ATOM     37   O  A00 X   2      33.319   7.592  51.8420  0.00  0.00     0.000 OA
ATOM     38   S  A00 X   2      32.926   8.941  52.1150  0.00  0.00     0.000 S
ATOM     39   O  A00 X   2      32.818   9.337  53.4870  0.00  0.00     0.000 OA
ENDBRANCH 24 34
BRANCH 20 40
ATOM     40  O4  A00 X   3      37.670   6.722  51.4570  0.00  0.00     0.000 O
BRANCH 40 44
ATOM     41  C1  A00 X   3      37.897   5.266  54.7670  0.00  0.00     0.000 C
ATOM     42  C2  A00 X   3      38.930   5.053  53.6380  0.00  0.00     0.000 C
ATOM     43  C3  A00 X   3      38.234   4.613  52.3250  0.00  0.00     0.000 C
ATOM     44  C4  A00 X   3      37.062   5.491  51.9040  0.00  0.00     0.000 C
ATOM     45  C5  A00 X   3      36.067   5.654  53.0870  0.00  0.00     0.000 C
ATOM     46  O5  A00 X   3      36.768   6.060  54.3080  0.00  0.00     0.000 O
ATOM     47   O  A00 X   3      39.100   4.303  51.2350  0.00  0.00     0.000 O
ATOM     49  HD  A00 X   3      38.482   4.701  50.7770  0.00  0.00     0.000 HD
BRANCH 42 49
ATOM     49   O  A00 X   3      39.636   6.302  53.4690  0.00  0.00     0.000 O
ATOM     50   O  A00 X   3      41.272   7.176  51.9560  0.00  0.00     0.000 OA
ATOM     51   O  A00 X   3      41.508   4.956  52.7350  0.00  0.00     0.000 OA
ATOM     52   O  A00 X   3      41.801   6.727  54.2730  0.00  0.00     0.000 OA
ATOM     53   S  A00 X   3      41.144   6.307  53.0840  0.00  0.00     0.000 S
ENDBRANCH 42 49
BRANCH 45 54
ATOM     54   C  A00 X   3      35.201   4.403  53.2770  0.00  0.00     0.000 C
ATOM     55   O  A00 X   3      34.084   4.489  53.7450  0.00  0.00     0.000 OA
ATOM     56   O  A00 X   3      35.619   3.300  52.9620  0.00  0.00     0.000 OA
ENDBRANCH 45 54
BRANCH 41 57
ATOM     57  O4  A00 X   4      37.522   4.018  55.3900  0.00  0.00     0.000 O
BRANCH 57 61
ATOM     58  C1  A00 X   4      35.981   3.050  59.3050  0.00  0.00     0.000 C
ATOM     59  C2  A00 X   4      34.975   3.349  58.1660  0.00  0.00     0.000 C
ATOM     60  C3  A00 X   4      35.612   3.324  56.7610  0.00  0.00     0.000 C
ATOM     61  C4  A00 X   4      36.920   4.143  56.7100  0.00  0.00     0.000 C
ATOM     62  C5  A00 X   4      37.856   3.537  57.7860  0.00  0.00     0.000 C
ATOM     63  O5  A00 X   4      37.252   3.707  59.0940  0.00  0.00     0.000 O
BRANCH 59 66
ATOM     64   N  A00 X   4      34.009   4.430  57.8970  0.00  0.00     0.000 N
ATOM     66  HD  A00 X   4      34.287   5.245  57.9850  0.00  0.00     0.000 HD
ATOM     66   O  A00 X   4      32.875   3.782  59.9200  0.00  0.00     0.000 OA
ATOM     67   S  A00 X   4      32.602   4.394  58.6570  0.00  0.00     0.000 S
ATOM     68   O  A00 X   4      32.297   5.794  58.7030  0.00  0.00     0.000 OA
ATOM     69   O  A00 X   4      31.821   3.652  57.7090  0.00  0.00     0.000 OA
ENDBRANCH 59 66
BRANCH 62 70
ATOM     70   C  A00 X   4      39.272   4.159  57.8140  0.00  0.00     0.000 C
ATOM     71   O  A00 X   4      40.412   7.110  59.5750  0.00  0.00     0.000 OA
ATOM     72   O  A00 X   4      40.696   6.458  57.3300  0.00  0.00     0.000 OA
ATOM     73   O  A00 X   4      39.326   5.172  58.8320  0.00  0.00     0.000 O
ATOM     74   O  A00 X   4      38.539   7.317  58.0700  0.00  0.00     0.000 OA
ATOM     75   S  A00 X   4      39.740   6.622  58.4030  0.00  0.00     0.000 S
ENDBRANCH 62 70
ENDBRANCH 57 61
ENDBRANCH 41 57
ENDBRANCH 40 44
ENDBRANCH 20 40
ENDBRANCH 19 23
ENDBRANCH 1 19
TORSDOF 14
ENDMDL
MODEL 22
REMARK VINA RESULT:      -3.6     42.211     47.279
ROOT
ATOM      1  C1  A00 X   1      37.717  12.052  50.9400  0.00  0.00     0.000 C
ATOM      2  C2  A00 X   1      37.900  13.258  51.9000  0.00  0.00     0.000 C
ATOM      3  C3  A00 X   1      37.704  12.960  53.4230  0.00  0.00     0.000 C
ATOM      4  C4  A00 X   1      37.002  11.618  53.7570  0.00  0.00     0.000 C
ATOM      5  C5  A00 X   1      36.161  11.101  52.5900  0.00  0.00     0.000 C
ATOM      6  O5  A00 X   1      37.111  10.873  51.5250  0.00  0.00     0.000 O
ATOM      7   O  A00 X   1      36.899  13.990  53.9910  0.00  0.00     0.000 O
ATOM      9  HD  A00 X   1      36.629  13.240  54.3290  0.00  0.00     0.000 HD
ATOM      9   O  A00 X   1      37.944  10.621  54.1520  0.00  0.00     0.000 O
ATOM     11  HD  A00 X   1      37.675   9.871  54.4900  0.00  0.00     0.000 HD
ENDROOT
BRANCH 2 11
ATOM     11   O  A00 X   1      39.225  13.786  51.6920  0.00  0.00     0.000 O
ATOM     12   O  A00 X   1      40.132  15.521  53.0820  0.00  0.00     0.000 OA
ATOM     13   O  A00 X   1      38.187  15.997  51.7020  0.00  0.00     0.000 OA
ATOM     14   O  A00 X   1      40.307  15.601  50.6990  0.00  0.00     0.000 OA
ATOM     15   S  A00 X   1      39.454  15.331  51.8250  0.00  0.00     0.000 S
ENDBRANCH 2 11
BRANCH 5 16
ATOM     16   C  A00 X   1      34.991  12.004  52.1850  0.00  0.00     0.000 C
ATOM     17   O  A00 X   1      34.595  12.833  52.9780  0.00  0.00     0.000 OA
ATOM     18   O  A00 X   1      34.452  11.924  51.0990  0.00  0.00     0.000 OA
ENDBRANCH 5 16
BRANCH 1 19
ATOM     19  O4  A00 X   2      37.069  12.417  49.6970  0.00  0.00     0.000 O
BRANCH 19 23
ATOM     20  C1  A00 X   2      39.487   9.825  47.2890  0.00  0.00     0.000 C
ATOM     21  C2  A00 X   2      39.938  11.299  47.4270  0.00  0.00     0.000 C
ATOM     22  C3  A00 X   2      39.249  11.974  48.6310  0.00  0.00     0.000 C
ATOM     23  C4  A00 X   2      37.714  11.823  48.5350  0.00  0.00     0.000 C
ATOM     24  C5  A00 X   2      37.395  10.311  48.3820  0.00  0.00     0.000 C
ATOM     25  O5  A00 X   2      38.038   9.817  47.1790  0.00  0.00     0.000 O
ATOM     26   O  A00 X   2      39.752  13.316  48.7580  0.00  0.00     0.000 O
ATOM     28  HD  A00 X   2      39.611  13.501  47.9230  0.00  0.00     0.000 HD
BRANCH 21 30
ATOM     28   N  A00 X   2      40.987  10.819  46.5230  0.00  0.00     0.000 N
ATOM     30  HD  A00 X   2      40.947  11.678  46.4260  0.00  0.00     0.000 HD
ATOM     30   O  A00 X   2      42.281  12.652  45.8710  0.00  0.00     0.000 OA
ATOM     31   S  A00 X   2      41.390  11.715  45.2840  0.00  0.00     0.000 S
ATOM     32   O  A00 X   2      41.997  10.788  44.3790  0.00  0.00     0.000 OA
ATOM     33   O  A00 X   2      40.177  12.234  44.7260  0.00  0.00     0.000 OA
ENDBRANCH 21 30
BRANCH 24 34
ATOM     34   C  A00 X   2      35.917   9.867  48.4950  0.00  0.00     0.000 C
ATOM     35   O  A00 X   2      33.267  11.014  46.2780  0.00  0.00     0.000 OA
ATOM     36   O  A00 X   2      35.052  10.733  47.7350  0.00  0.00     0.000 O
ATOM     37   O  A00 X   2      35.256   9.975  45.5320  0.00  0.00     0.000 OA
ATOM     38   S  A00 X   2      34.266  10.038  46.5640  0.00  0.00     0.000 S
ATOM     39   O  A00 X   2      33.773   8.799  47.0870  0.00  0.00     0.000 OA
ENDBRANCH 24 34
BRANCH 20 40
ATOM     40  O4  A00 X   3      39.878   9.183  48.5120  0.00  0.00     0.000 O
BRANCH 40 44
ATOM     41  C1  A00 X   3      41.300   7.068  51.0860  0.00  0.00     0.000 C
ATOM     42  C2  A00 X   3      42.024   7.478  49.7850  0.00  0.00     0.000 C
ATOM     43  C3  A00 X   3      41.136   7.200  48.5450  0.00  0.00     0.000 C
ATOM     44  C4  A00 X   3      39.721   7.754  48.6410  0.00  0.00     0.000 C
ATOM     45  C5  A00 X   3      39.059   7.295  49.9710  0.00  0.00     0.000 C
ATOM     46  O5  A00 X   3      39.934   7.568  51.1130  0.00  0.00     0.000 O
ATOM     47   O  A00 X   3      41.737   7.460  47.2780  0.00  0.00     0.000 O
ATOM     49  HD  A00 X   3      40.945   7.754  47.0890  0.00  0.00     0.000 HD
BRANCH 42 49
ATOM     49   O  A00 X   3      42.341   8.883  49.9030  0.00  0.00     0.000 O
ATOM     50   O  A00 X   3      43.364  10.549  48.5220  0.00  0.00     0.000 OA
ATOM     51   O  A00 X   3      44.307   8.382  48.5830  0.00  0.00     0.000 OA
ATOM     52   O  A00 X   3      44.443   9.725  50.5220  0.00  0.00     0.000 OA
ATOM     53   S  A00 X   3      43.689   9.433  49.3530  0.00  0.00     0.000 S
ENDBRANCH 42 49
BRANCH 45 54
ATOM     54   C  A00 X   3      38.597   5.834  49.9000  0.00  0.00     0.000 C
ATOM     55   O  A00 X   3      39.043   5.085  49.0560  0.00  0.00     0.000 OA
ATOM     56   O  A00 X   3      37.773   5.400  50.6900  0.00  0.00     0.000 OA
ENDBRANCH 45 54
BRANCH 41 57
ATOM     57  O4  A00 X   4      41.411   5.648  51.3340  0.00  0.00     0.000 O
BRANCH 57 61
ATOM     58  C1  A00 X   4      40.521   3.358  54.8840  0.00  0.00     0.000 C
ATOM     59  C2  A00 X   4      39.622   3.171  53.6360  0.00  0.00     0.000 C
ATOM     60  C3  A00 X   4      40.235   3.749  52.3440  0.00  0.00     0.000 C
ATOM     61  C4  A00 X   4      40.770   5.182  52.5550  0.00  0.00     0.000 C
ATOM     62  C5  A00 X   4      41.805   5.096  53.7040  0.00  0.00     0.000 C
ATOM     63  O5  A00 X   4      41.136   4.666  54.9170  0.00  0.00     0.000 O
BRANCH 59 66
ATOM     64   N  A00 X   4      38.473   2.575  52.9310  0.00  0.00     0.000 N
ATOM     66  HD  A00 X   4      37.919   3.115  52.5410  0.00  0.00     0.000 HD
ATOM     66   O  A00 X   4      37.582   1.986  55.0890  0.00  0.00     0.000 OA
ATOM     67   S  A00 X   4      37.545   1.546  53.7300  0.00  0.00     0.000 S
ATOM     68   O  A00 X   4      36.298   1.742  53.0510  0.00  0.00     0.000 OA
ATOM     69   O  A00 X   4      38.202   0.311  53.4080  0.00  0.00     0.000 OA
ENDBRANCH 59 66
BRANCH 62 70
ATOM     70   C  A00 X   4      42.540   6.426  53.9930  0.00  0.00     0.000 C
ATOM     71   O  A00 X   4      41.453   9.215  56.0300  0.00  0.00     0.000 OA
ATOM     72   O  A00 X   4      42.322   9.160  53.8420  0.00  0.00     0.000 OA
ATOM     73   O  A00 X   4      41.856   7.129  55.0430  0.00  0.00     0.000 O
ATOM     74   O  A00 X   4      40.020   8.467  54.2410  0.00  0.00     0.000 OA
ATOM     75   S  A00 X   4      41.351   8.583  54.7440  0.00  0.00     0.000 S
ENDBRANCH 62 70
ENDBRANCH 57 61
ENDBRANCH 41 57
ENDBRANCH 40 44
ENDBRANCH 20 40
ENDBRANCH 19 23
ENDBRANCH 1 19
TORSDOF 14
ENDMDL
MODEL 23
REMARK VINA RESULT:      -3.5     43.798     47.493
ROOT
ATOM      1  C1  A00 X   1      37.197  12.639  51.4200  0.00  0.00     0.000 C
ATOM      2  C2  A00 X   1      36.028  12.041  52.2470  0.00  0.00     0.000 C
ATOM      3  C3  A00 X   1      34.959  13.060  52.7640  0.00  0.00     0.000 C
ATOM      4  C4  A00 X   1      35.378  14.552  52.7110  0.00  0.00     0.000 C
ATOM      5  C5  A00 X   1      36.896  14.725  52.6880  0.00  0.00     0.000 C
ATOM      6  O5  A00 X   1      37.321  14.083  51.4650  0.00  0.00     0.000 O
ATOM      7   O  A00 X   1      34.672  12.768  54.1300  0.00  0.00     0.000 O
ATOM      9  HD  A00 X   1      34.718  13.630  54.0570  0.00  0.00     0.000 HD
ATOM      9   O  A00 X   1      34.800  15.216  51.5880  0.00  0.00     0.000 O
ATOM     11  HD  A00 X   1      34.845  16.078  51.5150  0.00  0.00     0.000 HD
ENDROOT
BRANCH 2 11
ATOM     11   O  A00 X   1      35.375  11.050  51.4300  0.00  0.00     0.000 O
ATOM     12   O  A00 X   1      33.805   9.481  52.3470  0.00  0.00     0.000 OA
ATOM     13   O  A00 X   1      36.125   9.408  53.0750  0.00  0.00     0.000 OA
ATOM     14   O  A00 X   1      35.540   8.794  50.8530  0.00  0.00     0.000 OA
ATOM     15   S  A00 X   1      35.197   9.599  51.9940  0.00  0.00     0.000 S
ENDBRANCH 2 11
BRANCH 5 16
ATOM     16   C  A00 X   1      37.626  14.213  53.9350  0.00  0.00     0.000 C
ATOM     17   O  A00 X   1      36.983  14.024  54.9470  0.00  0.00     0.000 OA
ATOM     18   O  A00 X   1      38.818  13.982  53.9430  0.00  0.00     0.000 OA
ENDBRANCH 5 16
BRANCH 1 19
ATOM     19  O4  A00 X   2      38.464  11.992  51.6900  0.00  0.00     0.000 O
BRANCH 19 23
ATOM     20  C1  A00 X   2      41.955  11.460  49.2610  0.00  0.00     0.000 C
ATOM     21  C2  A00 X   2      41.703  12.869  49.8510  0.00  0.00     0.000 C
ATOM     22  C3  A00 X   2      40.695  12.803  51.0180  0.00  0.00     0.000 C
ATOM     23  C4  A00 X   2      39.394  12.097  50.5740  0.00  0.00     0.000 C
ATOM     24  C5  A00 X   2      39.782  10.712  49.9880  0.00  0.00     0.000 C
ATOM     25  O5  A00 X   2      40.670  10.915  48.8570  0.00  0.00     0.000 O
ATOM     26   O  A00 X   2      40.548  14.121  51.5740  0.00  0.00     0.000 O
ATOM     28  HD  A00 X   2      40.407  14.486  50.8010  0.00  0.00     0.000 HD
BRANCH 21 30
ATOM     28   N  A00 X   2      42.281  13.439  48.6300  0.00  0.00     0.000 N
ATOM     30  HD  A00 X   2      42.261  14.074  49.2190  0.00  0.00     0.000 HD
ATOM     30   O  A00 X   2      43.331  15.449  49.1940  0.00  0.00     0.000 OA
ATOM     31   S  A00 X   2      42.223  15.006  48.4250  0.00  0.00     0.000 S
ATOM     32   O  A00 X   2      42.367  15.167  47.0110  0.00  0.00     0.000 OA
ATOM     33   O  A00 X   2      40.925  15.440  48.8450  0.00  0.00     0.000 OA
ENDBRANCH 21 30
BRANCH 24 34
ATOM     34   C  A00 X   2      38.645   9.709  49.6810  0.00  0.00     0.000 C
ATOM     35   O  A00 X   2      36.070  10.252  47.1650  0.00  0.00     0.000 OA
ATOM     36   O  A00 X   2      37.594  10.330  48.9130  0.00  0.00     0.000 O
ATOM     37   O  A00 X   2      38.390  10.312  46.7140  0.00  0.00     0.000 OA
ATOM     38   S  A00 X   2      37.348   9.711  47.4890  0.00  0.00     0.000 S
ATOM     39   O  A00 X   2      37.380   8.289  47.6550  0.00  0.00     0.000 OA
ENDBRANCH 24 34
BRANCH 20 40
ATOM     40  O4  A00 X   3      42.490  10.678  50.3390  0.00  0.00     0.000 O
BRANCH 40 44
ATOM     41  C1  A00 X   3      41.851   7.164  50.9450  0.00  0.00     0.000 C
ATOM     42  C2  A00 X   3      42.441   8.144  51.9830  0.00  0.00     0.000 C
ATOM     43  C3  A00 X   3      43.644   8.922  51.3900  0.00  0.00     0.000 C
ATOM     44  C4  A00 X   3      43.372   9.575  50.0400  0.00  0.00     0.000 C
ATOM     45  C5  A00 X   3      42.786   8.528  49.0520  0.00  0.00     0.000 C
ATOM     46  O5  A00 X   3      41.661   7.810  49.6560  0.00  0.00     0.000 O
ATOM     47   O  A00 X   3      44.325   9.795  52.2890  0.00  0.00     0.000 O
ATOM     49  HD  A00 X   3      44.361  10.304  51.5890  0.00  0.00     0.000 HD
BRANCH 42 49
ATOM     49   O  A00 X   3      41.376   9.036  52.3760  0.00  0.00     0.000 O
ATOM     50   O  A00 X   3      41.133  10.891  53.8700  0.00  0.00     0.000 OA
ATOM     51   O  A00 X   3      42.391   9.017  54.5730  0.00  0.00     0.000 OA
ATOM     52   O  A00 X   3      40.057   8.769  54.3000  0.00  0.00     0.000 OA
ATOM     53   S  A00 X   3      41.218   9.464  53.8650  0.00  0.00     0.000 S
ENDBRANCH 42 49
BRANCH 45 54
ATOM     54   C  A00 X   3      43.872   7.595  48.5030  0.00  0.00     0.000 C
ATOM     55   O  A00 X   3      43.579   6.656  47.7910  0.00  0.00     0.000 OA
ATOM     56   O  A00 X   3      45.049   7.778  48.7730  0.00  0.00     0.000 OA
ENDBRANCH 45 54
BRANCH 41 57
ATOM     57  O4  A00 X   4      42.607   5.935  50.8800  0.00  0.00     0.000 O
BRANCH 57 61
ATOM     58  C1  A00 X   4      41.133   1.912  50.3470  0.00  0.00     0.000 C
ATOM     59  C2  A00 X   4      42.157   2.468  49.3270  0.00  0.00     0.000 C
ATOM     60  C3  A00 X   4      42.873   3.746  49.8080  0.00  0.00     0.000 C
ATOM     61  C4  A00 X   4      41.877   4.786  50.3650  0.00  0.00     0.000 C
ATOM     62  C5  A00 X   4      41.107   4.082  51.5100  0.00  0.00     0.000 C
ATOM     63  O5  A00 X   4      40.358   2.965  50.9650  0.00  0.00     0.000 O
BRANCH 59 66
ATOM     64   N  A00 X   4      43.170   2.092  48.3240  0.00  0.00     0.000 N
ATOM     66  HD  A00 X   4      43.358   2.672  47.7090  0.00  0.00     0.000 HD
ATOM     66   O  A00 X   4      41.569   0.525  47.4400  0.00  0.00     0.000 OA
ATOM     67   S  A00 X   4      42.983   0.711  47.5390  0.00  0.00     0.000 S
ATOM     68   O  A00 X   4      43.652   1.020  46.3090  0.00  0.00     0.000 OA
ATOM     69   O  A00 X   4      43.715  -0.172  48.4020  0.00  0.00     0.000 OA
ENDBRANCH 59 66
BRANCH 62 70
ATOM     70   C  A00 X   4      40.128   5.005  52.2740  0.00  0.00     0.000 C
ATOM     71   O  A00 X   4      36.575   5.460  51.7500  0.00  0.00     0.000 OA
ATOM     72   O  A00 X   4      38.307   7.039  51.9750  0.00  0.00     0.000 OA
ATOM     73   O  A00 X   4      38.780   4.682  51.8970  0.00  0.00     0.000 O
ATOM     74   O  A00 X   4      38.068   5.805  49.8880  0.00  0.00     0.000 OA
ATOM     75   S  A00 X   4      37.889   5.828  51.3040  0.00  0.00     0.000 S
ENDBRANCH 62 70
ENDBRANCH 57 61
ENDBRANCH 41 57
ENDBRANCH 40 44
ENDBRANCH 20 40
ENDBRANCH 19 23
ENDBRANCH 1 19
TORSDOF 14
ENDMDL
MODEL 24
REMARK VINA RESULT:      -3.3     41.561     46.313
ROOT
ATOM      1  C1  A00 X   1      36.250  15.316  53.7930  0.00  0.00     0.000 C
ATOM      2  C2  A00 X   1      35.131  16.128  54.4980  0.00  0.00     0.000 C
ATOM      3  C3  A00 X   1      35.598  17.105  55.6280  0.00  0.00     0.000 C
ATOM      4  C4  A00 X   1      37.040  16.879  56.1520  0.00  0.00     0.000 C
ATOM      5  C5  A00 X   1      37.536  15.459  55.8840  0.00  0.00     0.000 C
ATOM      6  O5  A00 X   1      37.544  15.338  54.4440  0.00  0.00     0.000 O
ATOM      7   O  A00 X   1      34.731  16.955  56.7490  0.00  0.00     0.000 O
ATOM      9  HD  A00 X   1      35.538  17.024  57.0570  0.00  0.00     0.000 HD
ATOM      9   O  A00 X   1      37.952  17.823  55.5910  0.00  0.00     0.000 O
ATOM     11  HD  A00 X   1      38.759  17.892  55.8990  0.00  0.00     0.000 HD
ENDROOT
BRANCH 2 11
ATOM     11   O  A00 X   1      34.431  16.880  53.4880  0.00  0.00     0.000 O
ATOM     12   O  A00 X   1      32.409  18.082  53.9710  0.00  0.00     0.000 OA
ATOM     13   O  A00 X   1      32.430  15.658  54.1690  0.00  0.00     0.000 OA
ATOM     14   O  A00 X   1      32.612  16.694  52.0360  0.00  0.00     0.000 OA
ATOM     15   S  A00 X   1      32.866  16.820  53.4460  0.00  0.00     0.000 S
ENDBRANCH 2 11
BRANCH 5 16
ATOM     16   C  A00 X   1      36.743  14.352  56.5870  0.00  0.00     0.000 C
ATOM     17   O  A00 X   1      36.029  14.653  57.5220  0.00  0.00     0.000 OA
ATOM     18   O  A00 X   1      36.797  13.189  56.2390  0.00  0.00     0.000 OA
ENDBRANCH 5 16
BRANCH 1 19
ATOM     19  O4  A00 X   2      35.843  13.964  53.4700  0.00  0.00     0.000 O
BRANCH 19 23
ATOM     20  C1  A00 X   2      37.079  11.308  50.3420  0.00  0.00     0.000 C
ATOM     21  C2  A00 X   2      38.007  11.443  51.5740  0.00  0.00     0.000 C
ATOM     22  C3  A00 X   2      37.251  12.064  52.7660  0.00  0.00     0.000 C
ATOM     23  C4  A00 X   2      36.598  13.404  52.3580  0.00  0.00     0.000 C
ATOM     24  C5  A00 X   2      35.713  13.139  51.1090  0.00  0.00     0.000 C
ATOM     25  O5  A00 X   2      36.552  12.628  50.0410  0.00  0.00     0.000 O
ATOM     26   O  A00 X   2      38.134  12.105  53.9010  0.00  0.00     0.000 O
ATOM     28  HD  A00 X   2      38.773  12.481  53.4540  0.00  0.00     0.000 HD
BRANCH 21 30
ATOM     28   N  A00 X   2      39.156  11.275  50.6780  0.00  0.00     0.000 N
ATOM     30  HD  A00 X   2      39.446  11.149  51.4850  0.00  0.00     0.000 HD
ATOM     30   O  A00 X   2      40.854  10.196  51.8680  0.00  0.00     0.000 OA
ATOM     31   S  A00 X   2      40.611  11.460  51.2680  0.00  0.00     0.000 S
ATOM     32   O  A00 X   2      41.410  11.746  50.1170  0.00  0.00     0.000 OA
ATOM     33   O  A00 X   2      40.573  12.596  52.1410  0.00  0.00     0.000 OA
ENDBRANCH 21 30
BRANCH 24 34
ATOM     34   C  A00 X   2      34.768  14.269  50.6370  0.00  0.00     0.000 C
ATOM     35   O  A00 X   2      34.967  15.864  47.3700  0.00  0.00     0.000 OA
ATOM     36   O  A00 X   2      35.294  14.938  49.4730  0.00  0.00     0.000 O
ATOM     37   O  A00 X   2      34.730  13.533  47.6900  0.00  0.00     0.000 OA
ATOM     38   S  A00 X   2      34.403  14.836  48.1810  0.00  0.00     0.000 S
ATOM     39   O  A00 X   2      33.053  15.067  48.6010  0.00  0.00     0.000 OA
ENDBRANCH 24 34
BRANCH 20 40
ATOM     40  O4  A00 X   3      36.008  10.447  50.7570  0.00  0.00     0.000 O
BRANCH 40 44
ATOM     41  C1  A00 X   3      32.504   9.538  50.8950  0.00  0.00     0.000 C
ATOM     42  C2  A00 X   3      33.653   8.714  51.5160  0.00  0.00     0.000 C
ATOM     43  C3  A00 X   3      34.780   8.464  50.4810  0.00  0.00     0.000 C
ATOM     44  C4  A00 X   3      35.265   9.714  49.7590  0.00  0.00     0.000 C
ATOM     45  C5  A00 X   3      34.056  10.485  49.1580  0.00  0.00     0.000 C
ATOM     46  O5  A00 X   3      33.013  10.689  50.1660  0.00  0.00     0.000 O
ATOM     47   O  A00 X   3      35.856   7.637  50.9200  0.00  0.00     0.000 O
ATOM     49  HD  A00 X   3      36.328   8.206  50.4700  0.00  0.00     0.000 HD
BRANCH 42 49
ATOM     49   O  A00 X   3      34.138   9.456  52.6560  0.00  0.00     0.000 O
ATOM     50   O  A00 X   3      35.617   9.042  54.4920  0.00  0.00     0.000 OA
ATOM     51   O  A00 X   3      34.106   7.345  53.8390  0.00  0.00     0.000 OA
ATOM     52   O  A00 X   3      33.237   9.312  54.8200  0.00  0.00     0.000 OA
ATOM     53   S  A00 X   3      34.291   8.761  54.0400  0.00  0.00     0.000 S
ENDBRANCH 42 49
BRANCH 45 54
ATOM     54   C  A00 X   3      33.536   9.817  47.8790  0.00  0.00     0.000 C
ATOM     55   O  A00 X   3      33.922   8.711  47.5580  0.00  0.00     0.000 OA
ATOM     56   O  A00 X   3      32.728  10.385  47.1610  0.00  0.00     0.000 OA
ENDBRANCH 45 54
BRANCH 41 57
ATOM     57  O4  A00 X   4      31.606   8.706  50.1260  0.00  0.00     0.000 O
BRANCH 57 61
ATOM     58  C1  A00 X   4      27.408   9.186  49.2390  0.00  0.00     0.000 C
ATOM     59  C2  A00 X   4      28.434   9.368  48.0920  0.00  0.00     0.000 C
ATOM     60  C3  A00 X   4      29.838   8.828  48.4320  0.00  0.00     0.000 C
ATOM     61  C4  A00 X   4      30.317   9.309  49.8190  0.00  0.00     0.000 C
ATOM     62  C5  A00 X   4      29.249   8.837  50.8360  0.00  0.00     0.000 C
ATOM     63  O5  A00 X   4      27.984   9.480  50.5320  0.00  0.00     0.000 O
BRANCH 59 66
ATOM     64   N  A00 X   4      28.613   9.349  46.6290  0.00  0.00     0.000 N
ATOM     66  HD  A00 X   4      29.277   9.799  46.3020  0.00  0.00     0.000 HD
ATOM     66   O  A00 X   4      26.621  10.692  46.4680  0.00  0.00     0.000 OA
ATOM     67   S  A00 X   4      27.364   9.737  45.7080  0.00  0.00     0.000 S
ATOM     68   O  A00 X   4      28.043  10.257  44.5580  0.00  0.00     0.000 OA
ATOM     69   O  A00 X   4      26.782   8.439  45.5110  0.00  0.00     0.000 OA
ENDBRANCH 59 66
BRANCH 62 70
ATOM     70   C  A00 X   4      29.608   9.132  52.3120  0.00  0.00     0.000 C
ATOM     71   O  A00 X   4      30.434   6.794  54.9490  0.00  0.00     0.000 OA
ATOM     72   O  A00 X   4      28.915   8.592  54.9140  0.00  0.00     0.000 OA
ATOM     73   O  A00 X   4      30.102   7.933  52.9290  0.00  0.00     0.000 O
ATOM     74   O  A00 X   4      28.347   6.515  53.7740  0.00  0.00     0.000 OA
ATOM     75   S  A00 X   4      29.368   7.411  54.2130  0.00  0.00     0.000 S
ENDBRANCH 62 70
ENDBRANCH 57 61
ENDBRANCH 41 57
ENDBRANCH 40 44
ENDBRANCH 20 40
ENDBRANCH 19 23
ENDBRANCH 1 19
TORSDOF 14
ENDMDL
MODEL 25
REMARK VINA RESULT:      -3.2     40.168     44.040
ROOT
ATOM      1  C1  A00 X   1      36.943  15.542  50.8670  0.00  0.00     0.000 C
ATOM      2  C2  A00 X   1      36.194  16.764  51.4620  0.00  0.00     0.000 C
ATOM      3  C3  A00 X   1      36.896  17.483  52.6610  0.00  0.00     0.000 C
ATOM      4  C4  A00 X   1      38.042  16.689  53.3390  0.00  0.00     0.000 C
ATOM      5  C5  A00 X   1      37.925  15.184  53.0930  0.00  0.00     0.000 C
ATOM      6  O5  A00 X   1      38.046  15.036  51.6610  0.00  0.00     0.000 O
ATOM      7   O  A00 X   1      35.925  17.736  53.6740  0.00  0.00     0.000 O
ATOM      9  HD  A00 X   1      36.645  17.470  54.0720  0.00  0.00     0.000 HD
ATOM      9   O  A00 X   1      39.322  17.150  52.9090  0.00  0.00     0.000 O
ATOM     11  HD  A00 X   1      40.043  16.883  53.3080  0.00  0.00     0.000 HD
ENDROOT
BRANCH 2 11
ATOM     11   O  A00 X   1      35.992  17.715  50.3980  0.00  0.00     0.000 O
ATOM     12   O  A00 X   1      37.210  17.587  48.3320  0.00  0.00     0.000 OA
ATOM     13   O  A00 X   1      38.417  18.014  50.4010  0.00  0.00     0.000 OA
ATOM     14   O  A00 X   1      36.942  19.652  49.5050  0.00  0.00     0.000 OA
ATOM     15   S  A00 X   1      37.239  18.249  49.6120  0.00  0.00     0.000 S
ENDBRANCH 2 11
BRANCH 5 16
ATOM     16   C  A00 X   1      36.668  14.528  53.6740  0.00  0.00     0.000 C
ATOM     17   O  A00 X   1      36.038  15.128  54.5210  0.00  0.00     0.000 OA
ATOM     18   O  A00 X   1      36.277  13.436  53.3130  0.00  0.00     0.000 OA
ENDBRANCH 5 16
BRANCH 1 19
ATOM     19  O4  A00 X   2      36.048  14.475  50.4670  0.00  0.00     0.000 O
BRANCH 19 23
ATOM     20  C1  A00 X   2      36.490  11.313  47.6080  0.00  0.00     0.000 C
ATOM     21  C2  A00 X   2      37.348  11.239  48.8950  0.00  0.00     0.000 C
ATOM     22  C3  A00 X   2      36.782  12.169  49.9870  0.00  0.00     0.000 C
ATOM     23  C4  A00 X   2      36.630  13.610  49.4500  0.00  0.00     0.000 C
ATOM     24  C5  A00 X   2      35.771  13.546  48.1570  0.00  0.00     0.000 C
ATOM     25  O5  A00 X   2      36.446  12.703  47.1880  0.00  0.00     0.000 O
ATOM     26   O  A00 X   2      37.569  12.013  51.1800  0.00  0.00     0.000 O
ATOM     28  HD  A00 X   2      38.319  12.121  50.7600  0.00  0.00     0.000 HD
BRANCH 21 30
ATOM     28   N  A00 X   2      37.918  10.104  48.1610  0.00  0.00     0.000 N
ATOM     30  HD  A00 X   2      38.477  10.300  48.7930  0.00  0.00     0.000 HD
ATOM     30   O  A00 X   2      39.602   9.160  49.4760  0.00  0.00     0.000 OA
ATOM     31   S  A00 X   2      39.477   9.854  48.2440  0.00  0.00     0.000 S
ATOM     32   O  A00 X   2      39.756   9.072  47.0790  0.00  0.00     0.000 OA
ATOM     33   O  A00 X   2      40.117  11.132  48.1500  0.00  0.00     0.000 OA
ENDBRANCH 21 30
BRANCH 24 34
ATOM     34   C  A00 X   2      35.278  14.880  47.5470  0.00  0.00     0.000 C
ATOM     35   O  A00 X   2      31.813  15.995  47.6100  0.00  0.00     0.000 OA
ATOM     36   O  A00 X   2      33.844  14.891  47.4040  0.00  0.00     0.000 O
ATOM     37   O  A00 X   2      33.049  15.415  49.5410  0.00  0.00     0.000 OA
ATOM     38   S  A00 X   2      33.095  15.997  48.2340  0.00  0.00     0.000 S
ATOM     39   O  A00 X   2      33.848  17.204  48.0710  0.00  0.00     0.000 OA
ENDBRANCH 24 34
BRANCH 20 40
ATOM     40  O4  A00 X   3      35.176  10.887  47.9930  0.00  0.00     0.000 O
BRANCH 40 44
ATOM     41  C1  A00 X   3      31.716   9.904  48.4320  0.00  0.00     0.000 C
ATOM     42  C2  A00 X   3      32.933   9.051  48.8500  0.00  0.00     0.000 C
ATOM     43  C3  A00 X   3      33.942   8.912  47.6800  0.00  0.00     0.000 C
ATOM     44  C4  A00 X   3      34.334  10.229  47.0220  0.00  0.00     0.000 C
ATOM     45  C5  A00 X   3      33.059  11.026  46.6270  0.00  0.00     0.000 C
ATOM     46  O5  A00 X   3      32.132  11.123  47.7560  0.00  0.00     0.000 O
ATOM     47   O  A00 X   3      35.067   8.070  47.9250  0.00  0.00     0.000 O
ATOM     49  HD  A00 X   3      35.482   8.685  47.4780  0.00  0.00     0.000 HD
BRANCH 42 49
ATOM     49   O  A00 X   3      33.534   9.701  49.9910  0.00  0.00     0.000 O
ATOM     50   O  A00 X   3      34.802   9.020  51.9040  0.00  0.00     0.000 OA
ATOM     51   O  A00 X   3      32.961   7.701  51.2270  0.00  0.00     0.000 OA
ATOM     52   O  A00 X   3      32.541   9.851  52.1130  0.00  0.00     0.000 OA
ATOM     53   S  A00 X   3      33.466   9.040  51.3990  0.00  0.00     0.000 S
ENDBRANCH 42 49
BRANCH 45 54
ATOM     54   C  A00 X   3      32.408  10.462  45.3580  0.00  0.00     0.000 C
ATOM     55   O  A00 X   3      32.918   9.538  44.7590  0.00  0.00     0.000 OA
ATOM     56   O  A00 X   3      31.366  10.932  44.9280  0.00  0.00     0.000 OA
ENDBRANCH 45 54
BRANCH 41 57
ATOM     57  O4  A00 X   4      30.746   9.126  47.6950  0.00  0.00     0.000 O
BRANCH 57 61
ATOM     58  C1  A00 X   4      26.441   9.414  47.8240  0.00  0.00     0.000 C
ATOM     59  C2  A00 X   4      27.155   9.595  46.4610  0.00  0.00     0.000 C
ATOM     60  C3  A00 X   4      28.623   9.121  46.4690  0.00  0.00     0.000 C
ATOM     61  C4  A00 X   4      29.395   9.668  47.6890  0.00  0.00     0.000 C
ATOM     62  C5  A00 X   4      28.621   9.192  48.9440  0.00  0.00     0.000 C
ATOM     63  O5  A00 X   4      27.293   9.774  48.9350  0.00  0.00     0.000 O
BRANCH 59 66
ATOM     64   N  A00 X   4      26.733   9.181  45.1110  0.00  0.00     0.000 N
ATOM     66  HD  A00 X   4      27.242   9.403  44.4470  0.00  0.00     0.000 HD
ATOM     66   O  A00 X   4      24.951  10.791  45.2840  0.00  0.00     0.000 OA
ATOM     67   S  A00 X   4      25.253   9.555  44.6330  0.00  0.00     0.000 S
ATOM     68   O  A00 X   4      25.453   9.638  43.2150  0.00  0.00     0.000 OA
ATOM     69   O  A00 X   4      24.545   8.382  45.0590  0.00  0.00     0.000 OA
ENDBRANCH 59 66
BRANCH 62 70
ATOM     70   C  A00 X   4      29.307   9.552  50.2840  0.00  0.00     0.000 C
ATOM     71   O  A00 X   4      28.643   8.232  53.5890  0.00  0.00     0.000 OA
ATOM     72   O  A00 X   4      28.850  10.454  52.8370  0.00  0.00     0.000 OA
ATOM     73   O  A00 X   4      28.902   8.612  51.2920  0.00  0.00     0.000 O
ATOM     74   O  A00 X   4      26.818   9.201  52.3480  0.00  0.00     0.000 OA
ATOM     75   S  A00 X   4      28.224   9.174  52.5900  0.00  0.00     0.000 S
ENDBRANCH 62 70
ENDBRANCH 57 61
ENDBRANCH 41 57
ENDBRANCH 40 44
ENDBRANCH 20 40
ENDBRANCH 19 23
ENDBRANCH 1 19
TORSDOF 14
ENDMDL
MODEL 26
REMARK VINA RESULT:      -3.1     39.707     44.455
ROOT
ATOM      1  C1  A00 X   1      35.419  15.979  53.3710  0.00  0.00     0.000 C
ATOM      2  C2  A00 X   1      34.343  16.153  54.4760  0.00  0.00     0.000 C
ATOM      3  C3  A00 X   1      34.851  16.706  55.8480  0.00  0.00     0.000 C
ATOM      4  C4  A00 X   1      36.386  16.665  56.0590  0.00  0.00     0.000 C
ATOM      5  C5  A00 X   1      37.064  15.627  55.1640  0.00  0.00     0.000 C
ATOM      6  O5  A00 X   1      36.795  16.072  53.8160  0.00  0.00     0.000 O
ATOM      7   O  A00 X   1      34.277  15.927  56.8960  0.00  0.00     0.000 O
ATOM      9  HD  A00 X   1      35.104  16.072  57.1090  0.00  0.00     0.000 HD
ATOM      9   O  A00 X   1      36.977  17.946  55.8440  0.00  0.00     0.000 O
ATOM     11  HD  A00 X   1      37.804  18.091  56.0560  0.00  0.00     0.000 HD
ENDROOT
BRANCH 2 11
ATOM     11   O  A00 X   1      33.325  17.034  53.9620  0.00  0.00     0.000 O
ATOM     12   O  A00 X   1      31.248  17.383  55.1160  0.00  0.00     0.000 OA
ATOM     13   O  A00 X   1      31.772  15.171  54.2510  0.00  0.00     0.000 OA
ATOM     14   O  A00 X   1      31.323  16.971  52.7630  0.00  0.00     0.000 OA
ATOM     15   S  A00 X   1      31.824  16.594  54.0570  0.00  0.00     0.000 S
ENDBRANCH 2 11
BRANCH 5 16
ATOM     16   C  A00 X   1      36.647  14.176  55.4250  0.00  0.00     0.000 C
ATOM     17   O  A00 X   1      36.100  13.908  56.4750  0.00  0.00     0.000 OA
ATOM     18   O  A00 X   1      36.837  13.288  54.6180  0.00  0.00     0.000 OA
ENDBRANCH 5 16
BRANCH 1 19
ATOM     19  O4  A00 X   2      35.205  14.798  52.5600  0.00  0.00     0.000 O
BRANCH 19 23
ATOM     20  C1  A00 X   2      36.175  13.964  48.4700  0.00  0.00     0.000 C
ATOM     21  C2  A00 X   2      37.307  13.823  49.5160  0.00  0.00     0.000 C
ATOM     22  C3  A00 X   2      36.728  13.725  50.9420  0.00  0.00     0.000 C
ATOM     23  C4  A00 X   2      35.789  14.919  51.2310  0.00  0.00     0.000 C
ATOM     24  C5  A00 X   2      34.717  14.961  50.1090  0.00  0.00     0.000 C
ATOM     25  O5  A00 X   2      35.384  15.128  48.8310  0.00  0.00     0.000 O
ATOM     26   O  A00 X   2      37.811  13.528  51.8670  0.00  0.00     0.000 O
ATOM     28  HD  A00 X   2      38.270  14.190  51.5500  0.00  0.00     0.000 HD
BRANCH 21 30
ATOM     28   N  A00 X   2      38.261  12.769  49.8760  0.00  0.00     0.000 N
ATOM     30  HD  A00 X   2      38.607  13.204  49.2120  0.00  0.00     0.000 HD
ATOM     30   O  A00 X   2      40.318  13.284  48.8960  0.00  0.00     0.000 OA
ATOM     31   S  A00 X   2      39.308  12.291  48.7920  0.00  0.00     0.000 S
ATOM     32   O  A00 X   2      39.691  10.989  49.2430  0.00  0.00     0.000 OA
ATOM     33   O  A00 X   2      38.613  12.200  47.5430  0.00  0.00     0.000 OA
ENDBRANCH 21 30
BRANCH 24 34
ATOM     34   C  A00 X   2      33.518  15.923  50.2860  0.00  0.00     0.000 C
ATOM     35   O  A00 X   2      32.334  18.205  47.7090  0.00  0.00     0.000 OA
ATOM     36   O  A00 X   2      33.504  16.935  49.2600  0.00  0.00     0.000 O
ATOM     37   O  A00 X   2      32.552  15.870  47.4070  0.00  0.00     0.000 OA
ATOM     38   S  A00 X   2      32.239  16.923  48.3250  0.00  0.00     0.000 S
ATOM     39   O  A00 X   2      31.105  16.743  49.1800  0.00  0.00     0.000 OA
ENDBRANCH 24 34
BRANCH 20 40
ATOM     40  O4  A00 X   3      35.375  12.780  48.6030  0.00  0.00     0.000 O
BRANCH 40 44
ATOM     41  C1  A00 X   3      32.750  10.283  48.5920  0.00  0.00     0.000 C
ATOM     42  C2  A00 X   3      34.262   9.971  48.5610  0.00  0.00     0.000 C
ATOM     43  C3  A00 X   3      34.973  10.777  47.4430  0.00  0.00     0.000 C
ATOM     44  C4  A00 X   3      34.671  12.270  47.4500  0.00  0.00     0.000 C
ATOM     45  C5  A00 X   3      33.134  12.503  47.4750  0.00  0.00     0.000 C
ATOM     46  O5  A00 X   3      32.504  11.716  48.5380  0.00  0.00     0.000 O
ATOM     47   O  A00 X   3      36.361  10.503  47.2650  0.00  0.00     0.000 O
ATOM     49  HD  A00 X   3      36.399  11.360  47.1400  0.00  0.00     0.000 HD
BRANCH 42 49
ATOM     49   O  A00 X   3      34.789  10.300  49.8650  0.00  0.00     0.000 O
ATOM     50   O  A00 X   3      36.922  10.202  50.9480  0.00  0.00     0.000 OA
ATOM     51   O  A00 X   3      36.256   8.398  49.5730  0.00  0.00     0.000 OA
ATOM     52   O  A00 X   3      35.100   8.753  51.6040  0.00  0.00     0.000 OA
ATOM     53   S  A00 X   3      35.831   9.369  50.5500  0.00  0.00     0.000 S
ENDBRANCH 42 49
BRANCH 45 54
ATOM     54   C  A00 X   3      32.502  12.272  46.0980  0.00  0.00     0.000 C
ATOM     55   O  A00 X   3      33.114  11.689  45.2260  0.00  0.00     0.000 OA
ATOM     56   O  A00 X   3      31.374  12.671  45.8520  0.00  0.00     0.000 OA
ENDBRANCH 45 54
BRANCH 41 57
ATOM     57  O4  A00 X   4      32.029   9.526  47.5950  0.00  0.00     0.000 O
BRANCH 57 61
ATOM     58  C1  A00 X   4      27.786   8.865  47.1430  0.00  0.00     0.000 C
ATOM     59  C2  A00 X   4      28.523   9.710  46.0730  0.00  0.00     0.000 C
ATOM     60  C3  A00 X   4      30.058   9.578  46.1370  0.00  0.00     0.000 C
ATOM     61  C4  A00 X   4      30.589   9.741  47.5770  0.00  0.00     0.000 C
ATOM     62  C5  A00 X   4      29.875   8.663  48.4300  0.00  0.00     0.000 C
ATOM     63  O5  A00 X   4      28.447   8.921  48.4270  0.00  0.00     0.000 O
BRANCH 59 66
ATOM     64   N  A00 X   4      28.395  11.172  45.9450  0.00  0.00     0.000 N
ATOM     66  HD  A00 X   4      28.336  11.634  46.6760  0.00  0.00     0.000 HD
ATOM     66   O  A00 X   4      26.174  10.803  45.0900  0.00  0.00     0.000 OA
ATOM     67   S  A00 X   4      27.240  11.752  45.0030  0.00  0.00     0.000 S
ATOM     68   O  A00 X   4      26.996  13.013  45.6390  0.00  0.00     0.000 OA
ATOM     69   O  A00 X   4      27.951  11.848  43.7600  0.00  0.00     0.000 OA
ENDBRANCH 59 66
BRANCH 62 70
ATOM     70   C  A00 X   4      30.360   8.594  49.8970  0.00  0.00     0.000 C
ATOM     71   O  A00 X   4      29.245  10.538  52.7410  0.00  0.00     0.000 OA
ATOM     72   O  A00 X   4      31.416  10.074  51.9560  0.00  0.00     0.000 OA
ATOM     73   O  A00 X   4      29.474   9.364  50.7270  0.00  0.00     0.000 O
ATOM     74   O  A00 X   4      30.036  11.706  50.7850  0.00  0.00     0.000 OA
ATOM     75   S  A00 X   4      30.093  10.523  51.5820  0.00  0.00     0.000 S
ENDBRANCH 62 70
ENDBRANCH 57 61
ENDBRANCH 41 57
ENDBRANCH 40 44
ENDBRANCH 20 40
ENDBRANCH 19 23
ENDBRANCH 1 19
TORSDOF 14
ENDMDL
MODEL 27
REMARK VINA RESULT:      -3.1     36.819     43.907
ROOT
ATOM      1  C1  A00 X   1      38.918   8.495  49.2120  0.00  0.00     0.000 C
ATOM      2  C2  A00 X   1      38.632   9.599  50.2650  0.00  0.00     0.000 C
ATOM      3  C3  A00 X   1      37.154   9.704  50.7670  0.00  0.00     0.000 C
ATOM      4  C4  A00 X   1      36.101   8.963  49.9030  0.00  0.00     0.000 C
ATOM      5  C5  A00 X   1      36.585   8.736  48.4710  0.00  0.00     0.000 C
ATOM      6  O5  A00 X   1      37.748   7.889  48.6080  0.00  0.00     0.000 O
ATOM      7   O  A00 X   1      36.772  11.078  50.7810  0.00  0.00     0.000 O
ATOM      9  HD  A00 X   1      36.099  10.629  50.4710  0.00  0.00     0.000 HD
ATOM      9   O  A00 X   1      35.728   7.717  50.4900  0.00  0.00     0.000 O
ATOM     11  HD  A00 X   1      35.055   7.268  50.1800  0.00  0.00     0.000 HD
ENDROOT
BRANCH 2 11
ATOM     11   O  A00 X   1      39.495   9.361  51.3950  0.00  0.00     0.000 O
ATOM     12   O  A00 X   1      39.115  10.403  53.5250  0.00  0.00     0.000 OA
ATOM     13   O  A00 X   1      39.653  11.790  51.6010  0.00  0.00     0.000 OA
ATOM     14   O  A00 X   1      41.287  10.333  52.5310  0.00  0.00     0.000 OA
ATOM     15   S  A00 X   1      39.885  10.566  52.3180  0.00  0.00     0.000 S
ENDBRANCH 2 11
BRANCH 5 16
ATOM     16   C  A00 X   1      36.847  10.012  47.6650  0.00  0.00     0.000 C
ATOM     17   O  A00 X   1      37.590   9.953  46.7080  0.00  0.00     0.000 OA
ATOM     18   O  A00 X   1      36.333  11.077  47.9460  0.00  0.00     0.000 OA
ENDBRANCH 5 16
BRANCH 1 19
ATOM     19  O4  A00 X   2      39.875   8.912  48.2080  0.00  0.00     0.000 O
BRANCH 19 23
ATOM     20  C1  A00 X   2      44.126   8.423  47.9800  0.00  0.00     0.000 C
ATOM     21  C2  A00 X   2      43.267   7.144  48.1220  0.00  0.00     0.000 C
ATOM     22  C3  A00 X   2      41.794   7.428  47.7590  0.00  0.00     0.000 C
ATOM     23  C4  A00 X   2      41.249   8.613  48.5880  0.00  0.00     0.000 C
ATOM     24  C5  A00 X   2      42.203   9.820  48.3750  0.00  0.00     0.000 C
ATOM     25  O5  A00 X   2      43.533   9.448  48.8210  0.00  0.00     0.000 O
ATOM     26   O  A00 X   2      41.053   6.199  47.8400  0.00  0.00     0.000 O
ATOM     28  HD  A00 X   2      41.354   6.011  48.6300  0.00  0.00     0.000 HD
BRANCH 21 30
ATOM     28   N  A00 X   2      43.118   5.868  47.4140  0.00  0.00     0.000 N
ATOM     30  HD  A00 X   2      43.794   5.781  47.9480  0.00  0.00     0.000 HD
ATOM     30   O  A00 X   2      44.347   4.249  48.5670  0.00  0.00     0.000 OA
ATOM     31   S  A00 X   2      44.370   4.909  47.3090  0.00  0.00     0.000 S
ATOM     32   O  A00 X   2      44.067   4.078  46.1860  0.00  0.00     0.000 OA
ATOM     33   O  A00 X   2      45.510   5.730  47.0270  0.00  0.00     0.000 OA
ENDBRANCH 21 30
BRANCH 24 34
ATOM     34   C  A00 X   2      41.758  11.200  48.9130  0.00  0.00     0.000 C
ATOM     35   O  A00 X   2      41.318  14.155  46.8310  0.00  0.00     0.000 OA
ATOM     36   O  A00 X   2      42.010  12.242  47.9490  0.00  0.00     0.000 O
ATOM     37   O  A00 X   2      40.221  12.095  46.4500  0.00  0.00     0.000 OA
ATOM     38   S  A00 X   2      40.734  13.001  47.4320  0.00  0.00     0.000 S
ATOM     39   O  A00 X   2      39.923  13.261  48.5830  0.00  0.00     0.000 OA
ENDBRANCH 24 34
BRANCH 20 40
ATOM     40  O4  A00 X   3      44.019   8.811  46.6020  0.00  0.00     0.000 O
BRANCH 40 44
ATOM     41  C1  A00 X   3      43.770  10.751  43.5530  0.00  0.00     0.000 C
ATOM     42  C2  A00 X   3      44.170   9.261  43.6180  0.00  0.00     0.000 C
ATOM     43  C3  A00 X   3      45.305   9.035  44.6490  0.00  0.00     0.000 C
ATOM     44  C4  A00 X   3      45.045   9.645  46.0210  0.00  0.00     0.000 C
ATOM     45  C5  A00 X   3      44.654  11.142  45.8730  0.00  0.00     0.000 C
ATOM     46  O5  A00 X   3      43.587  11.309  44.8830  0.00  0.00     0.000 O
ATOM     47   O  A00 X   3      45.816   7.707  44.7320  0.00  0.00     0.000 O
ATOM     49  HD  A00 X   3      45.837   7.888  45.5790  0.00  0.00     0.000 HD
BRANCH 42 49
ATOM     49   O  A00 X   3      42.981   8.519  43.9700  0.00  0.00     0.000 O
ATOM     50   O  A00 X   3      42.442   6.236  44.4470  0.00  0.00     0.000 OA
ATOM     51   O  A00 X   3      43.921   6.711  42.6640  0.00  0.00     0.000 OA
ATOM     52   O  A00 X   3      41.651   7.332  42.4420  0.00  0.00     0.000 OA
ATOM     53   S  A00 X   3      42.721   7.114  43.3540  0.00  0.00     0.000 S
ENDBRANCH 42 49
BRANCH 45 54
ATOM     54   C  A00 X   3      45.878  12.023  45.5950  0.00  0.00     0.000 C
ATOM     55   O  A00 X   3      45.744  13.197  45.3140  0.00  0.00     0.000 OA
ATOM     56   O  A00 X   3      47.007  11.561  45.6510  0.00  0.00     0.000 OA
ENDBRANCH 45 54
BRANCH 41 57
ATOM     57  O4  A00 X   4      44.672  11.510  42.7170  0.00  0.00     0.000 O
BRANCH 57 61
ATOM     58  C1  A00 X   4      43.986  14.530  39.7090  0.00  0.00     0.000 C
ATOM     59  C2  A00 X   4      44.331  14.983  41.1490  0.00  0.00     0.000 C
ATOM     60  C3  A00 X   4      44.900  13.852  42.0300  0.00  0.00     0.000 C
ATOM     61  C4  A00 X   4      44.048  12.568  41.9360  0.00  0.00     0.000 C
ATOM     62  C5  A00 X   4      44.011  12.178  40.4370  0.00  0.00     0.000 C
ATOM     63  O5  A00 X   4      43.352  13.230  39.6860  0.00  0.00     0.000 O
BRANCH 59 66
ATOM     64   N  A00 X   4      43.388  15.588  42.1080  0.00  0.00     0.000 N
ATOM     66  HD  A00 X   4      42.582  15.273  42.1280  0.00  0.00     0.000 HD
ATOM     66   O  A00 X   4      43.407  17.561  40.7280  0.00  0.00     0.000 OA
ATOM     67   S  A00 X   4      43.205  17.176  42.0900  0.00  0.00     0.000 S
ATOM     68   O  A00 X   4      41.858  17.287  42.5680  0.00  0.00     0.000 OA
ATOM     69   O  A00 X   4      44.203  17.557  43.0490  0.00  0.00     0.000 OA
ENDBRANCH 59 66
BRANCH 62 70
ATOM     70   C  A00 X   4      43.287  10.841  40.1490  0.00  0.00     0.000 C
ATOM     71   O  A00 X   4      41.289   9.926  37.2730  0.00  0.00     0.000 OA
ATOM     72   O  A00 X   4      40.847   9.719  39.5760  0.00  0.00     0.000 OA
ATOM     73   O  A00 X   4      42.827  10.834  38.7880  0.00  0.00     0.000 O
ATOM     74   O  A00 X   4      40.686  11.905  38.5110  0.00  0.00     0.000 OA
ATOM     75   S  A00 X   4      41.295  10.614  38.5330  0.00  0.00     0.000 S
ENDBRANCH 62 70
ENDBRANCH 57 61
ENDBRANCH 41 57
ENDBRANCH 40 44
ENDBRANCH 20 40
ENDBRANCH 19 23
ENDBRANCH 1 19
TORSDOF 14
ENDMDL
MODEL 28
REMARK VINA RESULT:      -3.0     43.888     48.932
ROOT
ATOM      1  C1  A00 X   1      37.751  13.080  50.7360  0.00  0.00     0.000 C
ATOM      2  C2  A00 X   1      36.881  13.807  51.7960  0.00  0.00     0.000 C
ATOM      3  C3  A00 X   1      36.857  15.369  51.7120  0.00  0.00     0.000 C
ATOM      4  C4  A00 X   1      37.969  16.009  50.8400  0.00  0.00     0.000 C
ATOM      5  C5  A00 X   1      39.175  15.085  50.6740  0.00  0.00     0.000 C
ATOM      6  O5  A00 X   1      38.657  13.925  49.9840  0.00  0.00     0.000 O
ATOM      7   O  A00 X   1      37.016  15.901  53.0250  0.00  0.00     0.000 O
ATOM      9  HD  A00 X   1      37.497  16.386  52.4930  0.00  0.00     0.000 HD
ATOM      9   O  A00 X   1      37.473  16.389  49.5570  0.00  0.00     0.000 O
ATOM     11  HD  A00 X   1      37.953  16.875  49.0260  0.00  0.00     0.000 HD
ENDROOT
BRANCH 2 11
ATOM     11   O  A00 X   1      35.534  13.310  51.6730  0.00  0.00     0.000 O
ATOM     12   O  A00 X   1      33.844  13.804  53.3060  0.00  0.00     0.000 OA
ATOM     13   O  A00 X   1      35.783  12.488  53.9590  0.00  0.00     0.000 OA
ATOM     14   O  A00 X   1      34.167  11.591  52.4630  0.00  0.00     0.000 OA
ATOM     15   S  A00 X   1      34.800  12.784  52.9540  0.00  0.00     0.000 S
ENDBRANCH 2 11
BRANCH 5 16
ATOM     16   C  A00 X   1      39.915  14.745  51.9720  0.00  0.00     0.000 C
ATOM     17   O  A00 X   1      40.742  13.857  51.9550  0.00  0.00     0.000 OA
ATOM     18   O  A00 X   1      39.709  15.337  53.0140  0.00  0.00     0.000 OA
ENDBRANCH 5 16
BRANCH 1 19
ATOM     19  O4  A00 X   2      38.433  11.919  51.2710  0.00  0.00     0.000 O
BRANCH 19 23
ATOM     20  C1  A00 X   2      39.729   8.283  49.4110  0.00  0.00     0.000 C
ATOM     21  C2  A00 X   2      40.563   9.559  49.1420  0.00  0.00     0.000 C
ATOM     22  C3  A00 X   2      40.250  10.650  50.1880  0.00  0.00     0.000 C
ATOM     23  C4  A00 X   2      38.731  10.926  50.2480  0.00  0.00     0.000 C
ATOM     24  C5  A00 X   2      38.012   9.573  50.5020  0.00  0.00     0.000 C
ATOM     25  O5  A00 X   2      38.328   8.665  49.4150  0.00  0.00     0.000 O
ATOM     26   O  A00 X   2      41.096  11.785  49.9370  0.00  0.00     0.000 O
ATOM     28  HD  A00 X   2      40.892  11.815  49.0960  0.00  0.00     0.000 HD
BRANCH 21 30
ATOM     28   N  A00 X   2      41.988   9.882  49.2610  0.00  0.00     0.000 N
ATOM     30  HD  A00 X   2      41.877   9.522  48.4810  0.00  0.00     0.000 HD
ATOM     30   O  A00 X   2      42.931   9.811  47.1250  0.00  0.00     0.000 OA
ATOM     31   S  A00 X   2      43.021   9.103  48.3530  0.00  0.00     0.000 S
ATOM     32   O  A00 X   2      44.262   9.252  49.0470  0.00  0.00     0.000 OA
ATOM     33   O  A00 X   2      42.620   7.728  48.3400  0.00  0.00     0.000 OA
ENDBRANCH 21 30
BRANCH 24 34
ATOM     34   C  A00 X   2      36.501   9.606  50.8330  0.00  0.00     0.000 C
ATOM     35   O  A00 X   2      33.903  10.455  48.4280  0.00  0.00     0.000 OA
ATOM     36   O  A00 X   2      35.758  10.305  49.8150  0.00  0.00     0.000 O
ATOM     37   O  A00 X   2      35.490   8.732  48.1050  0.00  0.00     0.000 OA
ATOM     38   S  A00 X   2      34.687   9.441  49.0530  0.00  0.00     0.000 S
ATOM     39   O  A00 X   2      34.003   8.673  50.0500  0.00  0.00     0.000 OA
ENDBRANCH 24 34
BRANCH 20 40
ATOM     40  O4  A00 X   3      40.110   7.840  50.7210  0.00  0.00     0.000 O
BRANCH 40 44
ATOM     41  C1  A00 X   3      40.188   6.394  54.0420  0.00  0.00     0.000 C
ATOM     42  C2  A00 X   3      41.435   6.694  53.1830  0.00  0.00     0.000 C
ATOM     43  C3  A00 X   3      41.288   6.093  51.7610  0.00  0.00     0.000 C
ATOM     44  C4  A00 X   3      39.982   6.442  51.0590  0.00  0.00     0.000 C
ATOM     45  C5  A00 X   3      38.776   6.108  51.9820  0.00  0.00     0.000 C
ATOM     46  O5  A00 X   3      38.962   6.685  53.3150  0.00  0.00     0.000 O
ATOM     47   O  A00 X   3      42.420   6.234  50.9050  0.00  0.00     0.000 O
ATOM     49  HD  A00 X   3      41.809   6.374  50.3080  0.00  0.00     0.000 HD
BRANCH 42 49
ATOM     49   O  A00 X   3      41.583   8.130  53.1370  0.00  0.00     0.000 O
ATOM     50   O  A00 X   3      43.102   9.684  52.1350  0.00  0.00     0.000 OA
ATOM     51   O  A00 X   3      43.968   7.722  53.1290  0.00  0.00     0.000 OA
ATOM     52   O  A00 X   3      43.011   9.367  54.5300  0.00  0.00     0.000 OA
ATOM     53   S  A00 X   3      42.994   8.779  53.2360  0.00  0.00     0.000 S
ENDBRANCH 42 49
BRANCH 45 54
ATOM     54   C  A00 X   3      38.483   4.603  52.0120  0.00  0.00     0.000 C
ATOM     55   O  A00 X   3      37.428   4.187  52.4430  0.00  0.00     0.000 OA
ATOM     56   O  A00 X   3      39.306   3.798  51.6040  0.00  0.00     0.000 OA
ENDBRANCH 45 54
BRANCH 41 57
ATOM     57  O4  A00 X   4      40.234   5.064  54.6060  0.00  0.00     0.000 O
BRANCH 57 61
ATOM     58  C1  A00 X   4      37.843   3.169  57.6600  0.00  0.00     0.000 C
ATOM     59  C2  A00 X   4      37.569   2.814  56.1770  0.00  0.00     0.000 C
ATOM     60  C3  A00 X   4      38.694   3.258  55.2210  0.00  0.00     0.000 C
ATOM     61  C4  A00 X   4      39.117   4.721  55.4740  0.00  0.00     0.000 C
ATOM     62  C5  A00 X   4      39.549   4.799  56.9590  0.00  0.00     0.000 C
ATOM     63  O5  A00 X   4      38.411   4.491  57.8040  0.00  0.00     0.000 O
BRANCH 59 66
ATOM     64   N  A00 X   4      36.374   3.360  55.5100  0.00  0.00     0.000 N
ATOM     66  HD  A00 X   4      36.115   4.154  55.7410  0.00  0.00     0.000 HD
ATOM     66   O  A00 X   4      35.075   1.742  56.7300  0.00  0.00     0.000 OA
ATOM     67   S  A00 X   4      35.039   2.480  55.5070  0.00  0.00     0.000 S
ATOM     68   O  A00 X   4      34.047   3.514  55.4390  0.00  0.00     0.000 OA
ATOM     69   O  A00 X   4      35.217   1.754  54.2810  0.00  0.00     0.000 OA
ENDBRANCH 59 66
BRANCH 62 70
ATOM     70   C  A00 X   4      40.117   6.175  57.3810  0.00  0.00     0.000 C
ATOM     71   O  A00 X   4      38.316   9.201  58.2260  0.00  0.00     0.000 OA
ATOM     72   O  A00 X   4      40.131   8.852  56.7660  0.00  0.00     0.000 OA
ATOM     73   O  A00 X   4      39.045   7.005  57.8580  0.00  0.00     0.000 O
ATOM     74   O  A00 X   4      37.893   8.166  56.0890  0.00  0.00     0.000 OA
ATOM     75   S  A00 X   4      38.818   8.387  57.1540  0.00  0.00     0.000 S
ENDBRANCH 62 70
ENDBRANCH 57 61
ENDBRANCH 41 57
ENDBRANCH 40 44
ENDBRANCH 20 40
ENDBRANCH 19 23
ENDBRANCH 1 19
TORSDOF 14
ENDMDL
MODEL 29
REMARK VINA RESULT:      -3.0     44.893     51.340
ROOT
ATOM      1  C1  A00 X   1      40.250   9.782  50.6820  0.00  0.00     0.000 C
ATOM      2  C2  A00 X   1      38.983  10.590  50.2940  0.00  0.00     0.000 C
ATOM      3  C3  A00 X   1      39.159  12.142  50.2040  0.00  0.00     0.000 C
ATOM      4  C4  A00 X   1      40.445  12.708  50.8570  0.00  0.00     0.000 C
ATOM      5  C5  A00 X   1      41.018  11.766  51.9160  0.00  0.00     0.000 C
ATOM      6  O5  A00 X   1      41.360  10.564  51.1900  0.00  0.00     0.000 O
ATOM      7   O  A00 X   1      38.060  12.766  50.8650  0.00  0.00     0.000 O
ATOM      9  HD  A00 X   1      38.773  13.208  51.0810  0.00  0.00     0.000 HD
ATOM      9   O  A00 X   1      41.443  12.999  49.8790  0.00  0.00     0.000 O
ATOM     11  HD  A00 X   1      42.156  13.441  50.0950  0.00  0.00     0.000 HD
ENDROOT
BRANCH 2 11
ATOM     11   O  A00 X   1      38.520  10.095  49.0230  0.00  0.00     0.000 O
ATOM     12   O  A00 X   1      39.871   8.664  47.6480  0.00  0.00     0.000 OA
ATOM     13   O  A00 X   1      40.617  10.936  48.0940  0.00  0.00     0.000 OA
ATOM     14   O  A00 X   1      38.703  10.540  46.7380  0.00  0.00     0.000 OA
ATOM     15   S  A00 X   1      39.519  10.051  47.8160  0.00  0.00     0.000 S
ENDBRANCH 2 11
BRANCH 5 16
ATOM     16   C  A00 X   1      40.107  11.516  53.1220  0.00  0.00     0.000 C
ATOM     17   O  A00 X   1      40.401  10.630  53.8980  0.00  0.00     0.000 OA
ATOM     18   O  A00 X   1      39.109  12.176  53.3320  0.00  0.00     0.000 OA
ENDBRANCH 5 16
BRANCH 1 19
ATOM     19  O4  A00 X   2      39.956   8.658  51.5470  0.00  0.00     0.000 O
BRANCH 19 23
ATOM     20  C1  A00 X   2      40.226   4.429  50.9060  0.00  0.00     0.000 C
ATOM     21  C2  A00 X   2      41.547   5.236  50.9180  0.00  0.00     0.000 C
ATOM     22  C3  A00 X   2      41.342   6.617  51.5750  0.00  0.00     0.000 C
ATOM     23  C4  A00 X   2      40.181   7.376  50.8930  0.00  0.00     0.000 C
ATOM     24  C5  A00 X   2      38.928   6.459  50.9300  0.00  0.00     0.000 C
ATOM     25  O5  A00 X   2      39.228   5.230  50.2190  0.00  0.00     0.000 O
ATOM     26   O  A00 X   2      42.607   7.297  51.6240  0.00  0.00     0.000 O
ATOM     28  HD  A00 X   2      42.774   7.153  50.7860  0.00  0.00     0.000 HD
BRANCH 21 30
ATOM     28   N  A00 X   2      42.076   4.342  49.8830  0.00  0.00     0.000 N
ATOM     30  HD  A00 X   2      42.754   4.756  50.2270  0.00  0.00     0.000 HD
ATOM     30   O  A00 X   2      44.378   4.126  50.2160  0.00  0.00     0.000 OA
ATOM     31   S  A00 X   2      43.488   4.665  49.2500  0.00  0.00     0.000 S
ATOM     32   O  A00 X   2      43.464   3.975  47.9980  0.00  0.00     0.000 OA
ATOM     33   O  A00 X   2      43.541   6.081  49.0370  0.00  0.00     0.000 OA
ENDBRANCH 21 30
BRANCH 24 34
ATOM     34   C  A00 X   2      37.569   7.071  50.5160  0.00  0.00     0.000 C
ATOM     35   O  A00 X   2      34.472   6.605  52.3740  0.00  0.00     0.000 OA
ATOM     36   O  A00 X   2      36.477   6.441  51.2160  0.00  0.00     0.000 O
ATOM     37   O  A00 X   2      36.460   7.472  53.3160  0.00  0.00     0.000 OA
ATOM     38   S  A00 X   2      35.639   7.393  52.1470  0.00  0.00     0.000 S
ATOM     39   O  A00 X   2      35.423   8.598  51.4040  0.00  0.00     0.000 OA
ENDBRANCH 24 34
BRANCH 20 40
ATOM     40  O4  A00 X   3      39.853   4.275  52.2830  0.00  0.00     0.000 O
BRANCH 40 44
ATOM     41  C1  A00 X   3      38.893   3.108  55.5750  0.00  0.00     0.000 C
ATOM     42  C2  A00 X   3      39.869   2.373  54.6310  0.00  0.00     0.000 C
ATOM     43  C3  A00 X   3      39.254   2.205  53.2180  0.00  0.00     0.000 C
ATOM     44  C4  A00 X   3      38.691   3.486  52.6160  0.00  0.00     0.000 C
ATOM     45  C5  A00 X   3      37.716   4.163  53.6200  0.00  0.00     0.000 C
ATOM     46  O5  A00 X   3      38.334   4.292  54.9420  0.00  0.00     0.000 O
ATOM     47   O  A00 X   3      40.034   1.462  52.2840  0.00  0.00     0.000 O
ATOM     49  HD  A00 X   3      39.743   2.064  51.7330  0.00  0.00     0.000 HD
BRANCH 42 49
ATOM     49   O  A00 X   3      41.084   3.153  54.5880  0.00  0.00     0.000 O
ATOM     50   O  A00 X   3      43.185   3.026  53.4490  0.00  0.00     0.000 OA
ATOM     51   O  A00 X   3      42.236   1.043  54.3170  0.00  0.00     0.000 OA
ATOM     52   O  A00 X   3      43.016   2.678  55.8350  0.00  0.00     0.000 OA
ATOM     53   S  A00 X   3      42.470   2.447  54.5420  0.00  0.00     0.000 S
ENDBRANCH 42 49
BRANCH 45 54
ATOM     54   C  A00 X   3      36.356   3.455  53.6570  0.00  0.00     0.000 C
ATOM     55   O  A00 X   3      35.417   3.950  54.2460  0.00  0.00     0.000 OA
ATOM     56   O  A00 X   3      36.195   2.382  53.0960  0.00  0.00     0.000 OA
ENDBRANCH 45 54
BRANCH 41 57
ATOM     57  O4  A00 X   4      37.900   2.210  56.1210  0.00  0.00     0.000 O
BRANCH 57 61
ATOM     58  C1  A00 X   4      35.764   2.318  59.8710  0.00  0.00     0.000 C
ATOM     59  C2  A00 X   4      34.989   2.635  58.5670  0.00  0.00     0.000 C
ATOM     60  C3  A00 X   4      35.744   2.220  57.2880  0.00  0.00     0.000 C
ATOM     61  C4  A00 X   4      37.212   2.697  57.3080  0.00  0.00     0.000 C
ATOM     62  C5  A00 X   4      37.850   2.092  58.5830  0.00  0.00     0.000 C
ATOM     63  O5  A00 X   4      37.172   2.621  59.7520  0.00  0.00     0.000 O
BRANCH 59 66
ATOM     64   N  A00 X   4      34.343   3.832  57.9990  0.00  0.00     0.000 N
ATOM     66  HD  A00 X   4      34.798   4.569  57.9970  0.00  0.00     0.000 HD
ATOM     66   O  A00 X   4      32.889   3.835  59.9190  0.00  0.00     0.000 OA
ATOM     67   S  A00 X   4      32.900   4.247  58.5500  0.00  0.00     0.000 S
ATOM     68   O  A00 X   4      32.937   5.663  58.3330  0.00  0.00     0.000 OA
ATOM     69   O  A00 X   4      32.062   3.532  57.6290  0.00  0.00     0.000 OA
ENDBRANCH 59 66
BRANCH 62 70
ATOM     70   C  A00 X   4      39.365   2.370  58.7260  0.00  0.00     0.000 C
ATOM     71   O  A00 X   4      42.090  -0.005  58.9370  0.00  0.00     0.000 OA
ATOM     72   O  A00 X   4      41.577   1.866  60.2730  0.00  0.00     0.000 OA
ATOM     73   O  A00 X   4      40.093   1.148  58.5210  0.00  0.00     0.000 O
ATOM     74   O  A00 X   4      40.280  -0.182  60.5210  0.00  0.00     0.000 OA
ATOM     75   S  A00 X   4      41.049   0.664  59.6660  0.00  0.00     0.000 S
ENDBRANCH 62 70
ENDBRANCH 57 61
ENDBRANCH 41 57
ENDBRANCH 40 44
ENDBRANCH 20 40
ENDBRANCH 19 23
ENDBRANCH 1 19
TORSDOF 14
ENDMDL
MODEL 30
REMARK VINA RESULT:      -3.0     41.720     45.692
ROOT
ATOM      1  C1  A00 X   1      38.531  14.717  52.1340  0.00  0.00     0.000 C
ATOM      2  C2  A00 X   1      37.895  15.854  52.9770  0.00  0.00     0.000 C
ATOM      3  C3  A00 X   1      38.776  16.423  54.1390  0.00  0.00     0.000 C
ATOM      4  C4  A00 X   1      39.997  15.556  54.5380  0.00  0.00     0.000 C
ATOM      5  C5  A00 X   1      39.824  14.093  54.1310  0.00  0.00     0.000 C
ATOM      6  O5  A00 X   1      39.730  14.122  52.6890  0.00  0.00     0.000 O
ATOM      7   O  A00 X   1      37.968  16.547  55.3070  0.00  0.00     0.000 O
ATOM      9  HD  A00 X   1      38.735  16.236  55.5590  0.00  0.00     0.000 HD
ATOM      9   O  A00 X   1      41.207  16.071  53.9830  0.00  0.00     0.000 O
ATOM     11  HD  A00 X   1      41.975  15.760  54.2360  0.00  0.00     0.000 HD
ENDROOT
BRANCH 2 11
ATOM     11   O  A00 X   1      37.553  16.928  52.0790  0.00  0.00     0.000 O
ATOM     12   O  A00 X   1      38.447  17.055  49.8540  0.00  0.00     0.000 OA
ATOM     13   O  A00 X   1      39.956  17.228  51.7540  0.00  0.00     0.000 OA
ATOM     14   O  A00 X   1      38.392  18.961  51.2950  0.00  0.00     0.000 OA
ATOM     15   S  A00 X   1      38.677  17.556  51.1850  0.00  0.00     0.000 S
ENDBRANCH 2 11
BRANCH 5 16
ATOM     16   C  A00 X   1      38.657  13.366  54.8060  0.00  0.00     0.000 C
ATOM     17   O  A00 X   1      38.325  12.278  54.3800  0.00  0.00     0.000 OA
ATOM     18   O  A00 X   1      38.058  13.834  55.7540  0.00  0.00     0.000 OA
ENDBRANCH 5 16
BRANCH 1 19
ATOM     19  O4  A00 X   2      37.571  13.705  51.7430  0.00  0.00     0.000 O
BRANCH 19 23
ATOM     20  C1  A00 X   2      37.461  11.035  48.3930  0.00  0.00     0.000 C
ATOM     21  C2  A00 X   2      38.507  10.751  49.4980  0.00  0.00     0.000 C
ATOM     22  C3  A00 X   2      38.148  11.500  50.7990  0.00  0.00     0.000 C
ATOM     23  C4  A00 X   2      37.959  13.009  50.5240  0.00  0.00     0.000 C
ATOM     24  C5  A00 X   2      36.906  13.156  49.3920  0.00  0.00     0.000 C
ATOM     25  O5  A00 X   2      37.395  12.474  48.2080  0.00  0.00     0.000 O
ATOM     26   O  A00 X   2      39.108  11.151  51.8110  0.00  0.00     0.000 O
ATOM     28  HD  A00 X   2      39.785  11.320  51.2990  0.00  0.00     0.000 HD
BRANCH 21 30
ATOM     28   N  A00 X   2      39.314  10.049  50.5010  0.00  0.00     0.000 N
ATOM     30  HD  A00 X   2      39.393   9.607  49.7600  0.00  0.00     0.000 HD
ATOM     30   O  A00 X   2      40.758   8.593  49.3810  0.00  0.00     0.000 OA
ATOM     31   S  A00 X   2      39.652   8.522  50.2680  0.00  0.00     0.000 S
ATOM     32   O  A00 X   2      39.958   8.039  51.5790  0.00  0.00     0.000 OA
ATOM     33   O  A00 X   2      38.462   7.896  49.7730  0.00  0.00     0.000 OA
ENDBRANCH 21 30
BRANCH 24 34
ATOM     34   C  A00 X   2      36.366  14.573  49.0840  0.00  0.00     0.000 C
ATOM     35   O  A00 X   2      32.927  15.616  49.6690  0.00  0.00     0.000 OA
ATOM     36   O  A00 X   2      34.925  14.592  49.0780  0.00  0.00     0.000 O
ATOM     37   O  A00 X   2      34.335  14.709  51.3380  0.00  0.00     0.000 OA
ATOM     38   S  A00 X   2      34.262  15.519  50.1610  0.00  0.00     0.000 S
ATOM     39   O  A00 X   2      35.002  16.745  50.1530  0.00  0.00     0.000 OA
ENDBRANCH 24 34
BRANCH 20 40
ATOM     40  O4  A00 X   3      36.210  10.560  48.9120  0.00  0.00     0.000 O
BRANCH 40 44
ATOM     41  C1  A00 X   3      32.868   9.439  49.7470  0.00  0.00     0.000 C
ATOM     42  C2  A00 X   3      34.137   8.563  49.8320  0.00  0.00     0.000 C
ATOM     43  C3  A00 X   3      34.942   8.623  48.5090  0.00  0.00     0.000 C
ATOM     44  C4  A00 X   3      35.222  10.032  48.0010  0.00  0.00     0.000 C
ATOM     45  C5  A00 X   3      33.900  10.848  47.9390  0.00  0.00     0.000 C
ATOM     46  O5  A00 X   3      33.168  10.754  49.2040  0.00  0.00     0.000 O
ATOM     47   O  A00 X   3      36.093   7.783  48.4410  0.00  0.00     0.000 O
ATOM     49  HD  A00 X   3      36.429   8.467  48.0310  0.00  0.00     0.000 HD
BRANCH 42 49
ATOM     49   O  A00 X   3      34.915   9.053  50.9470  0.00  0.00     0.000 O
ATOM     50   O  A00 X   3      36.486   8.132  52.5000  0.00  0.00     0.000 OA
ATOM     51   O  A00 X   3      34.567   6.872  51.9370  0.00  0.00     0.000 OA
ATOM     52   O  A00 X   3      34.286   8.849  53.2000  0.00  0.00     0.000 OA
ATOM     53   S  A00 X   3      35.084   8.186  52.2280  0.00  0.00     0.000 S
ENDBRANCH 42 49
BRANCH 45 54
ATOM     54   C  A00 X   3      33.052  10.461  46.7210  0.00  0.00     0.000 C
ATOM     55   O  A00 X   3      33.396   9.556  45.9890  0.00  0.00     0.000 OA
ATOM     56   O  A00 X   3      32.017  11.057  46.4650  0.00  0.00     0.000 OA
ENDBRANCH 45 54
BRANCH 41 57
ATOM     57  O4  A00 X   4      31.792   8.755  49.0680  0.00  0.00     0.000 O
BRANCH 57 61
ATOM     58  C1  A00 X   4      27.546   9.176  49.7300  0.00  0.00     0.000 C
ATOM     59  C2  A00 X   4      28.101   9.412  48.3030  0.00  0.00     0.000 C
ATOM     60  C3  A00 X   4      29.539   8.891  48.1090  0.00  0.00     0.000 C
ATOM     61  C4  A00 X   4      30.472   9.340  49.2540  0.00  0.00     0.000 C
ATOM     62  C5  A00 X   4      29.834   8.817  50.5650  0.00  0.00     0.000 C
ATOM     63  O5  A00 X   4      28.538   9.442  50.7480  0.00  0.00     0.000 O
BRANCH 59 66
ATOM     64   N  A00 X   4      27.536   9.131  46.9710  0.00  0.00     0.000 N
ATOM     66  HD  A00 X   4      27.982   9.405  46.2810  0.00  0.00     0.000 HD
ATOM     66   O  A00 X   4      25.821  10.747  47.4670  0.00  0.00     0.000 OA
ATOM     67   S  A00 X   4      26.026   9.572  46.6800  0.00  0.00     0.000 S
ATOM     68   O  A00 X   4      26.086   9.781  45.2630  0.00  0.00     0.000 OA
ATOM     69   O  A00 X   4      25.334   8.376  47.0700  0.00  0.00     0.000 OA
ENDBRANCH 59 66
BRANCH 62 70
ATOM     70   C  A00 X   4      30.687   9.075  51.8300  0.00  0.00     0.000 C
ATOM     71   O  A00 X   4      30.179   7.833  55.1930  0.00  0.00     0.000 OA
ATOM     72   O  A00 X   4      30.602  10.013  54.4100  0.00  0.00     0.000 OA
ATOM     73   O  A00 X   4      30.261   8.190  52.8790  0.00  0.00     0.000 O
ATOM     74   O  A00 X   4      28.385   9.041  54.1270  0.00  0.00     0.000 OA
ATOM     75   S  A00 X   4      29.792   8.828  54.2320  0.00  0.00     0.000 S
ENDBRANCH 62 70
ENDBRANCH 57 61
ENDBRANCH 41 57
ENDBRANCH 40 44
ENDBRANCH 20 40
ENDBRANCH 19 23
ENDBRANCH 1 19
TORSDOF 14
ENDMDL
MODEL 31
REMARK VINA RESULT:      -2.9      6.627     12.043
ROOT
ATOM      1  C1  A00 X   1      28.422  35.368  15.2010  0.00  0.00     0.000 C
ATOM      2  C2  A00 X   1      28.764  33.985  15.8180  0.00  0.00     0.000 C
ATOM      3  C3  A00 X   1      28.164  33.698  17.2340  0.00  0.00     0.000 C
ATOM      4  C4  A00 X   1      27.623  34.936  17.9950  0.00  0.00     0.000 C
ATOM      5  C5  A00 X   1      28.246  36.239  17.4940  0.00  0.00     0.000 C
ATOM      6  O5  A00 X   1      27.838  36.332  16.1110  0.00  0.00     0.000 O
ATOM      7   O  A00 X   1      29.181  33.130  18.0550  0.00  0.00     0.000 O
ATOM      9  HD  A00 X   1      28.744  33.696  18.5440  0.00  0.00     0.000 HD
ATOM      9   O  A00 X   1      26.200  35.018  17.9130  0.00  0.00     0.000 O
ATOM     11  HD  A00 X   1      25.763  35.584  18.4020  0.00  0.00     0.000 HD
ENDROOT
BRANCH 2 11
ATOM     11   O  A00 X   1      28.309  32.971  14.9010  0.00  0.00     0.000 O
ATOM     12   O  A00 X   1      28.879  30.656  15.1840  0.00  0.00     0.000 OA
ATOM     13   O  A00 X   1      30.644  32.271  14.7460  0.00  0.00     0.000 OA
ATOM     14   O  A00 X   1      29.051  31.740  13.0610  0.00  0.00     0.000 OA
ATOM     15   S  A00 X   1      29.302  31.836  14.4740  0.00  0.00     0.000 S
ENDBRANCH 2 11
BRANCH 5 16
ATOM     16   C  A00 X   1      29.760  36.352  17.6950  0.00  0.00     0.000 C
ATOM     17   O  A00 X   1      30.354  37.254  17.1410  0.00  0.00     0.000 OA
ATOM     18   O  A00 X   1      30.385  35.578  18.3930  0.00  0.00     0.000 OA
ENDBRANCH 5 16
BRANCH 1 19
ATOM     19  O4  A00 X   2      29.528  35.941  14.4620  0.00  0.00     0.000 O
BRANCH 19 23
ATOM     20  C1  A00 X   2      29.613  38.540  11.0560  0.00  0.00     0.000 C
ATOM     21  C2  A00 X   2      29.327  39.180  12.4360  0.00  0.00     0.000 C
ATOM     22  C3  A00 X   2      29.751  38.234  13.5780  0.00  0.00     0.000 C
ATOM     23  C4  A00 X   2      29.088  36.848  13.4110  0.00  0.00     0.000 C
ATOM     24  C5  A00 X   2      29.432  36.326  11.9890  0.00  0.00     0.000 C
ATOM     25  O5  A00 X   2      28.918  37.265  11.0090  0.00  0.00     0.000 O
ATOM     26   O  A00 X   2      29.530  38.899  14.8340  0.00  0.00     0.000 O
ATOM     28  HD  A00 X   2      28.717  39.119  14.6320  0.00  0.00     0.000 HD
BRANCH 21 30
ATOM     28   N  A00 X   2      28.353  40.097  11.8350  0.00  0.00     0.000 N
ATOM     30  HD  A00 X   2      28.589  40.443  12.5930  0.00  0.00     0.000 HD
ATOM     30   O  A00 X   2      28.502  42.147  12.9450  0.00  0.00     0.000 OA
ATOM     31   S  A00 X   2      27.566  41.092  12.7770  0.00  0.00     0.000 S
ATOM     32   O  A00 X   2      26.403  41.431  12.0170  0.00  0.00     0.000 OA
ATOM     33   O  A00 X   2      27.196  40.360  13.9520  0.00  0.00     0.000 OA
ENDBRANCH 21 30
BRANCH 24 34
ATOM     34   C  A00 X   2      29.081  34.858  11.6500  0.00  0.00     0.000 C
ATOM     35   O  A00 X   2      25.682  33.567  11.4480  0.00  0.00     0.000 OA
ATOM     36   O  A00 X   2      27.712  34.557  11.9860  0.00  0.00     0.000 O
ATOM     37   O  A00 X   2      26.472  35.412  10.1960  0.00  0.00     0.000 OA
ATOM     38   S  A00 X   2      26.799  34.144  10.7740  0.00  0.00     0.000 S
ATOM     39   O  A00 X   2      27.567  33.232   9.9820  0.00  0.00     0.000 OA
ENDBRANCH 24 34
BRANCH 20 40
ATOM     40  O4  A00 X   3      31.029  38.316  11.0180  0.00  0.00     0.000 O
BRANCH 40 44
ATOM     41  C1  A00 X   3      34.588  37.970  10.4320  0.00  0.00     0.000 C
ATOM     42  C2  A00 X   3      33.842  39.317  10.5510  0.00  0.00     0.000 C
ATOM     43  C3  A00 X   3      32.606  39.351   9.6160  0.00  0.00     0.000 C
ATOM     44  C4  A00 X   3      31.684  38.145   9.7420  0.00  0.00     0.000 C
ATOM     45  C5  A00 X   3      32.504  36.832   9.6070  0.00  0.00     0.000 C
ATOM     46  O5  A00 X   3      33.666  36.848  10.4990  0.00  0.00     0.000 O
ATOM     47   O  A00 X   3      31.888  40.583   9.5780  0.00  0.00     0.000 O
ATOM     49  HD  A00 X   3      31.203  40.054   9.5490  0.00  0.00     0.000 HD
BRANCH 42 49
ATOM     49   O  A00 X   3      33.462  39.470  11.9360  0.00  0.00     0.000 O
ATOM     50   O  A00 X   3      32.288  41.098  13.2410  0.00  0.00     0.000 OA
ATOM     51   O  A00 X   3      33.826  41.840  11.6060  0.00  0.00     0.000 OA
ATOM     52   O  A00 X   3      34.662  40.726  13.5160  0.00  0.00     0.000 OA
ATOM     53   S  A00 X   3      33.558  40.860  12.6290  0.00  0.00     0.000 S
ENDBRANCH 42 49
BRANCH 45 54
ATOM     54   C  A00 X   3      32.868  36.537   8.1470  0.00  0.00     0.000 C
ATOM     55   O  A00 X   3      32.226  37.024   7.2390  0.00  0.00     0.000 OA
ATOM     56   O  A00 X   3      33.808  35.807   7.8720  0.00  0.00     0.000 OA
ENDBRANCH 45 54
BRANCH 41 57
ATOM     57  O4  A00 X   4      35.463  37.944   9.2830  0.00  0.00     0.000 O
BRANCH 57 61
ATOM     58  C1  A00 X   4      38.223  34.892   7.9770  0.00  0.00     0.000 C
ATOM     59  C2  A00 X   4      36.899  34.455   8.6510  0.00  0.00     0.000 C
ATOM     60  C3  A00 X   4      35.854  35.585   8.7440  0.00  0.00     0.000 C
ATOM     61  C4  A00 X   4      36.467  36.890   9.2940  0.00  0.00     0.000 C
ATOM     62  C5  A00 X   4      37.638  37.254   8.3480  0.00  0.00     0.000 C
ATOM     63  O5  A00 X   4      38.641  36.208   8.4060  0.00  0.00     0.000 O
BRANCH 59 66
ATOM     64   N  A00 X   4      36.281  33.301   7.9740  0.00  0.00     0.000 N
ATOM     66  HD  A00 X   4      35.475  33.086   8.2060  0.00  0.00     0.000 HD
ATOM     66   O  A00 X   4      37.826  31.896   9.1730  0.00  0.00     0.000 OA
ATOM     67   S  A00 X   4      37.082  31.916   7.9530  0.00  0.00     0.000 S
ATOM     68   O  A00 X   4      35.992  30.988   7.8790  0.00  0.00     0.000 OA
ATOM     69   O  A00 X   4      37.812  32.065   6.7260  0.00  0.00     0.000 OA
ENDBRANCH 59 66
BRANCH 62 70
ATOM     70   C  A00 X   4      38.318  38.605   8.6750  0.00  0.00     0.000 C
ATOM     71   O  A00 X   4      40.603  40.538   6.6370  0.00  0.00     0.000 OA
ATOM     72   O  A00 X   4      40.745  39.873   8.8920  0.00  0.00     0.000 OA
ATOM     73   O  A00 X   4      38.941  39.122   7.4880  0.00  0.00     0.000 O
ATOM     74   O  A00 X   4      41.155  38.243   7.1270  0.00  0.00     0.000 OA
ATOM     75   S  A00 X   4      40.478  39.429   7.5410  0.00  0.00     0.000 S
ENDBRANCH 62 70
ENDBRANCH 57 61
ENDBRANCH 41 57
ENDBRANCH 40 44
ENDBRANCH 20 40
ENDBRANCH 19 23
ENDBRANCH 1 19
TORSDOF 14
ENDMDL
MODEL 32
REMARK VINA RESULT:      -2.8     39.295     45.961
ROOT
ATOM      1  C1  A00 X   1      37.936   8.113  50.5590  0.00  0.00     0.000 C
ATOM      2  C2  A00 X   1      38.116   9.486  51.2590  0.00  0.00     0.000 C
ATOM      3  C3  A00 X   1      36.803  10.204  51.7130  0.00  0.00     0.000 C
ATOM      4  C4  A00 X   1      35.492   9.653  51.0950  0.00  0.00     0.000 C
ATOM      5  C5  A00 X   1      35.741   8.906  49.7850  0.00  0.00     0.000 C
ATOM      6  O5  A00 X   1      36.583   7.791  50.1520  0.00  0.00     0.000 O
ATOM      7   O  A00 X   1      36.879  11.578  51.3400  0.00  0.00     0.000 O
ATOM      9  HD  A00 X   1      36.073  11.312  51.1700  0.00  0.00     0.000 HD
ATOM      9   O  A00 X   1      34.801   8.803  52.0100  0.00  0.00     0.000 O
ATOM     11  HD  A00 X   1      33.994   8.537  51.8410  0.00  0.00     0.000 HD
ENDROOT
BRANCH 2 11
ATOM     11   O  A00 X   1      38.962   9.285  52.4080  0.00  0.00     0.000 O
ATOM     12   O  A00 X   1      39.144  10.924  54.1540  0.00  0.00     0.000 OA
ATOM     13   O  A00 X   1      39.910  11.482  51.9140  0.00  0.00     0.000 OA
ATOM     14   O  A00 X   1      41.073   9.868  53.2180  0.00  0.00     0.000 OA
ATOM     15   S  A00 X   1      39.805  10.491  52.9490  0.00  0.00     0.000 S
ENDBRANCH 2 11
BRANCH 5 16
ATOM     16   C  A00 X   1      36.317   9.761  48.6510  0.00  0.00     0.000 C
ATOM     17   O  A00 X   1      36.275  10.970  48.7560  0.00  0.00     0.000 OA
ATOM     18   O  A00 X   1      36.818   9.274  47.6570  0.00  0.00     0.000 OA
ENDBRANCH 5 16
BRANCH 1 19
ATOM     19  O4  A00 X   2      38.877   7.907  49.4770  0.00  0.00     0.000 O
BRANCH 19 23
ATOM     20  C1  A00 X   2      42.691   5.956  49.3780  0.00  0.00     0.000 C
ATOM     21  C2  A00 X   2      41.478   5.129  49.8680  0.00  0.00     0.000 C
ATOM     22  C3  A00 X   2      40.152   5.795  49.4450  0.00  0.00     0.000 C
ATOM     23  C4  A00 X   2      40.107   7.265  49.9200  0.00  0.00     0.000 C
ATOM     24  C5  A00 X   2      41.378   7.977  49.3830  0.00  0.00     0.000 C
ATOM     25  O5  A00 X   2      42.550   7.301  49.9090  0.00  0.00     0.000 O
ATOM     26   O  A00 X   2      39.061   4.957  49.8620  0.00  0.00     0.000 O
ATOM     28  HD  A00 X   2      39.358   4.887  50.6720  0.00  0.00     0.000 HD
BRANCH 21 30
ATOM     28   N  A00 X   2      40.737   3.884  49.6400  0.00  0.00     0.000 N
ATOM     30  HD  A00 X   2      41.453   3.673  50.0790  0.00  0.00     0.000 HD
ATOM     30   O  A00 X   2      41.589   2.257  51.0840  0.00  0.00     0.000 OA
ATOM     31   S  A00 X   2      41.523   2.514  49.6890  0.00  0.00     0.000 S
ATOM     32   O  A00 X   2      40.690   1.619  48.9480  0.00  0.00     0.000 OA
ATOM     33   O  A00 X   2      42.767   2.715  49.0070  0.00  0.00     0.000 OA
ENDBRANCH 21 30
BRANCH 24 34
ATOM     34   C  A00 X   2      41.463   9.515  49.5230  0.00  0.00     0.000 C
ATOM     35   O  A00 X   2      41.627  11.816  46.7060  0.00  0.00     0.000 OA
ATOM     36   O  A00 X   2      41.869  10.132  48.2850  0.00  0.00     0.000 O
ATOM     37   O  A00 X   2      39.910  10.218  47.0090  0.00  0.00     0.000 OA
ATOM     38   S  A00 X   2      40.819  11.117  47.6510  0.00  0.00     0.000 S
ATOM     39   O  A00 X   2      40.314  11.917  48.7270  0.00  0.00     0.000 OA
ENDBRANCH 24 34
BRANCH 20 40
ATOM     40  O4  A00 X   3      42.585   5.991  47.9480  0.00  0.00     0.000 O
BRANCH 40 44
ATOM     41  C1  A00 X   3      43.866   5.933  44.5600  0.00  0.00     0.000 C
ATOM     42  C2  A00 X   3      44.677   5.542  45.8140  0.00  0.00     0.000 C
ATOM     43  C3  A00 X   3      44.584   6.644  46.9010  0.00  0.00     0.000 C
ATOM     44  C4  A00 X   3      43.166   7.097  47.2230  0.00  0.00     0.000 C
ATOM     45  C5  A00 X   3      42.417   7.477  45.9150  0.00  0.00     0.000 C
ATOM     46  O5  A00 X   3      42.540   6.414  44.9150  0.00  0.00     0.000 O
ATOM     47   O  A00 X   3      45.367   6.431  48.0730  0.00  0.00     0.000 O
ATOM     49  HD  A00 X   3      44.669   6.763  48.4640  0.00  0.00     0.000 HD
BRANCH 42 49
ATOM     49   O  A00 X   3      44.144   4.287  46.2890  0.00  0.00     0.000 O
ATOM     50   O  A00 X   3      45.028   2.288  47.2660  0.00  0.00     0.000 OA
ATOM     51   O  A00 X   3      46.195   3.294  45.4730  0.00  0.00     0.000 OA
ATOM     52   O  A00 X   3      44.096   2.302  45.0350  0.00  0.00     0.000 OA
ATOM     53   S  A00 X   3      44.900   2.955  46.0090  0.00  0.00     0.000 S
ENDBRANCH 42 49
BRANCH 45 54
ATOM     54   C  A00 X   3      42.852   8.851  45.3910  0.00  0.00     0.000 C
ATOM     55   O  A00 X   3      42.203   9.421  44.5370  0.00  0.00     0.000 OA
ATOM     56   O  A00 X   3      43.857   9.395  45.8200  0.00  0.00     0.000 OA
ENDBRANCH 45 54
BRANCH 41 57
ATOM     57  O4  A00 X   4      44.606   6.831  43.7030  0.00  0.00     0.000 O
BRANCH 57 61
ATOM     58  C1  A00 X   4      44.496   7.624  39.4610  0.00  0.00     0.000 C
ATOM     59  C2  A00 X   4      43.263   8.005  40.3180  0.00  0.00     0.000 C
ATOM     60  C3  A00 X   4      43.548   8.013  41.8340  0.00  0.00     0.000 C
ATOM     61  C4  A00 X   4      44.289   6.736  42.2860  0.00  0.00     0.000 C
ATOM     62  C5  A00 X   4      45.590   6.667  41.4480  0.00  0.00     0.000 C
ATOM     63  O5  A00 X   4      45.247   6.535  40.0450  0.00  0.00     0.000 O
BRANCH 59 66
ATOM     64   N  A00 X   4      42.472   6.836  39.8940  0.00  0.00     0.000 N
ATOM     66  HD  A00 X   4      42.899   6.169  39.5440  0.00  0.00     0.000 HD
ATOM     66   O  A00 X   4      41.594   8.203  38.1160  0.00  0.00     0.000 OA
ATOM     67   S  A00 X   4      41.227   7.078  38.9180  0.00  0.00     0.000 S
ATOM     68   O  A00 X   4      41.186   5.819  38.2340  0.00  0.00     0.000 OA
ATOM     69   O  A00 X   4      40.180   7.258  39.8840  0.00  0.00     0.000 OA
ENDBRANCH 59 66
BRANCH 62 70
ATOM     70   C  A00 X   4      46.531   5.502  41.8360  0.00  0.00     0.000 C
ATOM     71   O  A00 X   4      47.273   2.481  39.9840  0.00  0.00     0.000 OA
ATOM     72   O  A00 X   4      46.653   2.787  42.2350  0.00  0.00     0.000 OA
ATOM     73   O  A00 X   4      46.712   4.640  40.7020  0.00  0.00     0.000 O
ATOM     74   O  A00 X   4      44.970   2.990  40.4840  0.00  0.00     0.000 OA
ATOM     75   S  A00 X   4      46.339   3.125  40.8640  0.00  0.00     0.000 S
ENDBRANCH 62 70
ENDBRANCH 57 61
ENDBRANCH 41 57
ENDBRANCH 40 44
ENDBRANCH 20 40
ENDBRANCH 19 23
ENDBRANCH 1 19
TORSDOF 14
ENDMDL
MODEL 33
REMARK VINA RESULT:      -2.5     36.997     44.127
ROOT
ATOM      1  C1  A00 X   1      38.536   8.263  49.5780  0.00  0.00     0.000 C
ATOM      2  C2  A00 X   1      38.334   9.415  50.5980  0.00  0.00     0.000 C
ATOM      3  C3  A00 X   1      36.908   9.529  51.2310  0.00  0.00     0.000 C
ATOM      4  C4  A00 X   1      35.790   8.734  50.5090  0.00  0.00     0.000 C
ATOM      5  C5  A00 X   1      36.141   8.440  49.0510  0.00  0.00     0.000 C
ATOM      6  O5  A00 X   1      37.325   7.614  49.1180  0.00  0.00     0.000 O
ATOM      7   O  A00 X   1      36.508  10.898  51.2140  0.00  0.00     0.000 O
ATOM      9  HD  A00 X   1      35.816  10.426  50.9920  0.00  0.00     0.000 HD
ATOM      9   O  A00 X   1      35.494   7.515  51.1900  0.00  0.00     0.000 O
ATOM     11  HD  A00 X   1      34.802   7.044  50.9680  0.00  0.00     0.000 HD
ENDROOT
BRANCH 2 11
ATOM     11   O  A00 X   1      39.303   9.245  51.6500  0.00  0.00     0.000 O
ATOM     12   O  A00 X   1      39.158  10.456  53.7190  0.00  0.00     0.000 OA
ATOM     13   O  A00 X   1      39.520  11.678  51.6470  0.00  0.00     0.000 OA
ATOM     14   O  A00 X   1      41.217  10.258  52.5210  0.00  0.00     0.000 OA
ATOM     15   S  A00 X   1      39.804  10.508  52.4320  0.00  0.00     0.000 S
ENDBRANCH 2 11
BRANCH 5 16
ATOM     16   C  A00 X   1      36.305   9.677  48.1620  0.00  0.00     0.000 C
ATOM     17   O  A00 X   1      36.710   9.528  47.0270  0.00  0.00     0.000 OA
ATOM     18   O  A00 X   1      36.039  10.798  48.5490  0.00  0.00     0.000 OA
ENDBRANCH 5 16
BRANCH 1 19
ATOM     19  O4  A00 X   2      39.388   8.640  48.4680  0.00  0.00     0.000 O
BRANCH 19 23
ATOM     20  C1  A00 X   2      43.631   8.335  47.9530  0.00  0.00     0.000 C
ATOM     21  C2  A00 X   2      42.869   7.055  48.3750  0.00  0.00     0.000 C
ATOM     22  C3  A00 X   2      41.358   7.200  48.1010  0.00  0.00     0.000 C
ATOM     23  C4  A00 X   2      40.803   8.478  48.7700  0.00  0.00     0.000 C
ATOM     24  C5  A00 X   2      41.659   9.679  48.2820  0.00  0.00     0.000 C
ATOM     25  O5  A00 X   2      43.041   9.454  48.6640  0.00  0.00     0.000 O
ATOM     26   O  A00 X   2      40.706   5.966  48.4450  0.00  0.00     0.000 O
ATOM     28  HD  A00 X   2      41.079   5.928  49.2260  0.00  0.00     0.000 HD
BRANCH 21 30
ATOM     28   N  A00 X   2      42.849   5.698  47.8210  0.00  0.00     0.000 N
ATOM     30  HD  A00 X   2      43.511   5.732  48.3780  0.00  0.00     0.000 HD
ATOM     30   O  A00 X   2      44.164   4.335  49.1890  0.00  0.00     0.000 OA
ATOM     31   S  A00 X   2      44.178   4.842  47.8630  0.00  0.00     0.000 S
ATOM     32   O  A00 X   2      43.982   3.863  46.8390  0.00  0.00     0.000 OA
ATOM     33   O  A00 X   2      45.256   5.718  47.5130  0.00  0.00     0.000 OA
ENDBRANCH 21 30
BRANCH 24 34
ATOM     34   C  A00 X   2      41.169  11.106  48.6240  0.00  0.00     0.000 C
ATOM     35   O  A00 X   2      40.152  13.565  46.1400  0.00  0.00     0.000 OA
ATOM     36   O  A00 X   2      41.178  11.955  47.4590  0.00  0.00     0.000 O
ATOM     37   O  A00 X   2      39.210  11.403  46.3220  0.00  0.00     0.000 OA
ATOM     38   S  A00 X   2      39.773  12.514  47.0260  0.00  0.00     0.000 S
ATOM     39   O  A00 X   2      39.119  12.939  48.2270  0.00  0.00     0.000 OA
ENDBRANCH 24 34
BRANCH 20 40
ATOM     40  O4  A00 X   3      43.392   8.481  46.5450  0.00  0.00     0.000 O
BRANCH 40 44
ATOM     41  C1  A00 X   3      43.758   9.023  42.9820  0.00  0.00     0.000 C
ATOM     42  C2  A00 X   3      44.867   8.479  43.9080  0.00  0.00     0.000 C
ATOM     43  C3  A00 X   3      45.050   9.389  45.1490  0.00  0.00     0.000 C
ATOM     44  C4  A00 X   3      43.759   9.715  45.8910  0.00  0.00     0.000 C
ATOM     45  C5  A00 X   3      42.696  10.259  44.8960  0.00  0.00     0.000 C
ATOM     46  O5  A00 X   3      42.565   9.375  43.7360  0.00  0.00     0.000 O
ATOM     47   O  A00 X   3      46.110   9.032  46.0340  0.00  0.00     0.000 O
ATOM     49  HD  A00 X   3      45.534   9.263  46.6370  0.00  0.00     0.000 HD
BRANCH 42 49
ATOM     49   O  A00 X   3      44.483   7.139  44.2870  0.00  0.00     0.000 O
ATOM     50   O  A00 X   3      45.513   4.978  44.2920  0.00  0.00     0.000 OA
ATOM     51   O  A00 X   3      45.850   6.398  42.4320  0.00  0.00     0.000 OA
ATOM     52   O  A00 X   3      43.690   5.509  42.7950  0.00  0.00     0.000 OA
ATOM     53   S  A00 X   3      44.903   5.923  43.4110  0.00  0.00     0.000 S
ENDBRANCH 42 49
BRANCH 45 54
ATOM     54   C  A00 X   3      42.971  11.719  44.5140  0.00  0.00     0.000 C
ATOM     55   O  A00 X   3      42.148  12.362  43.8950  0.00  0.00     0.000 OA
ATOM     56   O  A00 X   3      44.022  12.259  44.8240  0.00  0.00     0.000 OA
ENDBRANCH 45 54
BRANCH 41 57
ATOM     57  O4  A00 X   4      44.246  10.081  42.1270  0.00  0.00     0.000 O
BRANCH 57 61
ATOM     58  C1  A00 X   4      42.966  11.430  38.2310  0.00  0.00     0.000 C
ATOM     59  C2  A00 X   4      41.890  11.162  39.3130  0.00  0.00     0.000 C
ATOM     60  C3  A00 X   4      42.468  11.040  40.7380  0.00  0.00     0.000 C
ATOM     61  C4  A00 X   4      43.689  10.096  40.7820  0.00  0.00     0.000 C
ATOM     62  C5  A00 X   4      44.721  10.671  39.7810  0.00  0.00     0.000 C
ATOM     63  O5  A00 X   4      44.158  10.640  38.4440  0.00  0.00     0.000 O
BRANCH 59 66
ATOM     64   N  A00 X   4      41.082   9.935  39.1960  0.00  0.00     0.000 N
ATOM     66  HD  A00 X   4      41.463   9.235  38.8570  0.00  0.00     0.000 HD
ATOM     66   O  A00 X   4      39.831  11.044  37.4620  0.00  0.00     0.000 OA
ATOM     67   S  A00 X   4      39.668  10.027  38.4540  0.00  0.00     0.000 S
ATOM     68   O  A00 X   4      39.551   8.689  37.9530  0.00  0.00     0.000 OA
ATOM     69   O  A00 X   4      38.814  10.314  39.5720  0.00  0.00     0.000 OA
ENDBRANCH 59 66
BRANCH 62 70
ATOM     70   C  A00 X   4      46.072   9.916  39.7620  0.00  0.00     0.000 C
ATOM     71   O  A00 X   4      47.384   7.689  37.2260  0.00  0.00     0.000 OA
ATOM     72   O  A00 X   4      47.221   7.430  39.5610  0.00  0.00     0.000 OA
ATOM     73   O  A00 X   4      46.281   9.349  38.4580  0.00  0.00     0.000 O
ATOM     74   O  A00 X   4      45.224   7.202  38.1830  0.00  0.00     0.000 OA
ATOM     75   S  A00 X   4      46.508   7.801  38.3590  0.00  0.00     0.000 S
ENDBRANCH 62 70
ENDBRANCH 57 61
ENDBRANCH 41 57
ENDBRANCH 40 44
ENDBRANCH 20 40
ENDBRANCH 19 23
ENDBRANCH 1 19
TORSDOF 14
ENDMDL
MODEL 34
REMARK VINA RESULT:      -2.2     40.532     46.117
ROOT
ATOM      1  C1  A00 X   1      36.835  14.158  49.5470  0.00  0.00     0.000 C
ATOM      2  C2  A00 X   1      36.362  15.557  50.0220  0.00  0.00     0.000 C
ATOM      3  C3  A00 X   1      35.476  15.582  51.3110  0.00  0.00     0.000 C
ATOM      4  C4  A00 X   1      34.879  14.216  51.7390  0.00  0.00     0.000 C
ATOM      5  C5  A00 X   1      34.801  13.230  50.5730  0.00  0.00     0.000 C
ATOM      6  O5  A00 X   1      36.175  13.029  50.1710  0.00  0.00     0.000 O
ATOM      7   O  A00 X   1      34.370  16.455  51.0900  0.00  0.00     0.000 O
ATOM      9  HD  A00 X   1      34.067  15.761  51.5090  0.00  0.00     0.000 HD
ATOM      9   O  A00 X   1      35.619  13.636  52.8120  0.00  0.00     0.000 O
ATOM     11  HD  A00 X   1      35.316  12.942  53.2320  0.00  0.00     0.000 HD
ENDROOT
BRANCH 2 11
ATOM     11   O  A00 X   1      37.534  16.365  50.2430  0.00  0.00     0.000 O
ATOM     12   O  A00 X   1      37.385  18.699  50.7880  0.00  0.00     0.000 OA
ATOM     13   O  A00 X   1      36.586  17.928  48.6230  0.00  0.00     0.000 OA
ATOM     14   O  A00 X   1      38.909  17.891  49.1330  0.00  0.00     0.000 OA
ATOM     15   S  A00 X   1      37.574  17.820  49.6620  0.00  0.00     0.000 S
ENDBRANCH 2 11
BRANCH 5 16
ATOM     16   C  A00 X   1      33.882  13.657  49.4240  0.00  0.00     0.000 C
ATOM     17   O  A00 X   1      33.865  12.984  48.4130  0.00  0.00     0.000 OA
ATOM     18   O  A00 X   1      33.167  14.637  49.4910  0.00  0.00     0.000 OA
ENDBRANCH 5 16
BRANCH 1 19
ATOM     19  O4  A00 X   2      36.848  14.030  48.1040  0.00  0.00     0.000 O
BRANCH 19 23
ATOM     20  C1  A00 X   2      40.041  11.181  47.8820  0.00  0.00     0.000 C
ATOM     21  C2  A00 X   2      40.422  12.666  48.0980  0.00  0.00     0.000 C
ATOM     22  C3  A00 X   2      39.204  13.480  48.5830  0.00  0.00     0.000 C
ATOM     23  C4  A00 X   2      38.011  13.301  47.6180  0.00  0.00     0.000 C
ATOM     24  C5  A00 X   2      37.743  11.778  47.4720  0.00  0.00     0.000 C
ATOM     25  O5  A00 X   2      38.935  11.143  46.9410  0.00  0.00     0.000 O
ATOM     26   O  A00 X   2      39.624  14.832  48.8340  0.00  0.00     0.000 O
ATOM     28  HD  A00 X   2      40.011  14.909  48.0640  0.00  0.00     0.000 HD
BRANCH 21 30
ATOM     28   N  A00 X   2      41.545  12.648  49.0410  0.00  0.00     0.000 N
ATOM     30  HD  A00 X   2      41.866  12.889  48.2730  0.00  0.00     0.000 HD
ATOM     30   O  A00 X   2      43.315  13.837  48.0850  0.00  0.00     0.000 OA
ATOM     31   S  A00 X   2      43.012  12.504  48.4700  0.00  0.00     0.000 S
ATOM     32   O  A00 X   2      43.762  12.011  49.5840  0.00  0.00     0.000 OA
ATOM     33   O  A00 X   2      42.966  11.522  47.4280  0.00  0.00     0.000 OA
ENDBRANCH 21 30
BRANCH 24 34
ATOM     34   C  A00 X   2      36.454  11.335  46.7400  0.00  0.00     0.000 C
ATOM     35   O  A00 X   2      34.607  13.435  44.4080  0.00  0.00     0.000 OA
ATOM     36   O  A00 X   2      35.760  12.465  46.1740  0.00  0.00     0.000 O
ATOM     37   O  A00 X   2      36.902  12.912  44.1820  0.00  0.00     0.000 OA
ATOM     38   S  A00 X   2      35.617  12.448  44.6080  0.00  0.00     0.000 S
ATOM     39   O  A00 X   2      35.241  11.114  44.2490  0.00  0.00     0.000 OA
ENDBRANCH 24 34
BRANCH 20 40
ATOM     40  O4  A00 X   3      39.600  10.704  49.1610  0.00  0.00     0.000 O
BRANCH 40 44
ATOM     41  C1  A00 X   3      37.875   8.823  51.7330  0.00  0.00     0.000 C
ATOM     42  C2  A00 X   3      39.120   9.704  51.9720  0.00  0.00     0.000 C
ATOM     43  C3  A00 X   3      40.250   9.352  50.9700  0.00  0.00     0.000 C
ATOM     44  C4  A00 X   3      39.814   9.319  49.5100  0.00  0.00     0.000 C
ATOM     45  C5  A00 X   3      38.562   8.411  49.3500  0.00  0.00     0.000 C
ATOM     46  O5  A00 X   3      37.527   8.771  50.3210  0.00  0.00     0.000 O
ATOM     47   O  A00 X   3      41.483  10.045  51.1530  0.00  0.00     0.000 O
ATOM     49  HD  A00 X   3      41.475  10.057  50.2870  0.00  0.00     0.000 HD
BRANCH 42 49
ATOM     49   O  A00 X   3      38.699  11.079  51.8330  0.00  0.00     0.000 O
ATOM     50   O  A00 X   3      39.721  13.233  52.0480  0.00  0.00     0.000 OA
ATOM     51   O  A00 X   3      40.238  11.561  53.6380  0.00  0.00     0.000 OA
ATOM     52   O  A00 X   3      38.052  12.460  53.6180  0.00  0.00     0.000 OA
ATOM     53   S  A00 X   3      39.200  12.159  52.8350  0.00  0.00     0.000 S
ENDBRANCH 42 49
BRANCH 45 54
ATOM     54   C  A00 X   3      38.931   6.924  49.3850  0.00  0.00     0.000 C
ATOM     55   O  A00 X   3      40.090   6.576  49.4890  0.00  0.00     0.000 OA
ATOM     56   O  A00 X   3      38.068   6.063  49.3070  0.00  0.00     0.000 OA
ENDBRANCH 45 54
BRANCH 41 57
ATOM     57  O4  A00 X   4      38.012   7.524  52.3520  0.00  0.00     0.000 O
BRANCH 57 61
ATOM     58  C1  A00 X   4      35.007   5.802  54.9290  0.00  0.00     0.000 C
ATOM     59  C2  A00 X   4      35.779   4.869  53.9630  0.00  0.00     0.000 C
ATOM     60  C3  A00 X   4      37.048   5.513  53.3680  0.00  0.00     0.000 C
ATOM     61  C4  A00 X   4      36.769   6.930  52.8230  0.00  0.00     0.000 C
ATOM     62  C5  A00 X   4      36.200   7.749  54.0090  0.00  0.00     0.000 C
ATOM     63  O5  A00 X   4      34.945   7.160  54.4360  0.00  0.00     0.000 O
BRANCH 59 66
ATOM     64   N  A00 X   4      34.348   5.200  54.0850  0.00  0.00     0.000 N
ATOM     66  HD  A00 X   4      34.083   5.562  54.8260  0.00  0.00     0.000 HD
ATOM     66   O  A00 X   4      33.910   2.834  54.1830  0.00  0.00     0.000 OA
ATOM     67   S  A00 X   4      33.276   4.052  53.7850  0.00  0.00     0.000 S
ATOM     68   O  A00 X   4      32.193   4.485  54.6180  0.00  0.00     0.000 OA
ATOM     69   O  A00 X   4      33.060   4.267  52.3820  0.00  0.00     0.000 OA
ENDBRANCH 59 66
BRANCH 62 70
ATOM     70   C  A00 X   4      35.958   9.243  53.6870  0.00  0.00     0.000 C
ATOM     71   O  A00 X   4      35.304  11.972  55.9740  0.00  0.00     0.000 OA
ATOM     72   O  A00 X   4      34.192  11.322  54.0030  0.00  0.00     0.000 OA
ATOM     73   O  A00 X   4      35.988  10.002  54.9060  0.00  0.00     0.000 O
ATOM     74   O  A00 X   4      33.867  10.037  56.0480  0.00  0.00     0.000 OA
ATOM     75   S  A00 X   4      34.728  10.864  55.2650  0.00  0.00     0.000 S
ENDBRANCH 62 70
ENDBRANCH 57 61
ENDBRANCH 41 57
ENDBRANCH 40 44
ENDBRANCH 20 40
ENDBRANCH 19 23
ENDBRANCH 1 19
TORSDOF 14
ENDMDL
MODEL 35
REMARK VINA RESULT:      -2.1     36.697     42.962
ROOT
ATOM      1  C1  A00 X   1      36.561  15.193  50.5750  0.00  0.00     0.000 C
ATOM      2  C2  A00 X   1      36.197  16.659  50.9310  0.00  0.00     0.000 C
ATOM      3  C3  A00 X   1      36.924  17.265  52.1760  0.00  0.00     0.000 C
ATOM      4  C4  A00 X   1      37.623  16.241  53.1060  0.00  0.00     0.000 C
ATOM      5  C5  A00 X   1      37.038  14.836  52.9610  0.00  0.00     0.000 C
ATOM      6  O5  A00 X   1      37.302  14.469  51.5890  0.00  0.00     0.000 O
ATOM      7   O  A00 X   1      35.964  17.951  52.9770  0.00  0.00     0.000 O
ATOM      9  HD  A00 X   1      36.487  17.521  53.5170  0.00  0.00     0.000 HD
ATOM      9   O  A00 X   1      39.031  16.203  52.8760  0.00  0.00     0.000 O
ATOM     11  HD  A00 X   1      39.554  15.773  53.4160  0.00  0.00     0.000 HD
ENDROOT
BRANCH 2 11
ATOM     11   O  A00 X   1      36.483  17.474  49.7770  0.00  0.00     0.000 O
ATOM     12   O  A00 X   1      37.881  16.695  47.9870  0.00  0.00     0.000 OA
ATOM     13   O  A00 X   1      38.840  16.994  50.2030  0.00  0.00     0.000 OA
ATOM     14   O  A00 X   1      38.144  18.877  48.9270  0.00  0.00     0.000 OA
ATOM     15   S  A00 X   1      37.938  17.479  49.1950  0.00  0.00     0.000 S
ENDBRANCH 2 11
BRANCH 5 16
ATOM     16   C  A00 X   1      35.564  14.704  53.3590  0.00  0.00     0.000 C
ATOM     17   O  A00 X   1      35.067  15.574  54.0450  0.00  0.00     0.000 OA
ATOM     18   O  A00 X   1      34.875  13.767  53.0070  0.00  0.00     0.000 OA
ENDBRANCH 5 16
BRANCH 1 19
ATOM     19  O4  A00 X   2      35.423  14.430  50.1060  0.00  0.00     0.000 O
BRANCH 19 23
ATOM     20  C1  A00 X   2      35.167  10.864  47.7430  0.00  0.00     0.000 C
ATOM     21  C2  A00 X   2      35.781  10.741  49.1580  0.00  0.00     0.000 C
ATOM     22  C3  A00 X   2      35.415  11.964  50.0240  0.00  0.00     0.000 C
ATOM     23  C4  A00 X   2      35.814  13.275  49.3100  0.00  0.00     0.000 C
ATOM     24  C5  A00 X   2      35.154  13.268  47.9040  0.00  0.00     0.000 C
ATOM     25  O5  A00 X   2      35.635  12.113  47.1680  0.00  0.00     0.000 O
ATOM     26   O  A00 X   2      35.949  11.770  51.3450  0.00  0.00     0.000 O
ATOM     28  HD  A00 X   2      36.740  11.574  51.0520  0.00  0.00     0.000 HD
BRANCH 21 30
ATOM     28   N  A00 X   2      36.699   9.722  48.6390  0.00  0.00     0.000 N
ATOM     30  HD  A00 X   2      36.714   9.656  49.5020  0.00  0.00     0.000 HD
ATOM     30   O  A00 X   2      37.137   8.196  50.3520  0.00  0.00     0.000 OA
ATOM     31   S  A00 X   2      37.834   9.169  49.5890  0.00  0.00     0.000 S
ATOM     32   O  A00 X   2      38.807   8.641  48.6830  0.00  0.00     0.000 OA
ATOM     33   O  A00 X   2      38.373  10.288  50.3010  0.00  0.00     0.000 OA
ENDBRANCH 21 30
BRANCH 24 34
ATOM     34   C  A00 X   2      35.207  14.571  47.0710  0.00  0.00     0.000 C
ATOM     35   O  A00 X   2      32.352  16.765  46.5300  0.00  0.00     0.000 OA
ATOM     36   O  A00 X   2      33.883  15.032  46.7370  0.00  0.00     0.000 O
ATOM     37   O  A00 X   2      33.146  16.132  48.6650  0.00  0.00     0.000 OA
ATOM     38   S  A00 X   2      33.499  16.444  47.3140  0.00  0.00     0.000 S
ATOM     39   O  A00 X   2      34.635  17.290  47.1030  0.00  0.00     0.000 OA
ENDBRANCH 24 34
BRANCH 20 40
ATOM     40  O4  A00 X   3      33.747  10.928  47.9400  0.00  0.00     0.000 O
BRANCH 40 44
ATOM     41  C1  A00 X   3      30.247  11.721  47.4430  0.00  0.00     0.000 C
ATOM     42  C2  A00 X   3      30.778  10.660  48.4320  0.00  0.00     0.000 C
ATOM     43  C3  A00 X   3      31.762   9.690  47.7290  0.00  0.00     0.000 C
ATOM     44  C4  A00 X   3      32.869  10.374  46.9370  0.00  0.00     0.000 C
ATOM     45  C5  A00 X   3      32.257  11.421  45.9640  0.00  0.00     0.000 C
ATOM     46  O5  A00 X   3      31.328  12.308  46.6670  0.00  0.00     0.000 O
ATOM     47   O  A00 X   3      32.250   8.612  48.5260  0.00  0.00     0.000 O
ATOM     49  HD  A00 X   3      32.988   8.783  48.1050  0.00  0.00     0.000 HD
BRANCH 42 49
ATOM     49   O  A00 X   3      31.419  11.372  49.5130  0.00  0.00     0.000 O
ATOM     50   O  A00 X   3      32.570  10.788  51.5290  0.00  0.00     0.000 OA
ATOM     51   O  A00 X   3      30.616   9.593  50.9440  0.00  0.00     0.000 OA
ATOM     52   O  A00 X   3      30.403  11.861  51.5720  0.00  0.00     0.000 OA
ATOM     53   S  A00 X   3      31.253  10.885  50.9820  0.00  0.00     0.000 S
ENDBRANCH 42 49
BRANCH 45 54
ATOM     54   C  A00 X   3      31.639  10.755  44.7290  0.00  0.00     0.000 C
ATOM     55   O  A00 X   3      31.364  11.410  43.7450  0.00  0.00     0.000 OA
ATOM     56   O  A00 X   3      31.409   9.555  44.7150  0.00  0.00     0.000 OA
ENDBRANCH 45 54
BRANCH 41 57
ATOM     57  O4  A00 X   4      29.160  11.207  46.6420  0.00  0.00     0.000 O
BRANCH 57 61
ATOM     58  C1  A00 X   4      25.706  13.079  44.8520  0.00  0.00     0.000 C
ATOM     59  C2  A00 X   4      27.013  12.992  44.0260  0.00  0.00     0.000 C
ATOM     60  C3  A00 X   4      28.045  12.005  44.6090  0.00  0.00     0.000 C
ATOM     61  C4  A00 X   4      28.243  12.214  46.1260  0.00  0.00     0.000 C
ATOM     62  C5  A00 X   4      26.846  12.050  46.7750  0.00  0.00     0.000 C
ATOM     63  O5  A00 X   4      25.963  13.086  46.2750  0.00  0.00     0.000 O
BRANCH 59 66
ATOM     64   N  A00 X   4      27.132  12.745  42.5770  0.00  0.00     0.000 N
ATOM     66  HD  A00 X   4      27.929  12.729  42.2380  0.00  0.00     0.000 HD
ATOM     66   O  A00 X   4      26.193  14.935  42.2280  0.00  0.00     0.000 OA
ATOM     67   S  A00 X   4      26.283  13.664  41.5800  0.00  0.00     0.000 S
ATOM     68   O  A00 X   4      27.120  13.623  40.4160  0.00  0.00     0.000 OA
ATOM     69   O  A00 X   4      25.085  12.881  41.4720  0.00  0.00     0.000 OA
ENDBRANCH 59 66
BRANCH 62 70
ATOM     70   C  A00 X   4      26.856  12.116  48.3210  0.00  0.00     0.000 C
ATOM     71   O  A00 X   4      25.812  14.833  50.4740  0.00  0.00     0.000 OA
ATOM     72   O  A00 X   4      27.784  13.546  50.4740  0.00  0.00     0.000 OA
ATOM     73   O  A00 X   4      26.128  13.278  48.7510  0.00  0.00     0.000 O
ATOM     74   O  A00 X   4      27.475  15.275  48.7850  0.00  0.00     0.000 OA
ATOM     75   S  A00 X   4      26.874  14.318  49.6570  0.00  0.00     0.000 S
ENDBRANCH 62 70
ENDBRANCH 57 61
ENDBRANCH 41 57
ENDBRANCH 40 44
ENDBRANCH 20 40
ENDBRANCH 19 23
ENDBRANCH 1 19
TORSDOF 14
ENDMDL
MODEL 36
REMARK VINA RESULT:      -2.1     10.018     15.390
ROOT
ATOM      1  C1  A00 X   1      28.639  38.263  17.7350  0.00  0.00     0.000 C
ATOM      2  C2  A00 X   1      27.947  37.215  18.6460  0.00  0.00     0.000 C
ATOM      3  C3  A00 X   1      26.450  37.495  19.0030  0.00  0.00     0.000 C
ATOM      4  C4  A00 X   1      25.955  38.937  18.7200  0.00  0.00     0.000 C
ATOM      5  C5  A00 X   1      27.105  39.943  18.6680  0.00  0.00     0.000 C
ATOM      6  O5  A00 X   1      27.921  39.509  17.5570  0.00  0.00     0.000 O
ATOM      7   O  A00 X   1      26.262  37.269  20.3980  0.00  0.00     0.000 O
ATOM      9  HD  A00 X   1      25.818  37.984  20.1930  0.00  0.00     0.000 HD
ATOM      9   O  A00 X   1      25.202  39.002  17.5090  0.00  0.00     0.000 O
ATOM     11  HD  A00 X   1      24.758  39.717  17.3050  0.00  0.00     0.000 HD
ENDROOT
BRANCH 2 11
ATOM     11   O  A00 X   1      28.042  35.934  17.9920  0.00  0.00     0.000 O
ATOM     12   O  A00 X   1      28.072  33.875  19.2280  0.00  0.00     0.000 OA
ATOM     13   O  A00 X   1      29.897  35.459  19.5080  0.00  0.00     0.000 OA
ATOM     14   O  A00 X   1      29.615  34.296  17.4520  0.00  0.00     0.000 OA
ATOM     15   S  A00 X   1      28.962  34.830  18.6170  0.00  0.00     0.000 S
ENDBRANCH 2 11
BRANCH 5 16
ATOM     16   C  A00 X   1      27.885  40.103  19.9770  0.00  0.00     0.000 C
ATOM     17   O  A00 X   1      27.384  39.696  21.0050  0.00  0.00     0.000 OA
ATOM     18   O  A00 X   1      28.986  40.614  20.0210  0.00  0.00     0.000 OA
ENDBRANCH 5 16
BRANCH 1 19
ATOM     19  O4  A00 X   2      30.022  38.497  18.0980  0.00  0.00     0.000 O
BRANCH 19 23
ATOM     20  C1  A00 X   2      31.447  39.838  14.2860  0.00  0.00     0.000 C
ATOM     21  C2  A00 X   2      31.101  38.336  14.4320  0.00  0.00     0.000 C
ATOM     22  C3  A00 X   2      30.216  38.094  15.6720  0.00  0.00     0.000 C
ATOM     23  C4  A00 X   2      30.881  38.682  16.9370  0.00  0.00     0.000 C
ATOM     24  C5  A00 X   2      31.193  40.178  16.6580  0.00  0.00     0.000 C
ATOM     25  O5  A00 X   2      32.087  40.264  15.5180  0.00  0.00     0.000 O
ATOM     26   O  A00 X   2      29.867  36.700  15.7250  0.00  0.00     0.000 O
ATOM     28  HD  A00 X   2      30.687  36.439  15.6270  0.00  0.00     0.000 HD
BRANCH 21 30
ATOM     28   N  A00 X   2      32.200  38.034  13.5090  0.00  0.00     0.000 N
ATOM     30  HD  A00 X   2      31.710  37.322  13.5570  0.00  0.00     0.000 HD
ATOM     30   O  A00 X   2      31.629  36.118  12.3000  0.00  0.00     0.000 OA
ATOM     31   S  A00 X   2      32.591  36.523  13.2630  0.00  0.00     0.000 S
ATOM     32   O  A00 X   2      33.936  36.595  12.7810  0.00  0.00     0.000 OA
ATOM     33   O  A00 X   2      32.553  35.864  14.5350  0.00  0.00     0.000 OA
ENDBRANCH 21 30
BRANCH 24 34
ATOM     34   C  A00 X   2      31.652  41.057  17.8450  0.00  0.00     0.000 C
ATOM     35   O  A00 X   2      34.590  40.365  19.8810  0.00  0.00     0.000 OA
ATOM     36   O  A00 X   2      32.611  40.364  18.6690  0.00  0.00     0.000 O
ATOM     37   O  A00 X   2      34.639  40.602  17.5280  0.00  0.00     0.000 OA
ATOM     38   S  A00 X   2      34.032  41.032  18.7510  0.00  0.00     0.000 S
ATOM     39   O  A00 X   2      33.810  42.436  18.9240  0.00  0.00     0.000 OA
ENDBRANCH 24 34
BRANCH 20 40
ATOM     40  O4  A00 X   3      30.189  40.513  14.1410  0.00  0.00     0.000 O
BRANCH 40 44
ATOM     41  C1  A00 X   3      27.384  42.468  12.9430  0.00  0.00     0.000 C
ATOM     42  C2  A00 X   3      28.366  41.691  12.0390  0.00  0.00     0.000 C
ATOM     43  C3  A00 X   3      29.836  42.038  12.3890  0.00  0.00     0.000 C
ATOM     44  C4  A00 X   3      30.176  41.931  13.8700  0.00  0.00     0.000 C
ATOM     45  C5  A00 X   3      29.149  42.740  14.7120  0.00  0.00     0.000 C
ATOM     46  O5  A00 X   3      27.777  42.389  14.3410  0.00  0.00     0.000 O
ATOM     47   O  A00 X   3      30.831  41.444  11.5580  0.00  0.00     0.000 O
ATOM     49  HD  A00 X   3      31.252  41.366  12.3110  0.00  0.00     0.000 HD
BRANCH 42 49
ATOM     49   O  A00 X   3      28.095  40.285  12.2290  0.00  0.00     0.000 O
ATOM     50   O  A00 X   3      28.724  38.239  11.1580  0.00  0.00     0.000 OA
ATOM     51   O  A00 X   3      28.181  40.108   9.8170  0.00  0.00     0.000 OA
ATOM     52   O  A00 X   3      26.457  39.074  11.0610  0.00  0.00     0.000 OA
ATOM     53   S  A00 X   3      27.850  39.359  11.0030  0.00  0.00     0.000 S
ENDBRANCH 42 49
BRANCH 45 54
ATOM     54   C  A00 X   3      29.425  44.247  14.6470  0.00  0.00     0.000 C
ATOM     55   O  A00 X   3      30.445  44.669  14.1430  0.00  0.00     0.000 OA
ATOM     56   O  A00 X   3      28.624  45.049  15.1020  0.00  0.00     0.000 OA
ENDBRANCH 45 54
BRANCH 41 57
ATOM     57  O4  A00 X   4      27.173  43.816  12.4670  0.00  0.00     0.000 O
BRANCH 57 61
ATOM     58  C1  A00 X   4      23.586  46.109  11.7500  0.00  0.00     0.000 C
ATOM     59  C2  A00 X   4      24.323  46.288  13.1000  0.00  0.00     0.000 C
ATOM     60  C3  A00 X   4      25.753  45.711  13.1020  0.00  0.00     0.000 C
ATOM     61  C4  A00 X   4      25.795  44.282  12.5200  0.00  0.00     0.000 C
ATOM     62  C5  A00 X   4      25.205  44.375  11.0910  0.00  0.00     0.000 C
ATOM     63  O5  A00 X   4      23.822  44.804  11.1730  0.00  0.00     0.000 O
BRANCH 59 66
ATOM     64   N  A00 X   4      23.936  45.879  14.4630  0.00  0.00     0.000 N
ATOM     66  HD  A00 X   4      23.601  45.086  14.5620  0.00  0.00     0.000 HD
ATOM     66   O  A00 X   4      22.131  47.465  14.3200  0.00  0.00     0.000 OA
ATOM     67   S  A00 X   4      22.966  46.839  15.2960  0.00  0.00     0.000 S
ATOM     68   O  A00 X   4      22.316  45.880  16.1410  0.00  0.00     0.000 OA
ATOM     69   O  A00 X   4      23.936  47.655  15.9700  0.00  0.00     0.000 OA
ENDBRANCH 59 66
BRANCH 62 70
ATOM     70   C  A00 X   4      25.263  43.050  10.2950  0.00  0.00     0.000 C
ATOM     71   O  A00 X   4      26.078  42.541   6.8050  0.00  0.00     0.000 OA
ATOM     72   O  A00 X   4      24.276  41.740   8.0920  0.00  0.00     0.000 OA
ATOM     73   O  A00 X   4      25.867  43.291   9.0140  0.00  0.00     0.000 O
ATOM     74   O  A00 X   4      24.294  44.065   7.3610  0.00  0.00     0.000 OA
ATOM     75   S  A00 X   4      25.047  42.910   7.7330  0.00  0.00     0.000 S
ENDBRANCH 62 70
ENDBRANCH 57 61
ENDBRANCH 41 57
ENDBRANCH 40 44
ENDBRANCH 20 40
ENDBRANCH 19 23
ENDBRANCH 1 19
TORSDOF 14
ENDMDL
MODEL 37
REMARK VINA RESULT:      -1.6    103.394    108.327
ROOT
ATOM      1  C1  A00 X   1      95.426  60.267  85.8380  0.00  0.00     0.000 C
ATOM      2  C2  A00 X   1      94.385  59.540  84.9460  0.00  0.00     0.000 C
ATOM      3  C3  A00 X   1      94.261  57.995  85.1540  0.00  0.00     0.000 C
ATOM      4  C4  A00 X   1      95.422  57.331  85.9390  0.00  0.00     0.000 C
ATOM      5  C5  A00 X   1      96.701  58.165  85.8930  0.00  0.00     0.000 C
ATOM      6  O5  A00 X   1      96.354  59.407  86.5450  0.00  0.00     0.000 O
ATOM      7   O  A00 X   1      94.223  57.362  83.8770  0.00  0.00     0.000 O
ATOM      9  HD  A00 X   1      94.729  56.878  84.3860  0.00  0.00     0.000 HD
ATOM      9   O  A00 X   1      95.058  57.081  87.2970  0.00  0.00     0.000 O
ATOM     11  HD  A00 X   1      95.564  56.597  87.8060  0.00  0.00     0.000 HD
ENDROOT
BRANCH 2 11
ATOM     11   O  A00 X   1      93.101  60.150  85.1830  0.00  0.00     0.000 O
ATOM     12   O  A00 X   1      91.149  59.532  83.9280  0.00  0.00     0.000 OA
ATOM     13   O  A00 X   1      93.021  60.578  82.7800  0.00  0.00     0.000 OA
ATOM     14   O  A00 X   1      91.712  61.820  84.3290  0.00  0.00     0.000 OA
ATOM     15   S  A00 X   1      92.199  60.519  83.9560  0.00  0.00     0.000 S
ENDBRANCH 2 11
BRANCH 5 16
ATOM     16   C  A00 X   1      97.302  58.354  84.4960  0.00  0.00     0.000 C
ATOM     17   O  A00 X   1      98.198  59.159  84.3520  0.00  0.00     0.000 OA
ATOM     18   O  A00 X   1      96.918  57.723  83.5310  0.00  0.00     0.000 OA
ENDBRANCH 5 16
BRANCH 1 19
ATOM     19  O4  A00 X   2      96.118  61.330  85.1390  0.00  0.00     0.000 O
BRANCH 19 23
ATOM     20  C1  A00 X   2      96.288  63.891  88.5710  0.00  0.00     0.000 C
ATOM     21  C2  A00 X   2      95.155  64.143  87.5470  0.00  0.00     0.000 C
ATOM     22  C3  A00 X   2      94.959  62.917  86.6320  0.00  0.00     0.000 C
ATOM     23  C4  A00 X   2      96.294  62.518  85.9640  0.00  0.00     0.000 C
ATOM     24  C5  A00 X   2      97.346  62.314  87.0880  0.00  0.00     0.000 C
ATOM     25  O5  A00 X   2      97.488  63.556  87.8260  0.00  0.00     0.000 O
ATOM     26   O  A00 X   2      93.855  63.172  85.7470  0.00  0.00     0.000 O
ATOM     28  HD  A00 X   2      94.164  63.944  85.5030  0.00  0.00     0.000 HD
BRANCH 21 30
ATOM     28   N  A00 X   2      95.267  65.577  87.8320  0.00  0.00     0.000 N
ATOM     30  HD  A00 X   2      94.513  65.461  87.4220  0.00  0.00     0.000 HD
ATOM     30   O  A00 X   2      93.152  66.537  87.5810  0.00  0.00     0.000 OA
ATOM     31   S  A00 X   2      94.428  66.592  86.9590  0.00  0.00     0.000 S
ATOM     32   O  A00 X   2      95.124  67.832  87.1180  0.00  0.00     0.000 OA
ATOM     33   O  A00 X   2      94.507  66.148  85.6000  0.00  0.00     0.000 OA
ENDBRANCH 21 30
BRANCH 24 34
ATOM     34   C  A00 X   2      98.707  61.688  86.7040  0.00  0.00     0.000 C
ATOM     35   O  A00 X   2     101.897  63.425  86.9600  0.00  0.00     0.000 OA
ATOM     36   O  A00 X   2      99.727  62.697  86.5700  0.00  0.00     0.000 O
ATOM     37   O  A00 X   2     100.397  63.144  88.7660  0.00  0.00     0.000 OA
ATOM     38   S  A00 X   2     100.934  62.569  87.5710  0.00  0.00     0.000 S
ATOM     39   O  A00 X   2     101.288  61.182  87.6030  0.00  0.00     0.000 OA
ENDBRANCH 24 34
BRANCH 20 40
ATOM     40  O4  A00 X   3      95.869  62.756  89.3420  0.00  0.00     0.000 O
BRANCH 40 44
ATOM     41  C1  A00 X   3      96.772  59.574  90.8200  0.00  0.00     0.000 C
ATOM     42  C2  A00 X   3      95.362  60.201  90.8740  0.00  0.00     0.000 C
ATOM     43  C3  A00 X   3      95.424  61.666  91.3760  0.00  0.00     0.000 C
ATOM     44  C4  A00 X   3      96.439  62.541  90.6510  0.00  0.00     0.000 C
ATOM     45  C5  A00 X   3      97.831  61.847  90.6430  0.00  0.00     0.000 C
ATOM     46  O5  A00 X   3      97.723  60.465  90.1730  0.00  0.00     0.000 O
ATOM     47   O  A00 X   3      94.168  62.320  91.5480  0.00  0.00     0.000 O
ATOM     49  HD  A00 X   3      94.603  62.996  91.2250  0.00  0.00     0.000 HD
BRANCH 42 49
ATOM     49   O  A00 X   3      94.813  60.122  89.5400  0.00  0.00     0.000 O
ATOM     50   O  A00 X   3      92.798  60.819  88.4520  0.00  0.00     0.000 OA
ATOM     51   O  A00 X   3      92.659  59.878  90.6160  0.00  0.00     0.000 OA
ATOM     52   O  A00 X   3      93.296  58.482  88.8190  0.00  0.00     0.000 OA
ATOM     53   S  A00 X   3      93.303  59.809  89.3280  0.00  0.00     0.000 S
ENDBRANCH 42 49
BRANCH 45 54
ATOM     54   C  A00 X   3      98.533  61.970  92.0010  0.00  0.00     0.000 C
ATOM     55   O  A00 X   3      99.668  61.564  92.1490  0.00  0.00     0.000 OA
ATOM     56   O  A00 X   3      97.964  62.475  92.9560  0.00  0.00     0.000 OA
ENDBRANCH 45 54
BRANCH 41 57
ATOM     57  O4  A00 X   4      97.197  59.105  92.1190  0.00  0.00     0.000 O
BRANCH 57 61
ATOM     58  C1  A00 X   4      99.651  55.785  93.3820  0.00  0.00     0.000 C
ATOM     59  C2  A00 X   4     100.277  56.860  92.4590  0.00  0.00     0.000 C
ATOM     60  C3  A00 X   4      99.443  58.155  92.3710  0.00  0.00     0.000 C
ATOM     61  C4  A00 X   4      97.951  57.859  92.1100  0.00  0.00     0.000 C
ATOM     62  C5  A00 X   4      97.481  56.940  93.2650  0.00  0.00     0.000 C
ATOM     63  O5  A00 X   4      98.218  55.692  93.2120  0.00  0.00     0.000 O
BRANCH 59 66
ATOM     64   N  A00 X   4     100.390  56.392  91.0660  0.00  0.00     0.000 N
ATOM     66  HD  A00 X   4      99.810  55.810  90.7910  0.00  0.00     0.000 HD
ATOM     66   O  A00 X   4     102.392  55.227  91.7260  0.00  0.00     0.000 OA
ATOM     67   S  A00 X   4     101.801  55.825  90.5690  0.00  0.00     0.000 S
ATOM     68   O  A00 X   4     101.370  54.910  89.5540  0.00  0.00     0.000 OA
ATOM     69   O  A00 X   4     102.393  57.031  90.0620  0.00  0.00     0.000 OA
ENDBRANCH 59 66
BRANCH 62 70
ATOM     70   C  A00 X   4      95.967  56.618  93.2400  0.00  0.00     0.000 C
ATOM     71   O  A00 X   4      94.127  54.578  90.8820  0.00  0.00     0.000 OA
ATOM     72   O  A00 X   4      93.697  56.744  91.7000  0.00  0.00     0.000 OA
ATOM     73   O  A00 X   4      95.719  55.578  92.2810  0.00  0.00     0.000 O
ATOM     74   O  A00 X   4      95.447  56.410  90.0370  0.00  0.00     0.000 OA
ATOM     75   S  A00 X   4      94.699  55.872  91.1270  0.00  0.00     0.000 S
ENDBRANCH 62 70
ENDBRANCH 57 61
ENDBRANCH 41 57
ENDBRANCH 40 44
ENDBRANCH 20 40
ENDBRANCH 19 23
ENDBRANCH 1 19
TORSDOF 14
ENDMDL
MODEL 38
REMARK VINA RESULT:      -1.5     10.356     18.067
ROOT
ATOM      1  C1  A00 X   1      28.192  37.044  17.4810  0.00  0.00     0.000 C
ATOM      2  C2  A00 X   1      29.579  36.402  17.7490  0.00  0.00     0.000 C
ATOM      3  C3  A00 X   1      29.566  34.931  18.2790  0.00  0.00     0.000 C
ATOM      4  C4  A00 X   1      28.202  34.427  18.8170  0.00  0.00     0.000 C
ATOM      5  C5  A00 X   1      27.285  35.577  19.2350  0.00  0.00     0.000 C
ATOM      6  O5  A00 X   1      27.055  36.323  18.0190  0.00  0.00     0.000 O
ATOM      7   O  A00 X   1      30.490  34.825  19.3590  0.00  0.00     0.000 O
ATOM      9  HD  A00 X   1      29.786  34.374  19.5820  0.00  0.00     0.000 HD
ATOM      9   O  A00 X   1      27.536  33.603  17.8610  0.00  0.00     0.000 O
ATOM     11  HD  A00 X   1      26.831  33.152  18.0830  0.00  0.00     0.000 HD
ENDROOT
BRANCH 2 11
ATOM     11   O  A00 X   1      30.329  36.451  16.5190  0.00  0.00     0.000 O
ATOM     12   O  A00 X   1      32.656  35.867  16.4260  0.00  0.00     0.000 OA
ATOM     13   O  A00 X   1      31.964  37.796  17.7370  0.00  0.00     0.000 OA
ATOM     14   O  A00 X   1      31.812  37.835  15.3630  0.00  0.00     0.000 OA
ATOM     15   S  A00 X   1      31.791  37.014  16.5440  0.00  0.00     0.000 S
ENDBRANCH 2 11
BRANCH 5 16
ATOM     16   C  A00 X   1      27.809  36.436  20.3910  0.00  0.00     0.000 C
ATOM     17   O  A00 X   1      28.693  35.988  21.0930  0.00  0.00     0.000 OA
ATOM     18   O  A00 X   1      27.379  37.547  20.6240  0.00  0.00     0.000 OA
ENDBRANCH 5 16
BRANCH 1 19
ATOM     19  O4  A00 X   2      28.144  38.447  17.8380  0.00  0.00     0.000 O
BRANCH 19 23
ATOM     20  C1  A00 X   2      25.765  41.683  16.3430  0.00  0.00     0.000 C
ATOM     21  C2  A00 X   2      25.053  40.609  17.2010  0.00  0.00     0.000 C
ATOM     22  C3  A00 X   2      26.076  39.782  18.0070  0.00  0.00     0.000 C
ATOM     23  C4  A00 X   2      27.151  39.186  17.0700  0.00  0.00     0.000 C
ATOM     24  C5  A00 X   2      27.773  40.354  16.2570  0.00  0.00     0.000 C
ATOM     25  O5  A00 X   2      26.724  41.001  15.4920  0.00  0.00     0.000 O
ATOM     26   O  A00 X   2      25.364  38.848  18.8370  0.00  0.00     0.000 O
ATOM     28  HD  A00 X   2      24.880  38.557  18.1800  0.00  0.00     0.000 HD
BRANCH 21 30
ATOM     28   N  A00 X   2      24.218  40.186  18.3300  0.00  0.00     0.000 N
ATOM     30  HD  A00 X   2      23.704  40.626  17.7890  0.00  0.00     0.000 HD
ATOM     30   O  A00 X   2      21.979  40.405  17.7000  0.00  0.00     0.000 OA
ATOM     31   S  A00 X   2      22.886  40.982  18.6280  0.00  0.00     0.000 S
ATOM     32   O  A00 X   2      22.615  40.686  20.0010  0.00  0.00     0.000 OA
ATOM     33   O  A00 X   2      23.180  42.375  18.4680  0.00  0.00     0.000 OA
ENDBRANCH 21 30
BRANCH 24 34
ATOM     34   C  A00 X   2      29.034  40.058  15.4110  0.00  0.00     0.000 C
ATOM     35   O  A00 X   2      29.067  37.889  12.4870  0.00  0.00     0.000 OA
ATOM     36   O  A00 X   2      28.833  38.915  14.5560  0.00  0.00     0.000 O
ATOM     37   O  A00 X   2      27.637  39.757  12.7310  0.00  0.00     0.000 OA
ATOM     38   S  A00 X   2      28.928  39.207  13.0140  0.00  0.00     0.000 S
ATOM     39   O  A00 X   2      30.066  40.057  12.8310  0.00  0.00     0.000 OA
ENDBRANCH 24 34
BRANCH 20 40
ATOM     40  O4  A00 X   3      26.463  42.523  17.2740  0.00  0.00     0.000 O
BRANCH 40 44
ATOM     41  C1  A00 X   3      28.750  44.796  18.9250  0.00  0.00     0.000 C
ATOM     42  C2  A00 X   3      27.297  44.531  19.3720  0.00  0.00     0.000 C
ATOM     43  C3  A00 X   3      26.313  44.684  18.1840  0.00  0.00     0.000 C
ATOM     44  C4  A00 X   3      26.704  43.905  16.9340  0.00  0.00     0.000 C
ATOM     45  C5  A00 X   3      28.174  44.228  16.5450  0.00  0.00     0.000 C
ATOM     46  O5  A00 X   3      29.065  44.081  17.6980  0.00  0.00     0.000 O
ATOM     47   O  A00 X   3      24.929  44.547  18.4990  0.00  0.00     0.000 O
ATOM     49  HD  A00 X   3      24.913  44.131  17.7400  0.00  0.00     0.000 HD
BRANCH 42 49
ATOM     49   O  A00 X   3      27.260  43.195  19.9200  0.00  0.00     0.000 O
ATOM     50   O  A00 X   3      25.595  41.753  20.8590  0.00  0.00     0.000 OA
ATOM     51   O  A00 X   3      25.584  44.043  21.4470  0.00  0.00     0.000 OA
ATOM     52   O  A00 X   3      27.366  42.693  22.2120  0.00  0.00     0.000 OA
ATOM     53   S  A00 X   3      26.403  42.887  21.1830  0.00  0.00     0.000 S
ENDBRANCH 42 49
BRANCH 45 54
ATOM     54   C  A00 X   3      28.293  45.595  15.8610  0.00  0.00     0.000 C
ATOM     55   O  A00 X   3      27.300  46.219  15.5480  0.00  0.00     0.000 OA
ATOM     56   O  A00 X   3      29.388  46.080  15.6180  0.00  0.00     0.000 OA
ENDBRANCH 45 54
BRANCH 41 57
ATOM     57  O4  A00 X   4      29.043  46.210  18.8720  0.00  0.00     0.000 O
BRANCH 57 61
ATOM     58  C1  A00 X   4      32.510  48.554  19.9320  0.00  0.00     0.000 C
ATOM     59  C2  A00 X   4      32.571  47.676  18.6580  0.00  0.00     0.000 C
ATOM     60  C3  A00 X   4      31.189  47.179  18.1870  0.00  0.00     0.000 C
ATOM     61  C4  A00 X   4      30.366  46.586  19.3500  0.00  0.00     0.000 C
ATOM     62  C5  A00 X   4      30.253  47.703  20.4180  0.00  0.00     0.000 C
ATOM     63  O5  A00 X   4      31.578  48.032  20.9060  0.00  0.00     0.000 O
BRANCH 59 66
ATOM     64   N  A00 X   4      33.360  46.466  18.9500  0.00  0.00     0.000 N
ATOM     66  HD  A00 X   4      33.381  46.191  19.7710  0.00  0.00     0.000 HD
ATOM     66   O  A00 X   4      35.337  47.775  18.5300  0.00  0.00     0.000 OA
ATOM     67   S  A00 X   4      34.884  46.421  18.4670  0.00  0.00     0.000 S
ATOM     68   O  A00 X   4      35.441  45.538  19.4510  0.00  0.00     0.000 OA
ATOM     69   O  A00 X   4      34.721  45.828  17.1700  0.00  0.00     0.000 OA
ENDBRANCH 59 66
BRANCH 62 70
ATOM     70   C  A00 X   4      29.361  47.333  21.6270  0.00  0.00     0.000 C
ATOM     71   O  A00 X   4      26.259  48.860  22.7020  0.00  0.00     0.000 OA
ATOM     72   O  A00 X   4      28.204  48.319  23.9140  0.00  0.00     0.000 OA
ATOM     73   O  A00 X   4      28.111  48.034  21.5280  0.00  0.00     0.000 O
ATOM     74   O  A00 X   4      28.204  50.261  22.4420  0.00  0.00     0.000 OA
ATOM     75   S  A00 X   4      27.692  48.959  22.7230  0.00  0.00     0.000 S
ENDBRANCH 62 70
ENDBRANCH 57 61
ENDBRANCH 41 57
ENDBRANCH 40 44
ENDBRANCH 20 40
ENDBRANCH 19 23
ENDBRANCH 1 19
TORSDOF 14
ENDMDL
MODEL 39
REMARK VINA RESULT:      -1.5     85.252     90.412
ROOT
ATOM      1  C1  A00 X   1      65.587  83.973  72.9090  0.00  0.00     0.000 C
ATOM      2  C2  A00 X   1      64.750  84.518  74.0970  0.00  0.00     0.000 C
ATOM      3  C3  A00 X   1      64.223  83.452  75.1120  0.00  0.00     0.000 C
ATOM      4  C4  A00 X   1      64.278  81.981  74.6260  0.00  0.00     0.000 C
ATOM      5  C5  A00 X   1      64.314  81.878  73.1010  0.00  0.00     0.000 C
ATOM      6  O5  A00 X   1      65.542  82.537  72.7180  0.00  0.00     0.000 O
ATOM      7   O  A00 X   1      62.855  83.732  75.4000  0.00  0.00     0.000 O
ATOM      9  HD  A00 X   1      62.927  82.873  75.3160  0.00  0.00     0.000 HD
ATOM      9   O  A00 X   1      65.395  81.288  75.1830  0.00  0.00     0.000 O
ATOM     11  HD  A00 X   1      65.468  80.430  75.0980  0.00  0.00     0.000 HD
ENDROOT
BRANCH 2 11
ATOM     11   O  A00 X   1      65.563  85.476  74.8020  0.00  0.00     0.000 O
ATOM     12   O  A00 X   1      64.858  86.455  76.8790  0.00  0.00     0.000 OA
ATOM     13   O  A00 X   1      63.579  86.900  74.8590  0.00  0.00     0.000 OA
ATOM     14   O  A00 X   1      65.774  87.781  75.1140  0.00  0.00     0.000 OA
ATOM     15   S  A00 X   1      64.870  86.718  75.4620  0.00  0.00     0.000 S
ENDBRANCH 2 11
BRANCH 5 16
ATOM     16   C  A00 X   1      63.075  82.425  72.3850  0.00  0.00     0.000 C
ATOM     17   O  A00 X   1      63.119  82.578  71.1820  0.00  0.00     0.000 OA
ATOM     18   O  A00 X   1      62.051  82.704  72.9760  0.00  0.00     0.000 OA
ENDBRANCH 5 16
BRANCH 1 19
ATOM     19  O4  A00 X   2      65.330  84.679  71.6700  0.00  0.00     0.000 O
BRANCH 19 23
ATOM     20  C1  A00 X   2      69.437  84.651  70.4490  0.00  0.00     0.000 C
ATOM     21  C2  A00 X   2      68.897  85.943  71.1090  0.00  0.00     0.000 C
ATOM     22  C3  A00 X   2      67.583  85.664  71.8680  0.00  0.00     0.000 C
ATOM     23  C4  A00 X   2      66.551  84.987  70.9380  0.00  0.00     0.000 C
ATOM     24  C5  A00 X   2      67.217  83.723  70.3300  0.00  0.00     0.000 C
ATOM     25  O5  A00 X   2      68.394  84.128  69.5840  0.00  0.00     0.000 O
ATOM     26   O  A00 X   2      67.159  86.875  72.5170  0.00  0.00     0.000 O
ATOM     28  HD  A00 X   2      67.238  87.348  71.7970  0.00  0.00     0.000 HD
BRANCH 21 30
ATOM     28   N  A00 X   2      69.776  86.716  70.2260  0.00  0.00     0.000 N
ATOM     30  HD  A00 X   2      69.522  87.251  70.8580  0.00  0.00     0.000 HD
ATOM     30   O  A00 X   2      70.429  88.650  71.3630  0.00  0.00     0.000 OA
ATOM     31   S  A00 X   2      69.655  88.292  70.2270  0.00  0.00     0.000 S
ATOM     32   O  A00 X   2      70.217  88.675  68.9680  0.00  0.00     0.000 OA
ATOM     33   O  A00 X   2      68.259  88.610  70.2660  0.00  0.00     0.000 OA
ENDBRANCH 21 30
BRANCH 24 34
ATOM     34   C  A00 X   2      66.321  82.738  69.5420  0.00  0.00     0.000 C
ATOM     35   O  A00 X   2      64.269  83.685  66.6870  0.00  0.00     0.000 OA
ATOM     36   O  A00 X   2      65.374  83.442  68.7140  0.00  0.00     0.000 O
ATOM     37   O  A00 X   2      66.601  84.058  66.8200  0.00  0.00     0.000 OA
ATOM     38   S  A00 X   2      65.517  83.190  67.1680  0.00  0.00     0.000 S
ATOM     39   O  A00 X   2      65.715  81.782  67.0040  0.00  0.00     0.000 OA
ENDBRANCH 24 34
BRANCH 20 40
ATOM     40  O4  A00 X   3      69.671  83.733  71.5280  0.00  0.00     0.000 O
BRANCH 40 44
ATOM     41  C1  A00 X   3      69.234  80.348  72.7420  0.00  0.00     0.000 C
ATOM     42  C2  A00 X   3      69.873  81.498  73.5510  0.00  0.00     0.000 C
ATOM     43  C3  A00 X   3      70.985  82.202  72.7310  0.00  0.00     0.000 C
ATOM     44  C4  A00 X   3      70.567  82.620  71.3270  0.00  0.00     0.000 C
ATOM     45  C5  A00 X   3      69.939  81.412  70.5770  0.00  0.00     0.000 C
ATOM     46  O5  A00 X   3      68.904  80.772  71.3910  0.00  0.00     0.000 O
ATOM     47   O  A00 X   3      71.706  83.227  73.4120  0.00  0.00     0.000 O
ATOM     49  HD  A00 X   3      71.660  83.616  72.6390  0.00  0.00     0.000 HD
BRANCH 42 49
ATOM     49   O  A00 X   3      68.811  82.414  73.8970  0.00  0.00     0.000 O
ATOM     50   O  A00 X   3      68.636  84.513  75.0340  0.00  0.00     0.000 OA
ATOM     51   O  A00 X   3      70.069  82.853  75.9170  0.00  0.00     0.000 OA
ATOM     52   O  A00 X   3      67.736  82.479  75.9830  0.00  0.00     0.000 OA
ATOM     53   S  A00 X   3      68.800  83.116  75.2860  0.00  0.00     0.000 S
ENDBRANCH 42 49
BRANCH 45 54
ATOM     54   C  A00 X   3      71.010  80.431  70.0830  0.00  0.00     0.000 C
ATOM     55   O  A00 X   3      70.728  79.552  69.2950  0.00  0.00     0.000 OA
ATOM     56   O  A00 X   3      72.164  80.517  70.4740  0.00  0.00     0.000 OA
ENDBRANCH 45 54
BRANCH 41 57
ATOM     57  O4  A00 X   4      70.032  79.145  72.8020  0.00  0.00     0.000 O
BRANCH 57 61
ATOM     58  C1  A00 X   4      69.025  74.947  72.7580  0.00  0.00     0.000 C
ATOM     59  C2  A00 X   4      68.643  75.814  71.5320  0.00  0.00     0.000 C
ATOM     60  C3  A00 X   4      69.357  77.181  71.5000  0.00  0.00     0.000 C
ATOM     61  C4  A00 X   4      69.275  77.903  72.8620  0.00  0.00     0.000 C
ATOM     62  C5  A00 X   4      69.901  76.942  73.9030  0.00  0.00     0.000 C
ATOM     63  O5  A00 X   4      69.108  75.730  73.9710  0.00  0.00     0.000 O
BRANCH 59 66
ATOM     64   N  A00 X   4      67.200  76.114  71.5800  0.00  0.00     0.000 N
ATOM     66  HD  A00 X   4      66.821  76.131  72.3580  0.00  0.00     0.000 HD
ATOM     66   O  A00 X   4      66.820  73.954  70.5860  0.00  0.00     0.000 OA
ATOM     67   S  A00 X   4      66.216  75.247  70.6650  0.00  0.00     0.000 S
ATOM     68   O  A00 X   4      65.012  75.319  71.4400  0.00  0.00     0.000 OA
ATOM     69   O  A00 X   4      66.200  76.052  69.4770  0.00  0.00     0.000 OA
ENDBRANCH 59 66
BRANCH 62 70
ATOM     70   C  A00 X   4      70.012  77.538  75.3260  0.00  0.00     0.000 C
ATOM     71   O  A00 X   4      67.359  78.327  77.6600  0.00  0.00     0.000 OA
ATOM     72   O  A00 X   4      69.195  79.610  76.9340  0.00  0.00     0.000 OA
ATOM     73   O  A00 X   4      68.734  77.451  75.9780  0.00  0.00     0.000 O
ATOM     74   O  A00 X   4      67.283  79.302  75.4560  0.00  0.00     0.000 OA
ATOM     75   S  A00 X   4      68.090  78.779  76.5100  0.00  0.00     0.000 S
ENDBRANCH 62 70
ENDBRANCH 57 61
ENDBRANCH 41 57
ENDBRANCH 40 44
ENDBRANCH 20 40
ENDBRANCH 19 23
ENDBRANCH 1 19
TORSDOF 14
ENDMDL
MODEL 40
REMARK VINA RESULT:      -1.5     77.532     82.140
ROOT
ATOM      1  C1  A00 X   1      72.440  47.779  73.4970  0.00  0.00     0.000 C
ATOM      2  C2  A00 X   1      71.269  47.487  72.5230  0.00  0.00     0.000 C
ATOM      3  C3  A00 X   1      70.284  46.350  72.9530  0.00  0.00     0.000 C
ATOM      4  C4  A00 X   1      70.790  45.421  74.0870  0.00  0.00     0.000 C
ATOM      5  C5  A00 X   1      72.315  45.426  74.2000  0.00  0.00     0.000 C
ATOM      6  O5  A00 X   1      72.654  46.790  74.5350  0.00  0.00     0.000 O
ATOM      7   O  A00 X   1      70.030  45.513  71.8270  0.00  0.00     0.000 O
ATOM      9  HD  A00 X   1      70.125  44.995  72.5140  0.00  0.00     0.000 HD
ATOM      9   O  A00 X   1      70.212  45.770  75.3450  0.00  0.00     0.000 O
ATOM     11  HD  A00 X   1      70.307  45.251  76.0320  0.00  0.00     0.000 HD
ENDROOT
BRANCH 2 11
ATOM     11   O  A00 X   1      70.526  48.710  72.3500  0.00  0.00     0.000 O
ATOM     12   O  A00 X   1      68.446  48.774  71.1520  0.00  0.00     0.000 OA
ATOM     13   O  A00 X   1      70.484  48.177  69.9660  0.00  0.00     0.000 OA
ATOM     14   O  A00 X   1      70.164  50.392  70.7720  0.00  0.00     0.000 OA
ATOM     15   S  A00 X   1      69.857  49.000  70.9630  0.00  0.00     0.000 S
ENDBRANCH 2 11
BRANCH 5 16
ATOM     16   C  A00 X   1      73.057  44.894  72.9690  0.00  0.00     0.000 C
ATOM     17   O  A00 X   1      74.257  45.061  72.8970  0.00  0.00     0.000 OA
ATOM     18   O  A00 X   1      72.490  44.308  72.0690  0.00  0.00     0.000 OA
ENDBRANCH 5 16
BRANCH 1 19
ATOM     19  O4  A00 X   2      73.675  48.099  72.8110  0.00  0.00     0.000 O
BRANCH 19 23
ATOM     20  C1  A00 X   2      74.788  51.162  75.5930  0.00  0.00     0.000 C
ATOM     21  C2  A00 X   2      74.106  51.606  74.2770  0.00  0.00     0.000 C
ATOM     22  C3  A00 X   2      73.390  50.418  73.6010  0.00  0.00     0.000 C
ATOM     23  C4  A00 X   2      74.365  49.236  73.4020  0.00  0.00     0.000 C
ATOM     24  C5  A00 X   2      74.993  48.902  74.7830  0.00  0.00     0.000 C
ATOM     25  O5  A00 X   2      75.695  50.073  75.2730  0.00  0.00     0.000 O
ATOM     26   O  A00 X   2      72.717  50.895  72.4230  0.00  0.00     0.000 O
ATOM     28  HD  A00 X   2      73.421  51.300  72.1240  0.00  0.00     0.000 HD
BRANCH 21 30
ATOM     28   N  A00 X   2      74.942  52.810  74.2940  0.00  0.00     0.000 N
ATOM     30  HD  A00 X   2      74.302  52.958  73.7300  0.00  0.00     0.000 HD
ATOM     30   O  A00 X   2      73.733  54.549  73.3080  0.00  0.00     0.000 OA
ATOM     31   S  A00 X   2      74.899  53.782  73.0480  0.00  0.00     0.000 S
ATOM     32   O  A00 X   2      76.130  54.504  73.1390  0.00  0.00     0.000 OA
ATOM     33   O  A00 X   2      74.888  52.963  71.8730  0.00  0.00     0.000 OA
ENDBRANCH 21 30
BRANCH 24 34
ATOM     34   C  A00 X   2      75.833  47.608  74.9040  0.00  0.00     0.000 C
ATOM     35   O  A00 X   2      79.387  47.549  75.6930  0.00  0.00     0.000 OA
ATOM     36   O  A00 X   2      77.245  47.896  74.8690  0.00  0.00     0.000 O
ATOM     37   O  A00 X   2      77.751  48.592  77.0440  0.00  0.00     0.000 OA
ATOM     38   S  A00 X   2      78.042  47.501  76.1650  0.00  0.00     0.000 S
ATOM     39   O  A00 X   2      77.578  46.201  76.5460  0.00  0.00     0.000 OA
ENDBRANCH 24 34
BRANCH 20 40
ATOM     40  O4  A00 X   3      73.731  50.675  76.4330  0.00  0.00     0.000 O
BRANCH 40 44
ATOM     41  C1  A00 X   3      72.568  48.110  78.7120  0.00  0.00     0.000 C
ATOM     42  C2  A00 X   3      71.732  49.324  78.2510  0.00  0.00     0.000 C
ATOM     43  C3  A00 X   3      72.518  50.646  78.4440  0.00  0.00     0.000 C
ATOM     44  C4  A00 X   3      73.926  50.636  77.8630  0.00  0.00     0.000 C
ATOM     45  C5  A00 X   3      74.705  49.391  78.3750  0.00  0.00     0.000 C
ATOM     46  O5  A00 X   3      73.921  48.169  78.1830  0.00  0.00     0.000 O
ATOM     47   O  A00 X   3      71.809  51.843  78.1320  0.00  0.00     0.000 O
ATOM     49  HD  A00 X   3      72.578  52.081  77.8100  0.00  0.00     0.000 HD
BRANCH 42 49
ATOM     49   O  A00 X   3      71.399  49.105  76.8630  0.00  0.00     0.000 O
ATOM     50   O  A00 X   3      70.237  50.308  75.1500  0.00  0.00     0.000 OA
ATOM     51   O  A00 X   3      69.343  50.290  77.3380  0.00  0.00     0.000 OA
ATOM     52   O  A00 X   3      69.338  48.276  76.1020  0.00  0.00     0.000 OA
ATOM     53   S  A00 X   3      70.000  49.516  76.3160  0.00  0.00     0.000 S
ENDBRANCH 42 49
BRANCH 45 54
ATOM     54   C  A00 X   3      75.186  49.578  79.8190  0.00  0.00     0.000 C
ATOM     55   O  A00 X   3      74.844  50.547  80.4650  0.00  0.00     0.000 OA
ATOM     56   O  A00 X   3      75.923  48.757  80.3430  0.00  0.00     0.000 OA
ENDBRANCH 45 54
BRANCH 41 57
ATOM     57  O4  A00 X   4      72.505  47.932  80.1450  0.00  0.00     0.000 O
BRANCH 57 61
ATOM     58  C1  A00 X   4      72.552  44.434  82.6750  0.00  0.00     0.000 C
ATOM     59  C2  A00 X   4      73.784  44.718  81.7790  0.00  0.00     0.000 C
ATOM     60  C3  A00 X   4      73.811  46.150  81.2070  0.00  0.00     0.000 C
ATOM     61  C4  A00 X   4      72.452  46.548  80.5930  0.00  0.00     0.000 C
ATOM     62  C5  A00 X   4      71.401  46.389  81.7210  0.00  0.00     0.000 C
ATOM     63  O5  A00 X   4      71.340  44.997  82.1240  0.00  0.00     0.000 O
BRANCH 59 66
ATOM     64   N  A00 X   4      73.792  43.831  80.6010  0.00  0.00     0.000 N
ATOM     66  HD  A00 X   4      73.028  43.549  80.3080  0.00  0.00     0.000 HD
ATOM     66   O  A00 X   4      74.748  42.130  82.0130  0.00  0.00     0.000 OA
ATOM     67   S  A00 X   4      74.720  42.529  80.6400  0.00  0.00     0.000 S
ATOM     68   O  A00 X   4      73.987  41.664  79.7620  0.00  0.00     0.000 OA
ATOM     69   O  A00 X   4      75.926  43.060  80.0720  0.00  0.00     0.000 OA
ENDBRANCH 59 66
BRANCH 62 70
ATOM     70   C  A00 X   4      69.978  46.850  81.3270  0.00  0.00     0.000 C
ATOM     71   O  A00 X   4      67.673  45.326  78.9880  0.00  0.00     0.000 OA
ATOM     72   O  A00 X   4      68.382  47.561  79.2080  0.00  0.00     0.000 OA
ATOM     73   O  A00 X   4      69.339  45.817  80.5600  0.00  0.00     0.000 O
ATOM     74   O  A00 X   4      69.879  45.914  78.2140  0.00  0.00     0.000 OA
ATOM     75   S  A00 X   4      68.816  46.184  79.1280  0.00  0.00     0.000 S
ENDBRANCH 62 70
ENDBRANCH 57 61
ENDBRANCH 41 57
ENDBRANCH 40 44
ENDBRANCH 20 40
ENDBRANCH 19 23
ENDBRANCH 1 19
TORSDOF 14
ENDMDL
MODEL 41
REMARK VINA RESULT:      -1.5     58.481     64.258
ROOT
ATOM      1  C1  A00 X   1      60.111  85.820  23.1850  0.00  0.00     0.000 C
ATOM      2  C2  A00 X   1      58.896  86.163  24.0870  0.00  0.00     0.000 C
ATOM      3  C3  A00 X   1      57.490  85.775  23.5220  0.00  0.00     0.000 C
ATOM      4  C4  A00 X   1      57.445  85.443  22.0080  0.00  0.00     0.000 C
ATOM      5  C5  A00 X   1      58.617  86.063  21.2470  0.00  0.00     0.000 C
ATOM      6  O5  A00 X   1      59.793  85.450  21.8200  0.00  0.00     0.000 O
ATOM      7   O  A00 X   1      56.598  86.870  23.7220  0.00  0.00     0.000 O
ATOM      9  HD  A00 X   1      56.440  86.553  22.9320  0.00  0.00     0.000 HD
ATOM      9   O  A00 X   1      57.417  84.033  21.7840  0.00  0.00     0.000 O
ATOM     11  HD  A00 X   1      57.258  83.716  20.9940  0.00  0.00     0.000 HD
ENDROOT
BRANCH 2 11
ATOM     11   O  A00 X   1      59.091  85.505  25.3540  0.00  0.00     0.000 O
ATOM     12   O  A00 X   1      57.387  85.478  27.0460  0.00  0.00     0.000 OA
ATOM     13   O  A00 X   1      58.377  87.600  26.3870  0.00  0.00     0.000 OA
ATOM     14   O  A00 X   1      59.665  85.984  27.5660  0.00  0.00     0.000 OA
ATOM     15   S  A00 X   1      58.571  86.202  26.6580  0.00  0.00     0.000 S
ENDBRANCH 2 11
BRANCH 5 16
ATOM     16   C  A00 X   1      58.657  87.595  21.2560  0.00  0.00     0.000 C
ATOM     17   O  A00 X   1      59.661  88.152  20.8620  0.00  0.00     0.000 OA
ATOM     18   O  A00 X   1      57.721  88.269  21.6370  0.00  0.00     0.000 OA
ENDBRANCH 5 16
BRANCH 1 19
ATOM     19  O4  A00 X   2      61.147  86.832  23.2300  0.00  0.00     0.000 O
BRANCH 19 23
ATOM     20  C1  A00 X   2      64.352  83.987  23.1930  0.00  0.00     0.000 C
ATOM     21  C2  A00 X   2      63.930  84.570  24.5640  0.00  0.00     0.000 C
ATOM     22  C3  A00 X   2      62.531  85.216  24.4790  0.00  0.00     0.000 C
ATOM     23  C4  A00 X   2      62.482  86.260  23.3410  0.00  0.00     0.000 C
ATOM     24  C5  A00 X   2      62.942  85.559  22.0330  0.00  0.00     0.000 C
ATOM     25  O5  A00 X   2      64.293  85.063  22.2200  0.00  0.00     0.000 O
ATOM     26   O  A00 X   2      62.157  85.680  25.7870  0.00  0.00     0.000 O
ATOM     28  HD  A00 X   2      62.904  86.102  25.9060  0.00  0.00     0.000 HD
BRANCH 21 30
ATOM     28   N  A00 X   2      65.334  84.507  24.9810  0.00  0.00     0.000 N
ATOM     30  HD  A00 X   2      64.863  84.610  25.7000  0.00  0.00     0.000 HD
ATOM     30   O  A00 X   2      65.392  84.106  27.2820  0.00  0.00     0.000 OA
ATOM     31   S  A00 X   2      65.741  85.139  26.3720  0.00  0.00     0.000 S
ATOM     32   O  A00 X   2      67.145  85.376  26.2380  0.00  0.00     0.000 OA
ATOM     33   O  A00 X   2      65.036  86.380  26.4960  0.00  0.00     0.000 OA
ENDBRANCH 21 30
BRANCH 24 34
ATOM     34   C  A00 X   2      62.765  86.323  20.7000  0.00  0.00     0.000 C
ATOM     35   O  A00 X   2      64.239  89.578  20.0020  0.00  0.00     0.000 OA
ATOM     36   O  A00 X   2      63.149  87.706  20.8350  0.00  0.00     0.000 O
ATOM     37   O  A00 X   2      65.482  87.681  20.6710  0.00  0.00     0.000 OA
ATOM     38   S  A00 X   2      64.354  88.159  19.9310  0.00  0.00     0.000 S
ATOM     39   O  A00 X   2      64.123  87.595  18.6350  0.00  0.00     0.000 OA
ENDBRANCH 24 34
BRANCH 20 40
ATOM     40  O4  A00 X   3      63.364  82.996  22.8740  0.00  0.00     0.000 O
BRANCH 40 44
ATOM     41  C1  A00 X   3      61.170  81.595  20.3540  0.00  0.00     0.000 C
ATOM     42  C2  A00 X   3      61.244  81.118  21.8210  0.00  0.00     0.000 C
ATOM     43  C3  A00 X   3      62.709  80.831  22.2380  0.00  0.00     0.000 C
ATOM     44  C4  A00 X   3      63.688  81.956  21.9260  0.00  0.00     0.000 C
ATOM     45  C5  A00 X   3      63.558  82.377  20.4350  0.00  0.00     0.000 C
ATOM     46  O5  A00 X   3      62.159  82.627  20.0830  0.00  0.00     0.000 O
ATOM     47   O  A00 X   3      62.891  80.300  23.5490  0.00  0.00     0.000 O
ATOM     49  HD  A00 X   3      63.579  80.826  23.5450  0.00  0.00     0.000 HD
BRANCH 42 49
ATOM     49   O  A00 X   3      60.657  82.157  22.6340  0.00  0.00     0.000 O
ATOM     50   O  A00 X   3      60.312  82.540  24.9720  0.00  0.00     0.000 OA
ATOM     51   O  A00 X   3      59.935  80.374  24.1030  0.00  0.00     0.000 OA
ATOM     52   O  A00 X   3      58.464  82.112  23.4720  0.00  0.00     0.000 OA
ATOM     53   S  A00 X   3      59.790  81.790  23.8730  0.00  0.00     0.000 S
ENDBRANCH 42 49
BRANCH 45 54
ATOM     54   C  A00 X   3      64.245  81.374  19.5000  0.00  0.00     0.000 C
ATOM     55   O  A00 X   3      64.314  81.588  18.3070  0.00  0.00     0.000 OA
ATOM     56   O  A00 X   3      64.734  80.344  19.9380  0.00  0.00     0.000 OA
ENDBRANCH 45 54
BRANCH 41 57
ATOM     57  O4  A00 X   4      61.210  80.486  19.4290  0.00  0.00     0.000 O
BRANCH 57 61
ATOM     58  C1  A00 X   4      59.376  79.802  15.5810  0.00  0.00     0.000 C
ATOM     59  C2  A00 X   4      60.363  80.986  15.7320  0.00  0.00     0.000 C
ATOM     60  C3  A00 X   4      61.215  80.917  17.0150  0.00  0.00     0.000 C
ATOM     61  C4  A00 X   4      60.351  80.624  18.2610  0.00  0.00     0.000 C
ATOM     62  C5  A00 X   4      59.615  79.291  17.9770  0.00  0.00     0.000 C
ATOM     63  O5  A00 X   4      58.739  79.464  16.8340  0.00  0.00     0.000 O
BRANCH 59 66
ATOM     64   N  A00 X   4      59.627  82.261  15.8190  0.00  0.00     0.000 N
ATOM     66  HD  A00 X   4      58.825  82.238  16.1470  0.00  0.00     0.000 HD
ATOM     66   O  A00 X   4      59.477  82.225  13.4160  0.00  0.00     0.000 OA
ATOM     67   S  A00 X   4      59.503  83.156  14.5000  0.00  0.00     0.000 S
ATOM     68   O  A00 X   4      58.266  83.833  14.7620  0.00  0.00     0.000 OA
ATOM     69   O  A00 X   4      60.668  83.983  14.6450  0.00  0.00     0.000 OA
ENDBRANCH 59 66
BRANCH 62 70
ATOM     70   C  A00 X   4      58.775  78.767  19.1660  0.00  0.00     0.000 C
ATOM     71   O  A00 X   4      55.729  80.139  20.5610  0.00  0.00     0.000 OA
ATOM     72   O  A00 X   4      57.721  79.449  21.6090  0.00  0.00     0.000 OA
ATOM     73   O  A00 X   4      57.525  79.474  19.2110  0.00  0.00     0.000 O
ATOM     74   O  A00 X   4      57.667  81.564  20.4000  0.00  0.00     0.000 OA
ATOM     75   S  A00 X   4      57.161  80.236  20.5330  0.00  0.00     0.000 S
ENDBRANCH 62 70
ENDBRANCH 57 61
ENDBRANCH 41 57
ENDBRANCH 40 44
ENDBRANCH 20 40
ENDBRANCH 19 23
ENDBRANCH 1 19
TORSDOF 14
ENDMDL
MODEL 42
REMARK VINA RESULT:      -1.5    103.966    109.579
ROOT
ATOM      1  C1  A00 X   1      98.540  12.426  92.8430  0.00  0.00     0.000 C
ATOM      2  C2  A00 X   1      99.393  13.698  93.0910  0.00  0.00     0.000 C
ATOM      3  C3  A00 X   1     100.887  13.457  93.4860  0.00  0.00     0.000 C
ATOM      4  C4  A00 X   1     101.236  12.015  93.9360  0.00  0.00     0.000 C
ATOM      5  C5  A00 X   1     100.007  11.252  94.4290  0.00  0.00     0.000 C
ATOM      6  O5  A00 X   1      99.134  11.179  93.2800  0.00  0.00     0.000 O
ATOM      7   O  A00 X   1     101.216  14.312  94.5790  0.00  0.00     0.000 O
ATOM      9  HD  A00 X   1     101.579  13.543  94.7380  0.00  0.00     0.000 HD
ATOM      9   O  A00 X   1     101.871  11.281  92.8900  0.00  0.00     0.000 O
ATOM     11  HD  A00 X   1     102.235  10.512  93.0500  0.00  0.00     0.000 HD
ENDROOT
BRANCH 2 11
ATOM     11   O  A00 X   1      99.347  14.498  91.8940  0.00  0.00     0.000 O
ATOM     12   O  A00 X   1     100.708  16.458  91.6220  0.00  0.00     0.000 OA
ATOM     13   O  A00 X   1      99.010  16.420  93.3630  0.00  0.00     0.000 OA
ATOM     14   O  A00 X   1      98.383  16.458  91.0690  0.00  0.00     0.000 OA
ATOM     15   S  A00 X   1      99.382  16.060  92.0230  0.00  0.00     0.000 S
ENDBRANCH 2 11
BRANCH 5 16
ATOM     16   C  A00 X   1      99.334  11.841  95.6730  0.00  0.00     0.000 C
ATOM     17   O  A00 X   1      98.242  11.422  95.9970  0.00  0.00     0.000 OA
ATOM     18   O  A00 X   1      99.856  12.706  96.3480  0.00  0.00     0.000 OA
ENDBRANCH 5 16
BRANCH 1 19
ATOM     19  O4  A00 X   2      97.180  12.560  93.3240  0.00  0.00     0.000 O
BRANCH 19 23
ATOM     20  C1  A00 X   2      95.468  10.490  89.9850  0.00  0.00     0.000 C
ATOM     21  C2  A00 X   2      95.463  12.037  89.9450  0.00  0.00     0.000 C
ATOM     22  C3  A00 X   2      96.468  12.616  90.9630  0.00  0.00     0.000 C
ATOM     23  C4  A00 X   2      96.199  12.051  92.3750  0.00  0.00     0.000 C
ATOM     24  C5  A00 X   2      96.212  10.501  92.2770  0.00  0.00     0.000 C
ATOM     25  O5  A00 X   2      95.177  10.083  91.3480  0.00  0.00     0.000 O
ATOM     26   O  A00 X   2      96.476  14.049  90.8390  0.00  0.00     0.000 O
ATOM     28  HD  A00 X   2      95.613  14.108  90.8880  0.00  0.00     0.000 HD
BRANCH 21 30
ATOM     28   N  A00 X   2      94.177  11.978  89.2440  0.00  0.00     0.000 N
ATOM     30  HD  A00 X   2      94.484  12.780  89.1370  0.00  0.00     0.000 HD
ATOM     30   O  A00 X   2      94.049  13.811  87.8020  0.00  0.00     0.000 OA
ATOM     31   S  A00 X   2      93.400  13.327  88.9680  0.00  0.00     0.000 S
ATOM     32   O  A00 X   2      92.047  12.905  88.7760  0.00  0.00     0.000 OA
ATOM     33   O  A00 X   2      93.508  14.127  90.1510  0.00  0.00     0.000 OA
ENDBRANCH 21 30
BRANCH 24 34
ATOM     34   C  A00 X   2      96.195   9.690  93.5940  0.00  0.00     0.000 C
ATOM     35   O  A00 X   2      93.504   7.440  94.5710  0.00  0.00     0.000 OA
ATOM     36   O  A00 X   2      94.877   9.178  93.8750  0.00  0.00     0.000 O
ATOM     37   O  A00 X   2      94.697   7.268  92.5360  0.00  0.00     0.000 OA
ATOM     38   S  A00 X   2      94.764   7.610  93.9240  0.00  0.00     0.000 S
ATOM     39   O  A00 X   2      95.895   7.145  94.6690  0.00  0.00     0.000 OA
ENDBRANCH 24 34
BRANCH 20 40
ATOM     40  O4  A00 X   3      96.806  10.098  89.6420  0.00  0.00     0.000 O
BRANCH 40 44
ATOM     41  C1  A00 X   3      99.647   7.960  90.3360  0.00  0.00     0.000 C
ATOM     42  C2  A00 X   3      99.610   9.046  89.2390  0.00  0.00     0.000 C
ATOM     43  C3  A00 X   3      98.351   8.891  88.3480  0.00  0.00     0.000 C
ATOM     44  C4  A00 X   3      97.041   8.774  89.1160  0.00  0.00     0.000 C
ATOM     45  C5  A00 X   3      97.155   7.661  90.1950  0.00  0.00     0.000 C
ATOM     46  O5  A00 X   3      98.361   7.840  91.0060  0.00  0.00     0.000 O
ATOM     47   O  A00 X   3      98.255   9.790  87.2440  0.00  0.00     0.000 O
ATOM     49  HD  A00 X   3      97.418   9.795  87.4660  0.00  0.00     0.000 HD
BRANCH 42 49
ATOM     49   O  A00 X   3      99.628  10.325  89.9100  0.00  0.00     0.000 O
ATOM     50   O  A00 X   3      99.533  12.626  89.2540  0.00  0.00     0.000 OA
ATOM     51   O  A00 X   3     100.855  11.132  87.9860  0.00  0.00     0.000 OA
ATOM     52   O  A00 X   3     101.543  11.656  90.1850  0.00  0.00     0.000 OA
ATOM     53   S  A00 X   3     100.431  11.516  89.3090  0.00  0.00     0.000 S
ENDBRANCH 42 49
BRANCH 45 54
ATOM     54   C  A00 X   3      97.044   6.261  89.5800  0.00  0.00     0.000 C
ATOM     55   O  A00 X   3      97.043   6.112  88.3750  0.00  0.00     0.000 OA
ATOM     56   O  A00 X   3      96.952   5.271  90.2900  0.00  0.00     0.000 OA
ENDBRANCH 45 54
BRANCH 41 57
ATOM     57  O4  A00 X   4     100.165   6.709  89.8320  0.00  0.00     0.000 O
BRANCH 57 61
ATOM     58  C1  A00 X   4     102.535   3.574  91.6200  0.00  0.00     0.000 C
ATOM     59  C2  A00 X   4     101.138   3.879  92.2160  0.00  0.00     0.000 C
ATOM     60  C3  A00 X   4     100.252   4.745  91.2970  0.00  0.00     0.000 C
ATOM     61  C4  A00 X   4     101.015   5.974  90.7570  0.00  0.00     0.000 C
ATOM     62  C5  A00 X   4     102.261   5.424  90.0190  0.00  0.00     0.000 C
ATOM     63  O5  A00 X   4     103.110   4.729  90.9680  0.00  0.00     0.000 O
BRANCH 59 66
ATOM     64   N  A00 X   4     101.264   4.647  93.4680  0.00  0.00     0.000 N
ATOM     66  HD  A00 X   4     101.959   5.155  93.5580  0.00  0.00     0.000 HD
ATOM     66   O  A00 X   4     101.688   2.559  94.5890  0.00  0.00     0.000 OA
ATOM     67   S  A00 X   4     101.155   3.858  94.8550  0.00  0.00     0.000 S
ATOM     68   O  A00 X   4     101.961   4.696  95.6940  0.00  0.00     0.000 OA
ATOM     69   O  A00 X   4      99.744   3.966  95.0970  0.00  0.00     0.000 OA
ENDBRANCH 59 66
BRANCH 62 70
ATOM     70   C  A00 X   4     103.104   6.509  89.3080  0.00  0.00     0.000 C
ATOM     71   O  A00 X   4     105.154   9.105  90.7790  0.00  0.00     0.000 OA
ATOM     72   O  A00 X   4     103.511   9.217  89.0950  0.00  0.00     0.000 OA
ATOM     73   O  A00 X   4     103.946   7.164  90.2710  0.00  0.00     0.000 O
ATOM     74   O  A00 X   4     102.835   8.965  91.4230  0.00  0.00     0.000 OA
ATOM     75   S  A00 X   4     103.819   8.720  90.4180  0.00  0.00     0.000 S
ENDBRANCH 62 70
ENDBRANCH 57 61
ENDBRANCH 41 57
ENDBRANCH 40 44
ENDBRANCH 20 40
ENDBRANCH 19 23
ENDBRANCH 1 19
TORSDOF 14
ENDMDL
MODEL 43
REMARK VINA RESULT:      -1.5     83.866     88.427
ROOT
ATOM      1  C1  A00 X   1      48.988  68.539  88.7380  0.00  0.00     0.000 C
ATOM      2  C2  A00 X   1      48.755  69.167  90.1380  0.00  0.00     0.000 C
ATOM      3  C3  A00 X   1      48.098  68.236  91.2090  0.00  0.00     0.000 C
ATOM      4  C4  A00 X   1      47.431  66.950  90.6570  0.00  0.00     0.000 C
ATOM      5  C5  A00 X   1      47.058  67.081  89.1800  0.00  0.00     0.000 C
ATOM      6  O5  A00 X   1      48.317  67.277  88.4990  0.00  0.00     0.000 O
ATOM      7   O  A00 X   1      47.074  68.965  91.8820  0.00  0.00     0.000 O
ATOM      9  HD  A00 X   1      46.768  68.167  91.7400  0.00  0.00     0.000 HD
ATOM      9   O  A00 X   1      48.266  65.807  90.8430  0.00  0.00     0.000 O
ATOM     11  HD  A00 X   1      47.960  65.010  90.7010  0.00  0.00     0.000 HD
ENDROOT
BRANCH 2 11
ATOM     11   O  A00 X   1      50.030  69.623  90.6310  0.00  0.00     0.000 O
ATOM     12   O  A00 X   1      50.305  70.444  92.8710  0.00  0.00     0.000 OA
ATOM     13   O  A00 X   1      48.871  71.658  91.3260  0.00  0.00     0.000 OA
ATOM     14   O  A00 X   1      51.225  71.596  90.9900  0.00  0.00     0.000 OA
ATOM     15   S  A00 X   1      50.081  70.909  91.5260  0.00  0.00     0.000 S
ENDBRANCH 2 11
BRANCH 5 16
ATOM     16   C  A00 X   1      46.018  68.162  88.8680  0.00  0.00     0.000 C
ATOM     17   O  A00 X   1      45.828  68.468  87.7090  0.00  0.00     0.000 OA
ATOM     18   O  A00 X   1      45.374  68.716  89.7370  0.00  0.00     0.000 OA
ENDBRANCH 5 16
BRANCH 1 19
ATOM     19  O4  A00 X   2      48.753  69.474  87.6570  0.00  0.00     0.000 O
BRANCH 19 23
ATOM     20  C1  A00 X   2      52.053  68.068  85.3120  0.00  0.00     0.000 C
ATOM     21  C2  A00 X   2      52.280  69.329  86.1800  0.00  0.00     0.000 C
ATOM     22  C3  A00 X   2      51.189  69.453  87.2640  0.00  0.00     0.000 C
ATOM     23  C4  A00 X   2      49.782  69.408  86.6280  0.00  0.00     0.000 C
ATOM     24  C5  A00 X   2      49.688  68.114  85.7730  0.00  0.00     0.000 C
ATOM     25  O5  A00 X   2      50.716  68.155  84.7500  0.00  0.00     0.000 O
ATOM     26   O  A00 X   2      51.482  70.597  88.0850  0.00  0.00     0.000 O
ATOM     28  HD  A00 X   2      51.583  71.122  87.4040  0.00  0.00     0.000 HD
BRANCH 21 30
ATOM     28   N  A00 X   2      53.169  69.844  85.1340  0.00  0.00     0.000 N
ATOM     30  HD  A00 X   2      53.321  70.313  85.8470  0.00  0.00     0.000 HD
ATOM     30   O  A00 X   2      54.825  71.135  86.1590  0.00  0.00     0.000 OA
ATOM     31   S  A00 X   2      53.730  71.315  85.2730  0.00  0.00     0.000 S
ATOM     32   O  A00 X   2      54.089  71.668  83.9340  0.00  0.00     0.000 OA
ATOM     33   O  A00 X   2      52.652  72.138  85.7330  0.00  0.00     0.000 OA
ENDBRANCH 21 30
BRANCH 24 34
ATOM     34   C  A00 X   2      48.303  67.713  85.2130  0.00  0.00     0.000 C
ATOM     35   O  A00 X   2      47.531  67.468  81.6630  0.00  0.00     0.000 OA
ATOM     36   O  A00 X   2      48.191  68.041  83.8140  0.00  0.00     0.000 O
ATOM     37   O  A00 X   2      49.294  66.295  82.7160  0.00  0.00     0.000 OA
ATOM     38   S  A00 X   2      47.968  66.816  82.8530  0.00  0.00     0.000 S
ATOM     39   O  A00 X   2      46.989  65.981  83.4820  0.00  0.00     0.000 OA
ENDBRANCH 24 34
BRANCH 20 40
ATOM     40  O4  A00 X   3      52.121  66.956  86.2170  0.00  0.00     0.000 O
BRANCH 40 44
ATOM     41  C1  A00 X   3      50.743  63.790  87.3120  0.00  0.00     0.000 C
ATOM     42  C2  A00 X   3      51.949  64.498  87.9660  0.00  0.00     0.000 C
ATOM     43  C3  A00 X   3      53.006  64.891  86.9030  0.00  0.00     0.000 C
ATOM     44  C4  A00 X   3      52.448  65.647  85.7040  0.00  0.00     0.000 C
ATOM     45  C5  A00 X   3      51.245  64.870  85.0980  0.00  0.00     0.000 C
ATOM     46  O5  A00 X   3      50.278  64.512  86.1380  0.00  0.00     0.000 O
ATOM     47   O  A00 X   3      54.206  65.476  87.4040  0.00  0.00     0.000 O
ATOM     49  HD  A00 X   3      54.123  65.975  86.7020  0.00  0.00     0.000 HD
BRANCH 42 49
ATOM     49   O  A00 X   3      51.435  65.660  88.6540  0.00  0.00     0.000 O
ATOM     50   O  A00 X   3      52.354  67.477  89.9120  0.00  0.00     0.000 OA
ATOM     51   O  A00 X   3      53.217  65.302  90.2510  0.00  0.00     0.000 OA
ATOM     52   O  A00 X   3      51.010  65.763  90.9610  0.00  0.00     0.000 OA
ATOM     53   S  A00 X   3      52.031  66.090  90.0260  0.00  0.00     0.000 S
ENDBRANCH 42 49
BRANCH 45 54
ATOM     54   C  A00 X   3      51.706  63.670  84.2630  0.00  0.00     0.000 C
ATOM     55   O  A00 X   3      50.914  63.045  83.5880  0.00  0.00     0.000 OA
ATOM     56   O  A00 X   3      52.877  63.320  84.2640  0.00  0.00     0.000 OA
ENDBRANCH 45 54
BRANCH 41 57
ATOM     57  O4  A00 X   4      51.012  62.390  87.0720  0.00  0.00     0.000 O
BRANCH 57 61
ATOM     58  C1  A00 X   4      48.520  58.865  87.1260  0.00  0.00     0.000 C
ATOM     59  C2  A00 X   4      48.201  59.983  86.1010  0.00  0.00     0.000 C
ATOM     60  C3  A00 X   4      49.345  61.003  85.9280  0.00  0.00     0.000 C
ATOM     61  C4  A00 X   4      49.883  61.497  87.2880  0.00  0.00     0.000 C
ATOM     62  C5  A00 X   4      50.338  60.235  88.0620  0.00  0.00     0.000 C
ATOM     63  O5  A00 X   4      49.190  59.380  88.2990  0.00  0.00     0.000 O
BRANCH 59 66
ATOM     64   N  A00 X   4      47.039  60.775  86.5410  0.00  0.00     0.000 N
ATOM     66  HD  A00 X   4      46.892  60.830  87.3930  0.00  0.00     0.000 HD
ATOM     66   O  A00 X   4      45.639  59.040  85.6310  0.00  0.00     0.000 OA
ATOM     67   S  A00 X   4      45.610  60.443  85.9020  0.00  0.00     0.000 S
ATOM     68   O  A00 X   4      44.747  60.848  86.9730  0.00  0.00     0.000 OA
ATOM     69   O  A00 X   4      45.619  61.342  84.7830  0.00  0.00     0.000 OA
ENDBRANCH 59 66
BRANCH 62 70
ATOM     70   C  A00 X   4      51.015  60.536  89.4210  0.00  0.00     0.000 C
ATOM     71   O  A00 X   4      49.521  61.831  92.4540  0.00  0.00     0.000 OA
ATOM     72   O  A00 X   4      51.458  62.497  91.2920  0.00  0.00     0.000 OA
ATOM     73   O  A00 X   4      50.004  60.797  90.4070  0.00  0.00     0.000 O
ATOM     74   O  A00 X   4      49.264  63.090  90.4140  0.00  0.00     0.000 OA
ATOM     75   S  A00 X   4      50.055  62.170  91.1650  0.00  0.00     0.000 S
ENDBRANCH 62 70
ENDBRANCH 57 61
ENDBRANCH 41 57
ENDBRANCH 40 44
ENDBRANCH 20 40
ENDBRANCH 19 23
ENDBRANCH 1 19
TORSDOF 14
ENDMDL
MODEL 44
REMARK VINA RESULT:      -1.5     65.772     69.994
ROOT
ATOM      1  C1  A00 X   1      72.323  60.423  57.5200  0.00  0.00     0.000 C
ATOM      2  C2  A00 X   1      72.926  61.841  57.7000  0.00  0.00     0.000 C
ATOM      3  C3  A00 X   1      74.487  61.923  57.7470  0.00  0.00     0.000 C
ATOM      4  C4  A00 X   1      75.221  60.577  57.9760  0.00  0.00     0.000 C
ATOM      5  C5  A00 X   1      74.322  59.536  58.6440  0.00  0.00     0.000 C
ATOM      6  O5  A00 X   1      73.247  59.322  57.7020  0.00  0.00     0.000 O
ATOM      7   O  A00 X   1      74.869  62.780  58.8200  0.00  0.00     0.000 O
ATOM      9  HD  A00 X   1      75.411  62.105  58.8270  0.00  0.00     0.000 HD
ATOM      9   O  A00 X   1      75.742  60.052  56.7550  0.00  0.00     0.000 O
ATOM     11  HD  A00 X   1      76.284  59.377  56.7620  0.00  0.00     0.000 HD
ENDROOT
BRANCH 2 11
ATOM     11   O  A00 X   1      72.444  62.663  56.6190  0.00  0.00     0.000 O
ATOM     12   O  A00 X   1      72.960  65.005  56.4770  0.00  0.00     0.000 OA
ATOM     13   O  A00 X   1      71.623  64.191  58.3390  0.00  0.00     0.000 OA
ATOM     14   O  A00 X   1      70.742  64.184  56.1300  0.00  0.00     0.000 OA
ATOM     15   S  A00 X   1      71.929  64.109  56.9380  0.00  0.00     0.000 S
ENDBRANCH 2 11
BRANCH 5 16
ATOM     16   C  A00 X   1      73.841  59.903  60.0510  0.00  0.00     0.000 C
ATOM     17   O  A00 X   1      72.964  59.235  60.5580  0.00  0.00     0.000 OA
ATOM     18   O  A00 X   1      74.309  60.833  60.6780  0.00  0.00     0.000 OA
ENDBRANCH 5 16
BRANCH 1 19
ATOM     19  O4  A00 X   2      71.110  60.227  58.2870  0.00  0.00     0.000 O
BRANCH 19 23
ATOM     20  C1  A00 X   2      69.222  57.850  55.2620  0.00  0.00     0.000 C
ATOM     21  C2  A00 X   2      68.837  59.347  55.3380  0.00  0.00     0.000 C
ATOM     22  C3  A00 X   2      69.880  60.142  56.1500  0.00  0.00     0.000 C
ATOM     23  C4  A00 X   2      70.088  59.505  57.5420  0.00  0.00     0.000 C
ATOM     24  C5  A00 X   2      70.449  58.009  57.3300  0.00  0.00     0.000 C
ATOM     25  O5  A00 X   2      69.359  57.361  56.6230  0.00  0.00     0.000 O
ATOM     26   O  A00 X   2      69.516  61.533  56.1330  0.00  0.00     0.000 O
ATOM     28  HD  A00 X   2      68.699  61.373  56.3740  0.00  0.00     0.000 HD
BRANCH 21 30
ATOM     28   N  A00 X   2      67.476  58.979  54.9340  0.00  0.00     0.000 N
ATOM     30  HD  A00 X   2      67.548  59.834  54.8210  0.00  0.00     0.000 HD
ATOM     30   O  A00 X   2      66.583  60.745  53.6930  0.00  0.00     0.000 OA
ATOM     31   S  A00 X   2      66.357  60.095  54.9340  0.00  0.00     0.000 S
ATOM     32   O  A00 X   2      65.137  59.352  55.0130  0.00  0.00     0.000 OA
ATOM     33   O  A00 X   2      66.540  60.878  56.1200  0.00  0.00     0.000 OA
ENDBRANCH 21 30
BRANCH 24 34
ATOM     34   C  A00 X   2      70.931  57.198  58.5560  0.00  0.00     0.000 C
ATOM     35   O  A00 X   2      68.986  56.753  61.6020  0.00  0.00     0.000 OA
ATOM     36   O  A00 X   2      70.131  57.486  59.7200  0.00  0.00     0.000 O
ATOM     37   O  A00 X   2      68.208  56.184  59.4420  0.00  0.00     0.000 OA
ATOM     38   S  A00 X   2      69.342  56.261  60.3120  0.00  0.00     0.000 S
ATOM     39   O  A00 X   2      70.253  55.156  60.3140  0.00  0.00     0.000 OA
ENDBRANCH 24 34
BRANCH 20 40
ATOM     40  O4  A00 X   3      70.498  57.810  54.6070  0.00  0.00     0.000 O
BRANCH 40 44
ATOM     41  C1  A00 X   3      73.842  56.420  54.5400  0.00  0.00     0.000 C
ATOM     42  C2  A00 X   3      73.312  57.486  53.5560  0.00  0.00     0.000 C
ATOM     43  C3  A00 X   3      71.962  57.046  52.9360  0.00  0.00     0.000 C
ATOM     44  C4  A00 X   3      70.916  56.595  53.9480  0.00  0.00     0.000 C
ATOM     45  C5  A00 X   3      71.521  55.522  54.8960  0.00  0.00     0.000 C
ATOM     46  O5  A00 X   3      72.799  55.975  55.4500  0.00  0.00     0.000 O
ATOM     47   O  A00 X   3      71.419  57.916  51.9440  0.00  0.00     0.000 O
ATOM     49  HD  A00 X   3      70.673  57.711  52.3340  0.00  0.00     0.000 HD
BRANCH 42 49
ATOM     49   O  A00 X   3      73.176  58.717  54.3000  0.00  0.00     0.000 O
ATOM     50   O  A00 X   3      72.391  60.933  53.8520  0.00  0.00     0.000 OA
ATOM     51   O  A00 X   3      73.711  59.839  52.2240  0.00  0.00     0.000 OA
ATOM     52   O  A00 X   3      74.731  60.476  54.2590  0.00  0.00     0.000 OA
ATOM     53   S  A00 X   3      73.517  60.080  53.6320  0.00  0.00     0.000 S
ENDBRANCH 42 49
BRANCH 45 54
ATOM     54   C  A00 X   3      71.611  54.150  54.2170  0.00  0.00     0.000 C
ATOM     55   O  A00 X   3      71.944  53.168  54.8470  0.00  0.00     0.000 OA
ATOM     56   O  A00 X   3      71.350  54.022  53.0310  0.00  0.00     0.000 OA
ENDBRANCH 45 54
BRANCH 41 57
ATOM     57  O4  A00 X   4      74.517  55.344  53.8490  0.00  0.00     0.000 O
BRANCH 57 61
ATOM     58  C1  A00 X   4      77.887  52.849  54.8770  0.00  0.00     0.000 C
ATOM     59  C2  A00 X   4      76.627  52.801  55.7770  0.00  0.00     0.000 C
ATOM     60  C3  A00 X   4      75.382  53.440  55.1270  0.00  0.00     0.000 C
ATOM     61  C4  A00 X   4      75.699  54.824  54.5200  0.00  0.00     0.000 C
ATOM     62  C5  A00 X   4      76.841  54.600  53.4980  0.00  0.00     0.000 C
ATOM     63  O5  A00 X   4      78.018  54.118  54.1960  0.00  0.00     0.000 O
BRANCH 59 66
ATOM     64   N  A00 X   4      76.840  53.557  57.0240  0.00  0.00     0.000 N
ATOM     66  HD  A00 X   4      77.398  54.219  57.0000  0.00  0.00     0.000 HD
ATOM     66   O  A00 X   4      77.984  51.620  57.8850  0.00  0.00     0.000 OA
ATOM     67   S  A00 X   4      77.230  52.744  58.3450  0.00  0.00     0.000 S
ATOM     68   O  A00 X   4      77.979  53.742  59.0520  0.00  0.00     0.000 OA
ATOM     69   O  A00 X   4      75.923  52.497  58.8860  0.00  0.00     0.000 OA
ENDBRANCH 59 66
BRANCH 62 70
ATOM     70   C  A00 X   4      77.229  55.866  52.6970  0.00  0.00     0.000 C
ATOM     71   O  A00 X   4      78.890  58.862  53.8670  0.00  0.00     0.000 OA
ATOM     72   O  A00 X   4      76.936  58.594  52.5810  0.00  0.00     0.000 OA
ATOM     73   O  A00 X   4      78.086  56.693  53.5010  0.00  0.00     0.000 O
ATOM     74   O  A00 X   4      76.870  58.157  54.9780  0.00  0.00     0.000 OA
ATOM     75   S  A00 X   4      77.636  58.170  53.7730  0.00  0.00     0.000 S
ENDBRANCH 62 70
ENDBRANCH 57 61
ENDBRANCH 41 57
ENDBRANCH 40 44
ENDBRANCH 20 40
ENDBRANCH 19 23
ENDBRANCH 1 19
TORSDOF 14
ENDMDL
MODEL 45
REMARK VINA RESULT:      -1.5     66.643     70.112
ROOT
ATOM      1  C1  A00 X   1      77.077  51.853  58.0610  0.00  0.00     0.000 C
ATOM      2  C2  A00 X   1      77.630  53.064  57.2630  0.00  0.00     0.000 C
ATOM      3  C3  A00 X   1      78.709  52.738  56.1780  0.00  0.00     0.000 C
ATOM      4  C4  A00 X   1      79.354  51.332  56.2800  0.00  0.00     0.000 C
ATOM      5  C5  A00 X   1      79.239  50.744  57.6860  0.00  0.00     0.000 C
ATOM      6  O5  A00 X   1      77.818  50.616  57.9150  0.00  0.00     0.000 O
ATOM      7   O  A00 X   1      79.772  53.681  56.2920  0.00  0.00     0.000 O
ATOM      9  HD  A00 X   1      80.132  52.905  56.1540  0.00  0.00     0.000 HD
ATOM      9   O  A00 X   1      78.789  50.428  55.3310  0.00  0.00     0.000 O
ATOM     11  HD  A00 X   1      79.149  49.653  55.1920  0.00  0.00     0.000 HD
ENDROOT
BRANCH 2 11
ATOM     11   O  A00 X   1      76.513  53.720  56.6320  0.00  0.00     0.000 O
ATOM     12   O  A00 X   1      76.815  55.501  55.0500  0.00  0.00     0.000 OA
ATOM     13   O  A00 X   1      77.527  55.822  57.3540  0.00  0.00     0.000 OA
ATOM     14   O  A00 X   1      75.215  55.652  56.8190  0.00  0.00     0.000 OA
ATOM     15   S  A00 X   1      76.553  55.277  56.4490  0.00  0.00     0.000 S
ENDBRANCH 2 11
BRANCH 5 16
ATOM     16   C  A00 X   1      79.968  51.531  58.7790  0.00  0.00     0.000 C
ATOM     17   O  A00 X   1      79.751  51.251  59.9400  0.00  0.00     0.000 OA
ATOM     18   O  A00 X   1      80.759  52.418  58.5270  0.00  0.00     0.000 OA
ENDBRANCH 5 16
BRANCH 1 19
ATOM     19  O4  A00 X   2      76.835  52.162  59.4550  0.00  0.00     0.000 O
BRANCH 19 23
ATOM     20  C1  A00 X   2      73.201  49.898  59.6440  0.00  0.00     0.000 C
ATOM     21  C2  A00 X   2      73.080  51.427  59.4300  0.00  0.00     0.000 C
ATOM     22  C3  A00 X   2      74.423  52.023  58.9570  0.00  0.00     0.000 C
ATOM     23  C4  A00 X   2      75.560  51.641  59.9300  0.00  0.00     0.000 C
ATOM     24  C5  A00 X   2      75.564  50.095  60.0730  0.00  0.00     0.000 C
ATOM     25  O5  A00 X   2      74.277  49.670  60.5930  0.00  0.00     0.000 O
ATOM     26   O  A00 X   2      74.241  53.427  58.7070  0.00  0.00     0.000 O
ATOM     28  HD  A00 X   2      73.866  53.567  59.4750  0.00  0.00     0.000 HD
BRANCH 21 30
ATOM     28   N  A00 X   2      71.852  51.404  60.2300  0.00  0.00     0.000 N
ATOM     30  HD  A00 X   2      71.862  52.160  59.8080  0.00  0.00     0.000 HD
ATOM     30   O  A00 X   2      70.429  53.073  59.4250  0.00  0.00     0.000 OA
ATOM     31   S  A00 X   2      71.164  52.777  60.6030  0.00  0.00     0.000 S
ATOM     32   O  A00 X   2      70.369  52.457  61.7480  0.00  0.00     0.000 OA
ATOM     33   O  A00 X   2      72.209  53.690  60.9630  0.00  0.00     0.000 OA
ENDBRANCH 21 30
BRANCH 24 34
ATOM     34   C  A00 X   2      76.753  49.437  60.8130  0.00  0.00     0.000 C
ATOM     35   O  A00 X   2      76.447  47.611  63.9480  0.00  0.00     0.000 OA
ATOM     36   O  A00 X   2      76.403  49.104  62.1710  0.00  0.00     0.000 O
ATOM     37   O  A00 X   2      75.223  47.092  61.9920  0.00  0.00     0.000 OA
ATOM     38   S  A00 X   2      76.463  47.572  62.5230  0.00  0.00     0.000 S
ATOM     39   O  A00 X   2      77.672  47.070  61.9430  0.00  0.00     0.000 OA
ENDBRANCH 24 34
BRANCH 20 40
ATOM     40  O4  A00 X   3      73.565  49.355  58.3660  0.00  0.00     0.000 O
BRANCH 40 44
ATOM     41  C1  A00 X   3      75.669  47.072  56.5000  0.00  0.00     0.000 C
ATOM     42  C2  A00 X   3      74.627  48.023  55.8710  0.00  0.00     0.000 C
ATOM     43  C3  A00 X   3      73.250  47.876  56.5680  0.00  0.00     0.000 C
ATOM     44  C4  A00 X   3      73.297  47.964  58.0880  0.00  0.00     0.000 C
ATOM     45  C5  A00 X   3      74.362  46.978  58.6450  0.00  0.00     0.000 C
ATOM     46  O5  A00 X   3      75.642  47.143  57.9520  0.00  0.00     0.000 O
ATOM     47   O  A00 X   3      72.186  48.646  56.0120  0.00  0.00     0.000 O
ATOM     49  HD  A00 X   3      71.975  48.749  56.8460  0.00  0.00     0.000 HD
BRANCH 42 49
ATOM     49   O  A00 X   3      75.145  49.365  56.0020  0.00  0.00     0.000 O
ATOM     50   O  A00 X   3      74.406  51.570  55.4380  0.00  0.00     0.000 OA
ATOM     51   O  A00 X   3      74.053  49.818  53.8910  0.00  0.00     0.000 OA
ATOM     52   O  A00 X   3      76.269  50.530  54.3010  0.00  0.00     0.000 OA
ATOM     53   S  A00 X   3      74.963  50.394  54.8480  0.00  0.00     0.000 S
ENDBRANCH 42 49
BRANCH 45 54
ATOM     54   C  A00 X   3      73.855  45.531  58.6370  0.00  0.00     0.000 C
ATOM     55   O  A00 X   3      74.438  44.667  59.2600  0.00  0.00     0.000 OA
ATOM     56   O  A00 X   3      72.857  45.221  58.0040  0.00  0.00     0.000 OA
ENDBRANCH 45 54
BRANCH 41 57
ATOM     57  O4  A00 X   4      75.553  45.730  55.9760  0.00  0.00     0.000 O
BRANCH 57 61
ATOM     58  C1  A00 X   4      78.432  42.591  55.2710  0.00  0.00     0.000 C
ATOM     59  C2  A00 X   4      78.226  43.097  56.7210  0.00  0.00     0.000 C
ATOM     60  C3  A00 X   4      76.948  43.940  56.9030  0.00  0.00     0.000 C
ATOM     61  C4  A00 X   4      76.813  45.021  55.8080  0.00  0.00     0.000 C
ATOM     62  C5  A00 X   4      76.831  44.272  54.4520  0.00  0.00     0.000 C
ATOM     63  O5  A00 X   4      78.109  43.605  54.2920  0.00  0.00     0.000 O
BRANCH 59 66
ATOM     64   N  A00 X   4      79.338  43.982  57.1150  0.00  0.00     0.000 N
ATOM     66  HD  A00 X   4      79.743  44.420  56.4870  0.00  0.00     0.000 HD
ATOM     66   O  A00 X   4      80.609  41.997  57.6100  0.00  0.00     0.000 OA
ATOM     67   S  A00 X   4      80.515  43.367  58.0070  0.00  0.00     0.000 S
ATOM     68   O  A00 X   4      81.608  44.203  57.6040  0.00  0.00     0.000 OA
ATOM     69   O  A00 X   4      80.011  43.650  59.3210  0.00  0.00     0.000 OA
ENDBRANCH 59 66
BRANCH 62 70
ATOM     70   C  A00 X   4      76.595  45.184  53.2240  0.00  0.00     0.000 C
ATOM     71   O  A00 X   4      78.790  47.696  51.8170  0.00  0.00     0.000 OA
ATOM     72   O  A00 X   4      76.507  47.798  52.3860  0.00  0.00     0.000 OA
ATOM     73   O  A00 X   4      77.823  45.846  52.8820  0.00  0.00     0.000 O
ATOM     74   O  A00 X   4      78.190  47.864  54.1470  0.00  0.00     0.000 OA
ATOM     75   S  A00 X   4      77.824  47.414  52.8420  0.00  0.00     0.000 S
ENDBRANCH 62 70
ENDBRANCH 57 61
ENDBRANCH 41 57
ENDBRANCH 40 44
ENDBRANCH 20 40
ENDBRANCH 19 23
ENDBRANCH 1 19
TORSDOF 14
ENDMDL
MODEL 46
REMARK VINA RESULT:      -1.5     59.005     64.225
ROOT
ATOM      1  C1  A00 X   1      54.851  62.443  61.5150  0.00  0.00     0.000 C
ATOM      2  C2  A00 X   1      54.761  63.992  61.4940  0.00  0.00     0.000 C
ATOM      3  C3  A00 X   1      54.331  64.638  60.1360  0.00  0.00     0.000 C
ATOM      4  C4  A00 X   1      54.405  63.705  58.8990  0.00  0.00     0.000 C
ATOM      5  C5  A00 X   1      55.371  62.539  59.1130  0.00  0.00     0.000 C
ATOM      6  O5  A00 X   1      54.810  61.796  60.2180  0.00  0.00     0.000 O
ATOM      7   O  A00 X   1      55.190  65.742  59.8620  0.00  0.00     0.000 O
ATOM      9  HD  A00 X   1      55.072  65.320  59.1150  0.00  0.00     0.000 HD
ATOM      9   O  A00 X   1      53.116  63.206  58.5440  0.00  0.00     0.000 O
ATOM     11  HD  A00 X   1      52.998  62.783  57.7980  0.00  0.00     0.000 HD
ENDROOT
BRANCH 2 11
ATOM     11   O  A00 X   1      53.830  64.391  62.5190  0.00  0.00     0.000 O
ATOM     12   O  A00 X   1      53.106  66.668  62.7610  0.00  0.00     0.000 OA
ATOM     13   O  A00 X   1      55.450  66.120  63.1150  0.00  0.00     0.000 OA
ATOM     14   O  A00 X   1      53.791  65.362  64.6420  0.00  0.00     0.000 OA
ATOM     15   S  A00 X   1      54.075  65.737  63.2830  0.00  0.00     0.000 S
ENDBRANCH 2 11
BRANCH 5 16
ATOM     16   C  A00 X   1      56.834  62.940  59.3230  0.00  0.00     0.000 C
ATOM     17   O  A00 X   1      57.622  62.092  59.6890  0.00  0.00     0.000 OA
ATOM     18   O  A00 X   1      57.234  64.071  59.1310  0.00  0.00     0.000 OA
ENDBRANCH 5 16
BRANCH 1 19
ATOM     19  O4  A00 X   2      55.958  61.956  62.3130  0.00  0.00     0.000 O
BRANCH 19 23
ATOM     20  C1  A00 X   2      53.737  58.672  63.9410  0.00  0.00     0.000 C
ATOM     21  C2  A00 X   2      53.858  59.951  64.8050  0.00  0.00     0.000 C
ATOM     22  C3  A00 X   2      54.288  61.157  63.9440  0.00  0.00     0.000 C
ATOM     23  C4  A00 X   2      55.582  60.835  63.1630  0.00  0.00     0.000 C
ATOM     24  C5  A00 X   2      55.337  59.530  62.3570  0.00  0.00     0.000 C
ATOM     25  O5  A00 X   2      55.015  58.461  63.2840  0.00  0.00     0.000 O
ATOM     26   O  A00 X   2      54.320  62.329  64.7750  0.00  0.00     0.000 O
ATOM     28  HD  A00 X   2      54.800  61.945  65.3850  0.00  0.00     0.000 HD
BRANCH 21 30
ATOM     28   N  A00 X   2      53.889  59.095  65.9950  0.00  0.00     0.000 N
ATOM     30  HD  A00 X   2      53.726  59.900  66.2690  0.00  0.00     0.000 HD
ATOM     30   O  A00 X   2      52.898  60.265  67.7570  0.00  0.00     0.000 OA
ATOM     31   S  A00 X   2      54.176  59.760  67.4000  0.00  0.00     0.000 S
ATOM     32   O  A00 X   2      54.641  58.671  68.2020  0.00  0.00     0.000 OA
ATOM     33   O  A00 X   2      55.223  60.719  67.2090  0.00  0.00     0.000 OA
ENDBRANCH 21 30
BRANCH 24 34
ATOM     34   C  A00 X   2      56.399  59.113  61.3110  0.00  0.00     0.000 C
ATOM     35   O  A00 X   2      58.354  56.047  61.4980  0.00  0.00     0.000 OA
ATOM     36   O  A00 X   2      57.246  58.062  61.8170  0.00  0.00     0.000 O
ATOM     37   O  A00 X   2      55.990  56.111  61.5230  0.00  0.00     0.000 OA
ATOM     38   S  A00 X   2      57.187  56.710  61.0160  0.00  0.00     0.000 S
ATOM     39   O  A00 X   2      57.217  57.059  59.6280  0.00  0.00     0.000 OA
ENDBRANCH 24 34
BRANCH 20 40
ATOM     40  O4  A00 X   3      52.734  58.964  62.9560  0.00  0.00     0.000 O
BRANCH 40 44
ATOM     41  C1  A00 X   3      51.689  58.782  59.4920  0.00  0.00     0.000 C
ATOM     42  C2  A00 X   3      50.875  59.447  60.6230  0.00  0.00     0.000 C
ATOM     43  C3  A00 X   3      50.725  58.491  61.8350  0.00  0.00     0.000 C
ATOM     44  C4  A00 X   3      52.030  57.875  62.3210  0.00  0.00     0.000 C
ATOM     45  C5  A00 X   3      52.787  57.223  61.1300  0.00  0.00     0.000 C
ATOM     46  O5  A00 X   3      52.897  58.156  60.0070  0.00  0.00     0.000 O
ATOM     47   O  A00 X   3      49.915  58.968  62.9080  0.00  0.00     0.000 O
ATOM     49  HD  A00 X   3      50.526  58.587  63.3890  0.00  0.00     0.000 HD
BRANCH 42 49
ATOM     49   O  A00 X   3      51.571  60.658  60.9900  0.00  0.00     0.000 O
ATOM     50   O  A00 X   3      51.286  62.398  62.6090  0.00  0.00     0.000 OA
ATOM     51   O  A00 X   3      49.384  61.576  61.4710  0.00  0.00     0.000 OA
ATOM     52   O  A00 X   3      50.987  62.807  60.2450  0.00  0.00     0.000 OA
ATOM     53   S  A00 X   3      50.773  61.944  61.3550  0.00  0.00     0.000 S
ENDBRANCH 42 49
BRANCH 45 54
ATOM     54   C  A00 X   3      52.172  55.874  60.7360  0.00  0.00     0.000 C
ATOM     55   O  A00 X   3      51.129  55.502  61.2330  0.00  0.00     0.000 OA
ATOM     56   O  A00 X   3      52.721  55.152  59.9190  0.00  0.00     0.000 OA
ENDBRANCH 45 54
BRANCH 41 57
ATOM     57  O4  A00 X   4      50.869  57.903  58.6900  0.00  0.00     0.000 O
BRANCH 57 61
ATOM     58  C1  A00 X   4      50.899  56.868  54.4980  0.00  0.00     0.000 C
ATOM     59  C2  A00 X   4      52.143  56.524  55.3560  0.00  0.00     0.000 C
ATOM     60  C3  A00 X   4      51.884  56.605  56.8740  0.00  0.00     0.000 C
ATOM     61  C4  A00 X   4      51.163  57.914  57.2640  0.00  0.00     0.000 C
ATOM     62  C5  A00 X   4      49.849  57.948  56.4450  0.00  0.00     0.000 C
ATOM     63  O5  A00 X   4      50.169  57.997  55.0310  0.00  0.00     0.000 O
BRANCH 59 66
ATOM     64   N  A00 X   4      53.255  57.461  55.1160  0.00  0.00     0.000 N
ATOM     66  HD  A00 X   4      53.054  58.269  54.8770  0.00  0.00     0.000 HD
ATOM     66   O  A00 X   4      53.772  56.183  53.1410  0.00  0.00     0.000 OA
ATOM     67   S  A00 X   4      54.415  57.016  54.1080  0.00  0.00     0.000 S
ATOM     68   O  A00 X   4      54.848  58.297  53.6300  0.00  0.00     0.000 OA
ATOM     69   O  A00 X   4      55.325  56.394  55.0280  0.00  0.00     0.000 OA
ENDBRANCH 59 66
BRANCH 62 70
ATOM     70   C  A00 X   4      48.925  59.143  56.7810  0.00  0.00     0.000 C
ATOM     71   O  A00 X   4      49.426  62.658  56.0700  0.00  0.00     0.000 OA
ATOM     72   O  A00 X   4      48.815  61.568  58.0660  0.00  0.00     0.000 OA
ATOM     73   O  A00 X   4      49.398  60.315  56.0980  0.00  0.00     0.000 O
ATOM     74   O  A00 X   4      51.128  61.478  57.3050  0.00  0.00     0.000 OA
ATOM     75   S  A00 X   4      49.747  61.578  56.9600  0.00  0.00     0.000 S
ENDBRANCH 62 70
ENDBRANCH 57 61
ENDBRANCH 41 57
ENDBRANCH 40 44
ENDBRANCH 20 40
ENDBRANCH 19 23
ENDBRANCH 1 19
TORSDOF 14
ENDMDL
MODEL 47
REMARK VINA RESULT:      -1.5     65.379     69.173
ROOT
ATOM      1  C1  A00 X   1      77.769  74.086  33.9850  0.00  0.00     0.000 C
ATOM      2  C2  A00 X   1      78.892  73.124  34.4560  0.00  0.00     0.000 C
ATOM      3  C3  A00 X   1      78.937  72.819  35.9900  0.00  0.00     0.000 C
ATOM      4  C4  A00 X   1      78.111  73.777  36.8860  0.00  0.00     0.000 C
ATOM      5  C5  A00 X   1      77.859  75.125  36.2110  0.00  0.00     0.000 C
ATOM      6  O5  A00 X   1      77.080  74.808  35.0360  0.00  0.00     0.000 O
ATOM      7   O  A00 X   1      80.288  72.911  36.4350  0.00  0.00     0.000 O
ATOM      9  HD  A00 X   1      79.793  73.284  37.0400  0.00  0.00     0.000 HD
ATOM      9   O  A00 X   1      76.868  73.191  37.2710  0.00  0.00     0.000 O
ATOM     11  HD  A00 X   1      76.374  73.564  37.8760  0.00  0.00     0.000 HD
ENDROOT
BRANCH 2 11
ATOM     11   O  A00 X   1      78.740  71.886  33.7350  0.00  0.00     0.000 O
ATOM     12   O  A00 X   1      80.057  69.946  34.2520  0.00  0.00     0.000 OA
ATOM     13   O  A00 X   1      81.161  71.945  33.4140  0.00  0.00     0.000 OA
ATOM     14   O  A00 X   1      79.729  70.676  32.0000  0.00  0.00     0.000 OA
ATOM     15   S  A00 X   1      80.023  71.070  33.3520  0.00  0.00     0.000 S
ENDBRANCH 2 11
BRANCH 5 16
ATOM     16   C  A00 X   1      79.118  75.944  35.9100  0.00  0.00     0.000 C
ATOM     17   O  A00 X   1      79.020  76.918  35.1910  0.00  0.00     0.000 OA
ATOM     18   O  A00 X   1      80.207  75.659  36.3680  0.00  0.00     0.000 OA
ENDBRANCH 5 16
BRANCH 1 19
ATOM     19  O4  A00 X   2      78.200  74.977  32.9270  0.00  0.00     0.000 O
BRANCH 19 23
ATOM     20  C1  A00 X   2      74.491  74.738  30.7930  0.00  0.00     0.000 C
ATOM     21  C2  A00 X   2      75.650  73.830  30.3160  0.00  0.00     0.000 C
ATOM     22  C3  A00 X   2      76.734  73.702  31.4070  0.00  0.00     0.000 C
ATOM     23  C4  A00 X   2      77.214  75.099  31.8620  0.00  0.00     0.000 C
ATOM     24  C5  A00 X   2      75.964  75.913  32.2960  0.00  0.00     0.000 C
ATOM     25  O5  A00 X   2      75.062  76.021  31.1640  0.00  0.00     0.000 O
ATOM     26   O  A00 X   2      77.750  72.797  30.9440  0.00  0.00     0.000 O
ATOM     28  HD  A00 X   2      77.839  73.206  30.1860  0.00  0.00     0.000 HD
BRANCH 21 30
ATOM     28   N  A00 X   2      75.171  74.005  28.9410  0.00  0.00     0.000 N
ATOM     30  HD  A00 X   2      75.712  73.329  28.9340  0.00  0.00     0.000 HD
ATOM     30   O  A00 X   2      75.648  72.053  27.7500  0.00  0.00     0.000 OA
ATOM     31   S  A00 X   2      76.037  73.419  27.7560  0.00  0.00     0.000 S
ATOM     32   O  A00 X   2      75.609  74.173  26.6190  0.00  0.00     0.000 OA
ATOM     33   O  A00 X   2      77.409  73.702  28.0530  0.00  0.00     0.000 OA
ENDBRANCH 21 30
BRANCH 24 34
ATOM     34   C  A00 X   2      76.192  77.266  33.0100  0.00  0.00     0.000 C
ATOM     35   O  A00 X   2      75.072  80.475  31.7060  0.00  0.00     0.000 OA
ATOM     36   O  A00 X   2      75.967  78.373  32.1150  0.00  0.00     0.000 O
ATOM     37   O  A00 X   2      73.642  78.628  32.0760  0.00  0.00     0.000 OA
ATOM     38   S  A00 X   2      74.798  79.342  32.5260  0.00  0.00     0.000 S
ATOM     39   O  A00 X   2      74.933  79.564  33.9340  0.00  0.00     0.000 OA
ENDBRANCH 24 34
BRANCH 20 40
ATOM     40  O4  A00 X   3      73.952  74.098  31.9590  0.00  0.00     0.000 O
BRANCH 40 44
ATOM     41  C1  A00 X   3      72.683  74.405  35.3380  0.00  0.00     0.000 C
ATOM     42  C2  A00 X   3      72.831  73.073  34.5710  0.00  0.00     0.000 C
ATOM     43  C3  A00 X   3      72.171  73.162  33.1720  0.00  0.00     0.000 C
ATOM     44  C4  A00 X   3      72.589  74.374  32.3500  0.00  0.00     0.000 C
ATOM     45  C5  A00 X   3      72.408  75.673  33.1850  0.00  0.00     0.000 C
ATOM     46  O5  A00 X   3      73.037  75.541  34.5010  0.00  0.00     0.000 O
ATOM     47   O  A00 X   3      72.170  71.959  32.4060  0.00  0.00     0.000 O
ATOM     49  HD  A00 X   3      72.329  72.507  31.7540  0.00  0.00     0.000 HD
BRANCH 42 49
ATOM     49   O  A00 X   3      74.246  72.798  34.4710  0.00  0.00     0.000 O
ATOM     50   O  A00 X   3      75.615  71.108  33.4700  0.00  0.00     0.000 OA
ATOM     51   O  A00 X   3      73.632  70.459  34.5820  0.00  0.00     0.000 OA
ATOM     52   O  A00 X   3      75.416  71.320  35.8710  0.00  0.00     0.000 OA
ATOM     53   S  A00 X   3      74.774  71.339  34.6020  0.00  0.00     0.000 S
ENDBRANCH 42 49
BRANCH 45 54
ATOM     54   C  A00 X   3      70.936  76.098  33.2600  0.00  0.00     0.000 C
ATOM     55   O  A00 X   3      70.623  77.158  33.7630  0.00  0.00     0.000 OA
ATOM     56   O  A00 X   3      70.054  75.378  32.8180  0.00  0.00     0.000 OA
ENDBRANCH 45 54
BRANCH 41 57
ATOM     57  O4  A00 X   4      71.386  74.520  35.9650  0.00  0.00     0.000 O
BRANCH 57 61
ATOM     58  C1  A00 X   4      70.041  76.371  39.6260  0.00  0.00     0.000 C
ATOM     59  C2  A00 X   4      70.668  77.267  38.5290  0.00  0.00     0.000 C
ATOM     60  C3  A00 X   4      70.775  76.574  37.1550  0.00  0.00     0.000 C
ATOM     61  C4  A00 X   4      71.385  75.161  37.2720  0.00  0.00     0.000 C
ATOM     62  C5  A00 X   4      70.480  74.375  38.2530  0.00  0.00     0.000 C
ATOM     63  O5  A00 X   4      70.525  75.010  39.5570  0.00  0.00     0.000 O
BRANCH 59 66
ATOM     64   N  A00 X   4      72.050  77.621  38.9030  0.00  0.00     0.000 N
ATOM     66  HD  A00 X   4      72.480  77.067  39.4110  0.00  0.00     0.000 HD
ATOM     66   O  A00 X   4      71.123  79.365  40.2810  0.00  0.00     0.000 OA
ATOM     67   S  A00 X   4      72.314  79.059  39.5520  0.00  0.00     0.000 S
ATOM     68   O  A00 X   4      73.470  78.774  40.3500  0.00  0.00     0.000 OA
ATOM     69   O  A00 X   4      72.590  79.823  38.3690  0.00  0.00     0.000 OA
ENDBRANCH 59 66
BRANCH 62 70
ATOM     70   C  A00 X   4      70.869  72.886  38.4180  0.00  0.00     0.000 C
ATOM     71   O  A00 X   4      73.787  71.477  40.0320  0.00  0.00     0.000 OA
ATOM     72   O  A00 X   4      72.841  71.041  37.9210  0.00  0.00     0.000 OA
ATOM     73   O  A00 X   4      71.972  72.782  39.3330  0.00  0.00     0.000 O
ATOM     74   O  A00 X   4      74.112  73.091  38.2700  0.00  0.00     0.000 OA
ATOM     75   S  A00 X   4      73.278  72.076  38.8310  0.00  0.00     0.000 S
ENDBRANCH 62 70
ENDBRANCH 57 61
ENDBRANCH 41 57
ENDBRANCH 40 44
ENDBRANCH 20 40
ENDBRANCH 19 23
ENDBRANCH 1 19
TORSDOF 14
ENDMDL
MODEL 48
REMARK VINA RESULT:      -1.5     82.643     86.347
ROOT
ATOM      1  C1  A00 X   1      19.026  44.171  91.4850  0.00  0.00     0.000 C
ATOM      2  C2  A00 X   1      18.023  43.321  90.6600  0.00  0.00     0.000 C
ATOM      3  C3  A00 X   1      17.602  41.952  91.2890  0.00  0.00     0.000 C
ATOM      4  C4  A00 X   1      18.496  41.447  92.4510  0.00  0.00     0.000 C
ATOM      5  C5  A00 X   1      19.893  42.066  92.4150  0.00  0.00     0.000 C
ATOM      6  O5  A00 X   1      19.672  43.484  92.5860  0.00  0.00     0.000 O
ATOM      7   O  A00 X   1      17.649  40.950  90.2770  0.00  0.00     0.000 O
ATOM      9  HD  A00 X   1      17.979  40.601  90.9970  0.00  0.00     0.000 HD
ATOM      9   O  A00 X   1      17.891  41.695  93.7200  0.00  0.00     0.000 O
ATOM     11  HD  A00 X   1      18.221  41.346  94.4410  0.00  0.00     0.000 HD
ENDROOT
BRANCH 2 11
ATOM     11   O  A00 X   1      16.844  44.121  90.4440  0.00  0.00     0.000 O
ATOM     12   O  A00 X   1      15.014  43.349  89.0950  0.00  0.00     0.000 OA
ATOM     13   O  A00 X   1      17.183  43.719  88.0590  0.00  0.00     0.000 OA
ATOM     14   O  A00 X   1      15.902  45.555  88.8610  0.00  0.00     0.000 OA
ATOM     15   S  A00 X   1      16.204  44.158  89.0140  0.00  0.00     0.000 S
ENDBRANCH 2 11
BRANCH 5 16
ATOM     16   C  A00 X   1      20.723  41.720  91.1740  0.00  0.00     0.000 C
ATOM     17   O  A00 X   1      21.757  42.324  90.9800  0.00  0.00     0.000 OA
ATOM     18   O  A00 X   1      20.387  40.860  90.3840  0.00  0.00     0.000 OA
ENDBRANCH 5 16
BRANCH 1 19
ATOM     19  O4  A00 X   2      19.992  44.862  90.6550  0.00  0.00     0.000 O
BRANCH 19 23
ATOM     20  C1  A00 X   2      20.071  48.362  93.1260  0.00  0.00     0.000 C
ATOM     21  C2  A00 X   2      19.171  48.396  91.8670  0.00  0.00     0.000 C
ATOM     22  C3  A00 X   2      18.909  46.970  91.3390  0.00  0.00     0.000 C
ATOM     23  C4  A00 X   2      20.242  46.224  91.1040  0.00  0.00     0.000 C
ATOM     24  C5  A00 X   2      21.055  46.277  92.4270  0.00  0.00     0.000 C
ATOM     25  O5  A00 X   2      21.295  47.665  92.7730  0.00  0.00     0.000 O
ATOM     26   O  A00 X   2      18.016  47.050  90.2150  0.00  0.00     0.000 O
ATOM     28  HD  A00 X   2      18.488  47.659  89.8200  0.00  0.00     0.000 HD
BRANCH 21 30
ATOM     28   N  A00 X   2      19.486  49.821  91.7260  0.00  0.00     0.000 N
ATOM     30  HD  A00 X   2      18.795  49.667  91.2270  0.00  0.00     0.000 HD
ATOM     30   O  A00 X   2      17.634  50.885  90.7790  0.00  0.00     0.000 OA
ATOM     31   S  A00 X   2      18.979  50.586  90.4390  0.00  0.00     0.000 S
ATOM     32   O  A00 X   2      19.847  51.720  90.3550  0.00  0.00     0.000 OA
ATOM     33   O  A00 X   2      19.188  49.717  89.3200  0.00  0.00     0.000 OA
ENDBRANCH 21 30
BRANCH 24 34
ATOM     34   C  A00 X   2      22.330  45.406  92.5300  0.00  0.00     0.000 C
ATOM     35   O  A00 X   2      25.173  45.677  90.2720  0.00  0.00     0.000 OA
ATOM     36   O  A00 X   2      23.112  45.481  91.3210  0.00  0.00     0.000 O
ATOM     37   O  A00 X   2      24.299  47.487  91.5180  0.00  0.00     0.000 OA
ATOM     38   S  A00 X   2      24.556  46.079  91.4930  0.00  0.00     0.000 S
ATOM     39   O  A00 X   2      25.104  45.483  92.6750  0.00  0.00     0.000 OA
ENDBRANCH 24 34
BRANCH 20 40
ATOM     40  O4  A00 X   3      19.346  47.596  94.0990  0.00  0.00     0.000 O
BRANCH 40 44
ATOM     41  C1  A00 X   3      19.442  45.024  96.6490  0.00  0.00     0.000 C
ATOM     42  C2  A00 X   3      18.167  45.769  96.1980  0.00  0.00     0.000 C
ATOM     43  C3  A00 X   3      18.383  47.304  96.2220  0.00  0.00     0.000 C
ATOM     44  C4  A00 X   3      19.639  47.779  95.5010  0.00  0.00     0.000 C
ATOM     45  C5  A00 X   3      20.876  46.988  96.0120  0.00  0.00     0.000 C
ATOM     46  O5  A00 X   3      20.624  45.546  95.9810  0.00  0.00     0.000 O
ATOM     47   O  A00 X   3      17.242  48.099  95.9060  0.00  0.00     0.000 O
ATOM     49  HD  A00 X   3      17.831  48.580  95.4920  0.00  0.00     0.000 HD
BRANCH 42 49
ATOM     49   O  A00 X   3      17.852  45.302  94.8680  0.00  0.00     0.000 O
ATOM     50   O  A00 X   3      16.227  45.821  93.1880  0.00  0.00     0.000 OA
ATOM     51   O  A00 X   3      15.538  45.713  95.4480  0.00  0.00     0.000 OA
ATOM     52   O  A00 X   3      16.194  43.713  94.3730  0.00  0.00     0.000 OA
ATOM     53   S  A00 X   3      16.369  45.123  94.4280  0.00  0.00     0.000 S
ENDBRANCH 42 49
BRANCH 45 54
ATOM     54   C  A00 X   3      21.344  47.490  97.3830  0.00  0.00     0.000 C
ATOM     55   O  A00 X   3      22.367  47.067  97.8810  0.00  0.00     0.000 OA
ATOM     56   O  A00 X   3      20.695  48.321  97.9990  0.00  0.00     0.000 OA
ENDBRANCH 45 54
BRANCH 41 57
ATOM     57  O4  A00 X   4      19.552  44.980  98.0890  0.00  0.00     0.000 O
BRANCH 57 61
ATOM     58  C1  A00 X   4      21.178  42.062 100.8250  0.00  0.00     0.000 C
ATOM     59  C2  A00 X   4      22.130  42.730  99.8010  0.00  0.00     0.000 C
ATOM     60  C3  A00 X   4      21.534  43.988  99.1370  0.00  0.00     0.000 C
ATOM     61  C4  A00 X   4      20.097  43.743  98.6300  0.00  0.00     0.000 C
ATOM     62  C5  A00 X   4      19.273  43.285  99.8590  0.00  0.00     0.000 C
ATOM     63  O5  A00 X   4      19.811  42.033 100.3550  0.00  0.00     0.000 O
BRANCH 59 66
ATOM     64   N  A00 X   4      22.407  41.791  98.6990  0.00  0.00     0.000 N
ATOM     66  HD  A00 X   4      21.804  41.196  98.5190  0.00  0.00     0.000 HD
ATOM     66   O  A00 X   4      24.081  40.786 100.1100  0.00  0.00     0.000 OA
ATOM     67   S  A00 X   4      23.785  40.979  98.7250  0.00  0.00     0.000 S
ATOM     68   O  A00 X   4      23.404  39.799  98.0050  0.00  0.00     0.000 OA
ATOM     69   O  A00 X   4      24.622  41.877  97.9800  0.00  0.00     0.000 OA
ENDBRANCH 59 66
BRANCH 62 70
ATOM     70   C  A00 X   4      17.764  43.093  99.5720  0.00  0.00     0.000 C
ATOM     71   O  A00 X   4      16.153  40.566  97.5410  0.00  0.00     0.000 OA
ATOM     72   O  A00 X   4      15.893  42.907  97.5700  0.00  0.00     0.000 OA
ATOM     73   O  A00 X   4      17.562  41.827  98.9250  0.00  0.00     0.000 O
ATOM     74   O  A00 X   4      17.871  41.928  96.5370  0.00  0.00     0.000 OA
ATOM     75   S  A00 X   4      16.849  41.822  97.5280  0.00  0.00     0.000 S
ENDBRANCH 62 70
ENDBRANCH 57 61
ENDBRANCH 41 57
ENDBRANCH 40 44
ENDBRANCH 20 40
ENDBRANCH 19 23
ENDBRANCH 1 19
TORSDOF 14
ENDMDL
MODEL 49
REMARK VINA RESULT:      -1.5     63.961     69.387
ROOT
ATOM      1  C1  A00 X   1      85.908  11.200  38.5130  0.00  0.00     0.000 C
ATOM      2  C2  A00 X   1      84.520  11.227  39.2080  0.00  0.00     0.000 C
ATOM      3  C3  A00 X   1      84.529  11.092  40.7670  0.00  0.00     0.000 C
ATOM      4  C4  A00 X   1      85.857  10.585  41.3860  0.00  0.00     0.000 C
ATOM      5  C5  A00 X   1      86.705   9.809  40.3780  0.00  0.00     0.000 C
ATOM      6  O5  A00 X   1      87.015  10.769  39.3430  0.00  0.00     0.000 O
ATOM      7   O  A00 X   1      83.522  10.159  41.1510  0.00  0.00     0.000 O
ATOM      9  HD  A00 X   1      84.217  10.000  41.6410  0.00  0.00     0.000 HD
ATOM      9   O  A00 X   1      86.621  11.660  41.9330  0.00  0.00     0.000 O
ATOM     11  HD  A00 X   1      87.317  11.500  42.4230  0.00  0.00     0.000 HD
ENDROOT
BRANCH 2 11
ATOM     11   O  A00 X   1      83.874  12.464  38.8480  0.00  0.00     0.000 O
ATOM     12   O  A00 X   1      81.638  12.981  39.5560  0.00  0.00     0.000 OA
ATOM     13   O  A00 X   1      82.009  11.093  38.0670  0.00  0.00     0.000 OA
ATOM     14   O  A00 X   1      82.350  13.319  37.3000  0.00  0.00     0.000 OA
ATOM     15   S  A00 X   1      82.362  12.437  38.4350  0.00  0.00     0.000 S
ENDBRANCH 2 11
BRANCH 5 16
ATOM     16   C  A00 X   1      86.065   8.522  39.8480  0.00  0.00     0.000 C
ATOM     17   O  A00 X   1      86.583   7.961  38.9050  0.00  0.00     0.000 OA
ATOM     18   O  A00 X   1      85.065   8.040  40.3420  0.00  0.00     0.000 OA
ENDBRANCH 5 16
BRANCH 1 19
ATOM     19  O4  A00 X   2      85.888  10.494  37.2490  0.00  0.00     0.000 O
BRANCH 19 23
ATOM     20  C1  A00 X   2      88.645  13.176  35.3600  0.00  0.00     0.000 C
ATOM     21  C2  A00 X   2      87.137  13.396  35.0910  0.00  0.00     0.000 C
ATOM     22  C3  A00 X   2      86.279  12.665  36.1450  0.00  0.00     0.000 C
ATOM     23  C4  A00 X   2      86.664  11.170  36.2190  0.00  0.00     0.000 C
ATOM     24  C5  A00 X   2      88.194  11.086  36.4720  0.00  0.00     0.000 C
ATOM     25  O5  A00 X   2      88.886  11.744  35.3780  0.00  0.00     0.000 O
ATOM     26   O  A00 X   2      84.893  12.955  35.8940  0.00  0.00     0.000 O
ATOM     28  HD  A00 X   2      84.951  12.749  35.0550  0.00  0.00     0.000 HD
BRANCH 21 30
ATOM     28   N  A00 X   2      87.481  13.826  33.7330  0.00  0.00     0.000 N
ATOM     30  HD  A00 X   2      86.667  14.083  33.8780  0.00  0.00     0.000 HD
ATOM     30   O  A00 X   2      85.914  15.422  33.0570  0.00  0.00     0.000 OA
ATOM     31   S  A00 X   2      86.311  14.105  32.7060  0.00  0.00     0.000 S
ATOM     32   O  A00 X   2      86.945  13.985  31.4300  0.00  0.00     0.000 OA
ATOM     33   O  A00 X   2      85.340  13.066  32.8790  0.00  0.00     0.000 OA
ENDBRANCH 21 30
BRANCH 24 34
ATOM     34   C  A00 X   2      88.798   9.704  36.8150  0.00  0.00     0.000 C
ATOM     35   O  A00 X   2      91.274   7.993  34.7650  0.00  0.00     0.000 OA
ATOM     36   O  A00 X   2      89.463   9.127  35.6740  0.00  0.00     0.000 O
ATOM     37   O  A00 X   2      91.551  10.180  35.6230  0.00  0.00     0.000 OA
ATOM     38   S  A00 X   2      91.006   8.877  35.8520  0.00  0.00     0.000 S
ATOM     39   O  A00 X   2      91.176   8.306  37.1540  0.00  0.00     0.000 OA
ENDBRANCH 24 34
BRANCH 20 40
ATOM     40  O4  A00 X   3      88.890  13.720  36.6650  0.00  0.00     0.000 O
BRANCH 40 44
ATOM     41  C1  A00 X   3      90.498  13.374  39.8930  0.00  0.00     0.000 C
ATOM     42  C2  A00 X   3      89.582  14.550  39.4870  0.00  0.00     0.000 C
ATOM     43  C3  A00 X   3      90.028  15.159  38.1330  0.00  0.00     0.000 C
ATOM     44  C4  A00 X   3      90.225  14.142  37.0160  0.00  0.00     0.000 C
ATOM     45  C5  A00 X   3      91.159  12.996  37.4980  0.00  0.00     0.000 C
ATOM     46  O5  A00 X   3      90.707  12.459  38.7830  0.00  0.00     0.000 O
ATOM     47   O  A00 X   3      89.306  16.309  37.6990  0.00  0.00     0.000 O
ATOM     49  HD  A00 X   3      89.389  15.931  36.9250  0.00  0.00     0.000 HD
BRANCH 42 49
ATOM     49   O  A00 X   3      88.236  14.032  39.4160  0.00  0.00     0.000 O
ATOM     50   O  A00 X   3      86.077  14.892  38.8380  0.00  0.00     0.000 OA
ATOM     51   O  A00 X   3      87.526  16.228  40.1430  0.00  0.00     0.000 OA
ATOM     52   O  A00 X   3      86.626  14.268  41.1090  0.00  0.00     0.000 OA
ATOM     53   S  A00 X   3      87.034  14.895  39.9000  0.00  0.00     0.000 S
ENDBRANCH 42 49
BRANCH 45 54
ATOM     54   C  A00 X   3      92.630  13.430  37.5090  0.00  0.00     0.000 C
ATOM     55   O  A00 X   3      93.515  12.612  37.6590  0.00  0.00     0.000 OA
ATOM     56   O  A00 X   3      92.937  14.604  37.3690  0.00  0.00     0.000 OA
ENDBRANCH 45 54
BRANCH 41 57
ATOM     57  O4  A00 X   4      91.719  13.838  40.5110  0.00  0.00     0.000 O
BRANCH 57 61
ATOM     58  C1  A00 X   4      94.260  12.200  43.5930  0.00  0.00     0.000 C
ATOM     59  C2  A00 X   4      94.075  11.398  42.2810  0.00  0.00     0.000 C
ATOM     60  C3  A00 X   4      93.458  12.226  41.1360  0.00  0.00     0.000 C
ATOM     61  C4  A00 X   4      92.213  13.011  41.6020  0.00  0.00     0.000 C
ATOM     62  C5  A00 X   4      92.676  13.901  42.7830  0.00  0.00     0.000 C
ATOM     63  O5  A00 X   4      93.127  13.054  43.8710  0.00  0.00     0.000 O
BRANCH 59 66
ATOM     64   N  A00 X   4      93.147  10.274  42.4970  0.00  0.00     0.000 N
ATOM     66  HD  A00 X   4      92.547  10.364  43.1150  0.00  0.00     0.000 HD
ATOM     66   O  A00 X   4      95.007   9.042  43.4040  0.00  0.00     0.000 OA
ATOM     67   S  A00 X   4      93.763   8.817  42.7360  0.00  0.00     0.000 S
ATOM     68   O  A00 X   4      92.730   8.227  43.5360  0.00  0.00     0.000 OA
ATOM     69   O  A00 X   4      93.807   8.336  41.3840  0.00  0.00     0.000 OA
ENDBRANCH 59 66
BRANCH 62 70
ATOM     70   C  A00 X   4      91.583  14.854  43.3220  0.00  0.00     0.000 C
ATOM     71   O  A00 X   4      88.559  14.031  45.1350  0.00  0.00     0.000 OA
ATOM     72   O  A00 X   4      88.894  15.409  43.2550  0.00  0.00     0.000 OA
ATOM     73   O  A00 X   4      90.699  14.122  44.1870  0.00  0.00     0.000 O
ATOM     74   O  A00 X   4      88.940  12.987  42.9950  0.00  0.00     0.000 OA
ATOM     75   S  A00 X   4      89.170  14.115  43.8380  0.00  0.00     0.000 S
ENDBRANCH 62 70
ENDBRANCH 57 61
ENDBRANCH 41 57
ENDBRANCH 40 44
ENDBRANCH 20 40
ENDBRANCH 19 23
ENDBRANCH 1 19
TORSDOF 14
ENDMDL
MODEL 50
REMARK VINA RESULT:      -1.5     95.216    100.047
ROOT
ATOM      1  C1  A00 X   1      91.119  64.374  76.1830  0.00  0.00     0.000 C
ATOM      2  C2  A00 X   1      91.950  63.173  75.6590  0.00  0.00     0.000 C
ATOM      3  C3  A00 X   1      93.495  63.397  75.5610  0.00  0.00     0.000 C
ATOM      4  C4  A00 X   1      93.963  64.873  75.6410  0.00  0.00     0.000 C
ATOM      5  C5  A00 X   1      92.853  65.852  75.2580  0.00  0.00     0.000 C
ATOM      6  O5  A00 X   1      91.820  65.641  76.2470  0.00  0.00     0.000 O
ATOM      7   O  A00 X   1      93.951  62.895  74.3070  0.00  0.00     0.000 O
ATOM      9  HD  A00 X   1      94.364  63.643  74.4480  0.00  0.00     0.000 HD
ATOM      9   O  A00 X   1      94.461  65.192  76.9400  0.00  0.00     0.000 O
ATOM     11  HD  A00 X   1      94.874  65.940  77.0810  0.00  0.00     0.000 HD
ENDROOT
BRANCH 2 11
ATOM     11   O  A00 X   1      91.692  62.050  76.5250  0.00  0.00     0.000 O
ATOM     12   O  A00 X   1      92.663  59.890  76.1260  0.00  0.00     0.000 OA
ATOM     13   O  A00 X   1      91.103  60.812  74.5030  0.00  0.00     0.000 OA
ATOM     14   O  A00 X   1      90.347  60.147  76.6580  0.00  0.00     0.000 OA
ATOM     15   S  A00 X   1      91.455  60.639  75.8860  0.00  0.00     0.000 S
ENDBRANCH 2 11
BRANCH 5 16
ATOM     16   C  A00 X   1      92.354  65.733  73.8150  0.00  0.00     0.000 C
ATOM     17   O  A00 X   1      91.347  66.332  73.4970  0.00  0.00     0.000 OA
ATOM     18   O  A00 X   1      92.932  65.068  72.9780  0.00  0.00     0.000 OA
ENDBRANCH 5 16
BRANCH 1 19
ATOM     19  O4  A00 X   2      89.843  64.510  75.5100  0.00  0.00     0.000 O
BRANCH 19 23
ATOM     20  C1  A00 X   2      87.758  65.715  79.0550  0.00  0.00     0.000 C
ATOM     21  C2  A00 X   2      87.651  64.230  78.6330  0.00  0.00     0.000 C
ATOM     22  C3  A00 X   2      88.766  63.861  77.6330  0.00  0.00     0.000 C
ATOM     23  C4  A00 X   2      88.758  64.829  76.4280  0.00  0.00     0.000 C
ATOM     24  C5  A00 X   2      88.851  66.277  76.9830  0.00  0.00     0.000 C
ATOM     25  O5  A00 X   2      87.711  66.521  77.8470  0.00  0.00     0.000 O
ATOM     26   O  A00 X   2      88.666  62.460  77.3260  0.00  0.00     0.000 O
ATOM     28  HD  A00 X   2      87.819  62.508  77.1480  0.00  0.00     0.000 HD
BRANCH 21 30
ATOM     28   N  A00 X   2      86.277  64.223  79.1440  0.00  0.00     0.000 N
ATOM     30  HD  A00 X   2      86.512  63.395  79.0480  0.00  0.00     0.000 HD
ATOM     30   O  A00 X   2      85.810  62.080  79.9470  0.00  0.00     0.000 OA
ATOM     31   S  A00 X   2      85.384  62.942  78.9020  0.00  0.00     0.000 S
ATOM     32   O  A00 X   2      84.046  63.431  79.0310  0.00  0.00     0.000 OA
ATOM     33   O  A00 X   2      85.626  62.504  77.5600  0.00  0.00     0.000 OA
ENDBRANCH 21 30
BRANCH 24 34
ATOM     34   C  A00 X   2      89.092  67.426  75.9750  0.00  0.00     0.000 C
ATOM     35   O  A00 X   2      86.730  70.126  75.3560  0.00  0.00     0.000 OA
ATOM     36   O  A00 X   2      87.869  68.130  75.6830  0.00  0.00     0.000 O
ATOM     37   O  A00 X   2      87.593  69.589  77.4910  0.00  0.00     0.000 OA
ATOM     38   S  A00 X   2      87.858  69.651  76.0860  0.00  0.00     0.000 S
ATOM     39   O  A00 X   2      89.120  70.188  75.6720  0.00  0.00     0.000 OA
ENDBRANCH 24 34
BRANCH 20 40
ATOM     40  O4  A00 X   3      89.047  65.851  79.6730  0.00  0.00     0.000 O
BRANCH 40 44
ATOM     41  C1  A00 X   3      92.084  67.787  80.0550  0.00  0.00     0.000 C
ATOM     42  C2  A00 X   3      91.807  66.438  80.7520  0.00  0.00     0.000 C
ATOM     43  C3  A00 X   3      90.434  66.456  81.4700  0.00  0.00     0.000 C
ATOM     44  C4  A00 X   3      89.273  66.930  80.6050  0.00  0.00     0.000 C
ATOM     45  C5  A00 X   3      89.624  68.292  79.9430  0.00  0.00     0.000 C
ATOM     46  O5  A00 X   3      90.932  68.233  79.2870  0.00  0.00     0.000 O
ATOM     47   O  A00 X   3      90.109  65.289  82.2230  0.00  0.00     0.000 O
ATOM     49  HD  A00 X   3      89.319  65.437  81.9000  0.00  0.00     0.000 HD
BRANCH 42 49
ATOM     49   O  A00 X   3      91.857  65.416  79.7310  0.00  0.00     0.000 O
ATOM     50   O  A00 X   3      91.532  63.047  79.6350  0.00  0.00     0.000 OA
ATOM     51   O  A00 X   3      92.725  63.962  81.4600  0.00  0.00     0.000 OA
ATOM     52   O  A00 X   3      93.713  64.040  79.3140  0.00  0.00     0.000 OA
ATOM     53   S  A00 X   3      92.489  64.028  80.0390  0.00  0.00     0.000 S
ENDBRANCH 42 49
BRANCH 45 54
ATOM     54   C  A00 X   3      89.500  69.454  80.9360  0.00  0.00     0.000 C
ATOM     55   O  A00 X   3      89.284  69.243  82.1120  0.00  0.00     0.000 OA
ATOM     56   O  A00 X   3      89.614  70.611  80.5620  0.00  0.00     0.000 OA
ENDBRANCH 45 54
BRANCH 41 57
ATOM     57  O4  A00 X   4      92.589  68.774  80.9820  0.00  0.00     0.000 O
BRANCH 57 61
ATOM     58  C1  A00 X   4      95.400  72.025  80.5760  0.00  0.00     0.000 C
ATOM     59  C2  A00 X   4      94.099  72.061  79.7360  0.00  0.00     0.000 C
ATOM     60  C3  A00 X   4      93.028  71.062  80.2190  0.00  0.00     0.000 C
ATOM     61  C4  A00 X   4      93.619  69.654  80.4490  0.00  0.00     0.000 C
ATOM     62  C5  A00 X   4      94.764  69.825  81.4780  0.00  0.00     0.000 C
ATOM     63  O5  A00 X   4      95.793  70.674  80.9100  0.00  0.00     0.000 O
BRANCH 59 66
ATOM     64   N  A00 X   4      94.341  71.698  78.3280  0.00  0.00     0.000 N
ATOM     66  HD  A00 X   4      94.997  71.157  78.1610  0.00  0.00     0.000 HD
ATOM     66   O  A00 X   4      95.098  73.957  77.9800  0.00  0.00     0.000 OA
ATOM     67   S  A00 X   4      94.502  72.876  77.2590  0.00  0.00     0.000 S
ATOM     68   O  A00 X   4      95.348  72.237  76.2940  0.00  0.00     0.000 OA
ATOM     69   O  A00 X   4      93.137  73.024  76.8380  0.00  0.00     0.000 OA
ENDBRANCH 59 66
BRANCH 62 70
ATOM     70   C  A00 X   4      95.415  68.495  81.9250  0.00  0.00     0.000 C
ATOM     71   O  A00 X   4      97.535  66.262  80.0200  0.00  0.00     0.000 OA
ATOM     72   O  A00 X   4      95.631  65.821  81.3340  0.00  0.00     0.000 OA
ATOM     73   O  A00 X   4      96.368  68.076  80.9350  0.00  0.00     0.000 O
ATOM     74   O  A00 X   4      95.367  66.831  79.1310  0.00  0.00     0.000 OA
ATOM     75   S  A00 X   4      96.181  66.658  80.2910  0.00  0.00     0.000 S
ENDBRANCH 62 70
ENDBRANCH 57 61
ENDBRANCH 41 57
ENDBRANCH 40 44
ENDBRANCH 20 40
ENDBRANCH 19 23
ENDBRANCH 1 19
TORSDOF 14
ENDMDL
MODEL 51
REMARK VINA RESULT:      -1.5     64.134     69.562
ROOT
ATOM      1  C1  A00 X   1      84.411   9.661  40.7360  0.00  0.00     0.000 C
ATOM      2  C2  A00 X   1      83.005   9.865  41.3620  0.00  0.00     0.000 C
ATOM      3  C3  A00 X   1      82.950   9.921  42.9240  0.00  0.00     0.000 C
ATOM      4  C4  A00 X   1      84.216   9.407  43.6570  0.00  0.00     0.000 C
ATOM      5  C5  A00 X   1      85.041   8.459  42.7870  0.00  0.00     0.000 C
ATOM      6  O5  A00 X   1      85.455   9.263  41.6590  0.00  0.00     0.000 O
ATOM      7   O  A00 X   1      81.866   9.111  43.3730  0.00  0.00     0.000 O
ATOM      9  HD  A00 X   1      82.531   8.967  43.9080  0.00  0.00     0.000 HD
ATOM      9   O  A00 X   1      85.035  10.488  44.1040  0.00  0.00     0.000 O
ATOM     11  HD  A00 X   1      85.700  10.344  44.6390  0.00  0.00     0.000 HD
ENDROOT
BRANCH 2 11
ATOM     11   O  A00 X   1      82.461  11.088  40.8290  0.00  0.00     0.000 O
ATOM     12   O  A00 X   1      80.244  11.835  41.3710  0.00  0.00     0.000 OA
ATOM     13   O  A00 X   1      80.532   9.759  40.1370  0.00  0.00     0.000 OA
ATOM     14   O  A00 X   1      81.057  11.846  39.1240  0.00  0.00     0.000 OA
ATOM     15   S  A00 X   1      80.967  11.111  40.3560  0.00  0.00     0.000 S
ENDBRANCH 2 11
BRANCH 5 16
ATOM     16   C  A00 X   1      84.330   7.162  42.3880  0.00  0.00     0.000 C
ATOM     17   O  A00 X   1      84.840   6.457  41.5420  0.00  0.00     0.000 OA
ATOM     18   O  A00 X   1      83.282   6.812  42.8920  0.00  0.00     0.000 OA
ENDBRANCH 5 16
BRANCH 1 19
ATOM     19  O4  A00 X   2      84.386   8.807  39.5660  0.00  0.00     0.000 O
BRANCH 19 23
ATOM     20  C1  A00 X   2      87.392  11.049  37.4910  0.00  0.00     0.000 C
ATOM     21  C2  A00 X   2      85.913  11.334  37.1330  0.00  0.00     0.000 C
ATOM     22  C3  A00 X   2      84.969  10.797  38.2290  0.00  0.00     0.000 C
ATOM     23  C4  A00 X   2      85.243   9.300  38.4970  0.00  0.00     0.000 C
ATOM     24  C5  A00 X   2      86.754   9.145  38.8240  0.00  0.00     0.000 C
ATOM     25  O5  A00 X   2      87.528   9.617  37.6900  0.00  0.00     0.000 O
ATOM     26   O  A00 X   2      83.617  11.146  37.8850  0.00  0.00     0.000 O
ATOM     28  HD  A00 X   2      83.689  10.836  37.0790  0.00  0.00     0.000 HD
BRANCH 21 30
ATOM     28   N  A00 X   2      86.334  11.572  35.7490  0.00  0.00     0.000 N
ATOM     30  HD  A00 X   2      85.536  11.898  35.8270  0.00  0.00     0.000 HD
ATOM     30   O  A00 X   2      84.909  13.174  34.8200  0.00  0.00     0.000 OA
ATOM     31   S  A00 X   2      85.224  11.800  34.6470  0.00  0.00     0.000 S
ATOM     32   O  A00 X   2      85.891  11.483  33.4220  0.00  0.00     0.000 OA
ATOM     33   O  A00 X   2      84.175  10.857  34.9000  0.00  0.00     0.000 OA
ENDBRANCH 21 30
BRANCH 24 34
ATOM     34   C  A00 X   2      87.245   7.778  39.3550  0.00  0.00     0.000 C
ATOM     35   O  A00 X   2      89.662   5.668  37.6340  0.00  0.00     0.000 OA
ATOM     36   O  A00 X   2      87.906   7.023  38.3210  0.00  0.00     0.000 O
ATOM     37   O  A00 X   2      90.065   7.920  38.2350  0.00  0.00     0.000 OA
ATOM     38   S  A00 X   2      89.420   6.694  38.5940  0.00  0.00     0.000 S
ATOM     39   O  A00 X   2      89.503   6.277  39.9620  0.00  0.00     0.000 OA
ENDBRANCH 24 34
BRANCH 20 40
ATOM     40  O4  A00 X   3      87.629  11.730  38.7310  0.00  0.00     0.000 O
BRANCH 40 44
ATOM     41  C1  A00 X   3      89.094  11.675  42.0440  0.00  0.00     0.000 C
ATOM     42  C2  A00 X   3      88.280  12.851  41.4610  0.00  0.00     0.000 C
ATOM     43  C3  A00 X   3      88.815  13.258  40.0640  0.00  0.00     0.000 C
ATOM     44  C4  A00 X   3      88.978  12.102  39.0860  0.00  0.00     0.000 C
ATOM     45  C5  A00 X   3      89.810  10.964  39.7410  0.00  0.00     0.000 C
ATOM     46  O5  A00 X   3      89.277  10.619  41.0610  0.00  0.00     0.000 O
ATOM     47   O  A00 X   3      88.193  14.393  39.4660  0.00  0.00     0.000 O
ATOM     49  HD  A00 X   3      88.275  13.918  38.7460  0.00  0.00     0.000 HD
BRANCH 42 49
ATOM     49   O  A00 X   3      86.903  12.419  41.3940  0.00  0.00     0.000 O
ATOM     50   O  A00 X   3      84.833  13.344  40.6250  0.00  0.00     0.000 OA
ATOM     51   O  A00 X   3      86.328  14.731  41.8220  0.00  0.00     0.000 OA
ATOM     52   O  A00 X   3      85.257  12.967  42.9760  0.00  0.00     0.000 OA
ATOM     53   S  A00 X   3      85.751  13.414  41.7190  0.00  0.00     0.000 S
ENDBRANCH 42 49
BRANCH 45 54
ATOM     54   C  A00 X   3      91.307  11.296  39.7640  0.00  0.00     0.000 C
ATOM     55   O  A00 X   3      92.126  10.446  40.0490  0.00  0.00     0.000 OA
ATOM     56   O  A00 X   3      91.702  12.421  39.4980  0.00  0.00     0.000 OA
ENDBRANCH 45 54
BRANCH 41 57
ATOM     57  O4  A00 X   4      90.324  12.128  42.6540  0.00  0.00     0.000 O
BRANCH 57 61
ATOM     58  C1  A00 X   4      92.632  10.713  46.0160  0.00  0.00     0.000 C
ATOM     59  C2  A00 X   4      92.436   9.771  44.8030  0.00  0.00     0.000 C
ATOM     60  C3  A00 X   4      91.920  10.492  43.5410  0.00  0.00     0.000 C
ATOM     61  C4  A00 X   4      90.719  11.409  43.8570  0.00  0.00     0.000 C
ATOM     62  C5  A00 X   4      91.203  12.404  44.9410  0.00  0.00     0.000 C
ATOM     63  O5  A00 X   4      91.554  11.668  46.1410  0.00  0.00     0.000 O
BRANCH 59 66
ATOM     64   N  A00 X   4      91.422   8.746  45.1110  0.00  0.00     0.000 N
ATOM     66  HD  A00 X   4      90.809   8.950  45.6870  0.00  0.00     0.000 HD
ATOM     66   O  A00 X   4      93.157   7.513  46.2380  0.00  0.00     0.000 OA
ATOM     67   S  A00 X   4      91.924   7.291  45.5480  0.00  0.00     0.000 S
ATOM     68   O  A00 X   4      90.825   6.874  46.3680  0.00  0.00     0.000 OA
ATOM     69   O  A00 X   4      91.981   6.647  44.2670  0.00  0.00     0.000 OA
ENDBRANCH 59 66
BRANCH 62 70
ATOM     70   C  A00 X   4      90.162  13.487  45.3150  0.00  0.00     0.000 C
ATOM     71   O  A00 X   4      87.026  13.095  47.0810  0.00  0.00     0.000 OA
ATOM     72   O  A00 X   4      87.524  14.208  45.0660  0.00  0.00     0.000 OA
ATOM     73   O  A00 X   4      89.199  12.927  46.2220  0.00  0.00     0.000 O
ATOM     74   O  A00 X   4      87.406  11.774  45.0990  0.00  0.00     0.000 OA
ATOM     75   S  A00 X   4      87.687  12.979  45.8110  0.00  0.00     0.000 S
ENDBRANCH 62 70
ENDBRANCH 57 61
ENDBRANCH 41 57
ENDBRANCH 40 44
ENDBRANCH 20 40
ENDBRANCH 19 23
ENDBRANCH 1 19
TORSDOF 14
ENDMDL
MODEL 52
REMARK VINA RESULT:      -1.5     85.205     89.828
ROOT
ATOM      1  C1  A00 X   1      89.230  93.902  23.6690  0.00  0.00     0.000 C
ATOM      2  C2  A00 X   1      87.941  93.407  24.3780  0.00  0.00     0.000 C
ATOM      3  C3  A00 X   1      86.696  93.175  23.4590  0.00  0.00     0.000 C
ATOM      4  C4  A00 X   1      86.783  93.804  22.0450  0.00  0.00     0.000 C
ATOM      5  C5  A00 X   1      87.780  94.961  21.9880  0.00  0.00     0.000 C
ATOM      6  O5  A00 X   1      89.056  94.362  22.3050  0.00  0.00     0.000 O
ATOM      7   O  A00 X   1      85.551  93.746  24.0870  0.00  0.00     0.000 O
ATOM      9  HD  A00 X   1      85.502  93.937  23.2440  0.00  0.00     0.000 HD
ATOM      9   O  A00 X   1      87.120  92.828  21.0590  0.00  0.00     0.000 O
ATOM     11  HD  A00 X   1      87.070  93.019  20.2160  0.00  0.00     0.000 HD
ENDROOT
BRANCH 2 11
ATOM     11   O  A00 X   1      88.259  92.177  25.0580  0.00  0.00     0.000 O
ATOM     12   O  A00 X   1      86.570  90.838  26.1160  0.00  0.00     0.000 OA
ATOM     13   O  A00 X   1      87.015  93.076  26.9590  0.00  0.00     0.000 OA
ATOM     14   O  A00 X   1      88.633  91.349  27.2090  0.00  0.00     0.000 OA
ATOM     15   S  A00 X   1      87.545  91.855  26.4160  0.00  0.00     0.000 S
ENDBRANCH 2 11
BRANCH 5 16
ATOM     16   C  A00 X   1      87.430  96.162  22.8720  0.00  0.00     0.000 C
ATOM     17   O  A00 X   1      88.272  97.018  23.0500  0.00  0.00     0.000 OA
ATOM     18   O  A00 X   1      86.341  96.291  23.3950  0.00  0.00     0.000 OA
ENDBRANCH 5 16
BRANCH 1 19
ATOM     19  O4  A00 X   2      89.973  94.861  24.4600  0.00  0.00     0.000 O
BRANCH 19 23
ATOM     20  C1  A00 X   2      93.796  93.268  23.3600  0.00  0.00     0.000 C
ATOM     21  C2  A00 X   2      93.199  92.822  24.7170  0.00  0.00     0.000 C
ATOM     22  C3  A00 X   2      91.685  93.113  24.7740  0.00  0.00     0.000 C
ATOM     23  C4  A00 X   2      91.405  94.599  24.4550  0.00  0.00     0.000 C
ATOM     24  C5  A00 X   2      92.067  94.924  23.0880  0.00  0.00     0.000 C
ATOM     25  O5  A00 X   2      93.494  94.678  23.1890  0.00  0.00     0.000 O
ATOM     26   O  A00 X   2      91.167  92.620  26.0210  0.00  0.00     0.000 O
ATOM     28  HD  A00 X   2      91.778  93.017  26.4900  0.00  0.00     0.000 HD
BRANCH 21 30
ATOM     28   N  A00 X   2      94.560  92.785  25.2620  0.00  0.00     0.000 N
ATOM     30  HD  A00 X   2      94.057  92.345  25.8130  0.00  0.00     0.000 HD
ATOM     30   O  A00 X   2      94.650  91.103  26.8810  0.00  0.00     0.000 OA
ATOM     31   S  A00 X   2      94.750  92.518  26.8090  0.00  0.00     0.000 S
ATOM     32   O  A00 X   2      96.050  93.046  27.0860  0.00  0.00     0.000 OA
ATOM     33   O  A00 X   2      93.748  93.277  27.4960  0.00  0.00     0.000 OA
ENDBRANCH 21 30
BRANCH 24 34
ATOM     34   C  A00 X   2      91.741  96.285  22.4290  0.00  0.00     0.000 C
ATOM     35   O  A00 X   2      92.327  99.511  24.0110  0.00  0.00     0.000 OA
ATOM     36   O  A00 X   2      91.742  97.350  23.4000  0.00  0.00     0.000 O
ATOM     37   O  A00 X   2      94.003  97.874  23.6880  0.00  0.00     0.000 OA
ATOM     38   S  A00 X   2      92.815  98.474  23.1620  0.00  0.00     0.000 S
ATOM     39   O  A00 X   2      92.785  98.772  21.7620  0.00  0.00     0.000 OA
ENDBRANCH 24 34
BRANCH 20 40
ATOM     40  O4  A00 X   3      93.103  92.504  22.3620  0.00  0.00     0.000 O
BRANCH 40 44
ATOM     41  C1  A00 X   3      91.431  92.482  19.1490  0.00  0.00     0.000 C
ATOM     42  C2  A00 X   3      91.576  91.254  20.0740  0.00  0.00     0.000 C
ATOM     43  C3  A00 X   3      93.051  91.059  20.5100  0.00  0.00     0.000 C
ATOM     44  C4  A00 X   3      93.717  92.310  21.0700  0.00  0.00     0.000 C
ATOM     45  C5  A00 X   3      93.532  93.498  20.0830  0.00  0.00     0.000 C
ATOM     46  O5  A00 X   3      92.128  93.638  19.6900  0.00  0.00     0.000 O
ATOM     47   O  A00 X   3      93.319  89.902  21.2990  0.00  0.00     0.000 O
ATOM     49  HD  A00 X   3      93.848  90.446  21.7160  0.00  0.00     0.000 HD
BRANCH 42 49
ATOM     49   O  A00 X   3      90.714  91.477  21.2110  0.00  0.00     0.000 O
ATOM     50   O  A00 X   3      90.200  90.327  23.2470  0.00  0.00     0.000 OA
ATOM     51   O  A00 X   3      90.422  89.075  21.2540  0.00  0.00     0.000 OA
ATOM     52   O  A00 X   3      88.577  90.537  21.4660  0.00  0.00     0.000 OA
ATOM     53   S  A00 X   3      89.926  90.293  21.8440  0.00  0.00     0.000 S
ENDBRANCH 42 49
BRANCH 45 54
ATOM     54   C  A00 X   3      94.486  93.395  18.8870  0.00  0.00     0.000 C
ATOM     55   O  A00 X   3      95.193  92.418  18.7410  0.00  0.00     0.000 OA
ATOM     56   O  A00 X   3      94.553  94.292  18.0610  0.00  0.00     0.000 OA
ENDBRANCH 45 54
BRANCH 41 57
ATOM     57  O4  A00 X   4      91.787  92.167  17.7840  0.00  0.00     0.000 O
BRANCH 57 61
ATOM     58  C1  A00 X   4      90.323  93.561  13.9690  0.00  0.00     0.000 C
ATOM     59  C2  A00 X   4      90.968  94.586  14.9350  0.00  0.00     0.000 C
ATOM     60  C3  A00 X   4      91.764  93.932  16.0830  0.00  0.00     0.000 C
ATOM     61  C4  A00 X   4      90.963  92.805  16.7670  0.00  0.00     0.000 C
ATOM     62  C5  A00 X   4      90.602  91.789  15.6550  0.00  0.00     0.000 C
ATOM     63  O5  A00 X   4      89.751  92.436  14.6750  0.00  0.00     0.000 O
BRANCH 59 66
ATOM     64   N  A00 X   4      89.914  95.385  15.5860  0.00  0.00     0.000 N
ATOM     66  HD  A00 X   4      89.136  95.018  15.6820  0.00  0.00     0.000 HD
ATOM     66   O  A00 X   4      89.876  96.760  13.6090  0.00  0.00     0.000 OA
ATOM     67   S  A00 X   4      89.607  96.845  15.0100  0.00  0.00     0.000 S
ATOM     68   O  A00 X   4      88.225  96.978  15.3670  0.00  0.00     0.000 OA
ATOM     69   O  A00 X   4      90.500  97.628  15.8170  0.00  0.00     0.000 OA
ENDBRANCH 59 66
BRANCH 62 70
ATOM     70   C  A00 X   4      89.883  90.518  16.1680  0.00  0.00     0.000 C
ATOM     71   O  A00 X   4      86.539  90.202  17.5180  0.00  0.00     0.000 OA
ATOM     72   O  A00 X   4      88.604  89.415  18.3330  0.00  0.00     0.000 OA
ATOM     73   O  A00 X   4      88.493  90.812  16.3780  0.00  0.00     0.000 O
ATOM     74   O  A00 X   4      88.050  91.779  18.5400  0.00  0.00     0.000 OA
ATOM     75   S  A00 X   4      87.898  90.563  17.8080  0.00  0.00     0.000 S
ENDBRANCH 62 70
ENDBRANCH 57 61
ENDBRANCH 41 57
ENDBRANCH 40 44
ENDBRANCH 20 40
ENDBRANCH 19 23
ENDBRANCH 1 19
TORSDOF 14
ENDMDL
MODEL 53
REMARK VINA RESULT:      -1.5     89.569     94.327
ROOT
ATOM      1  C1  A00 X   1      84.310  62.013  75.6450  0.00  0.00     0.000 C
ATOM      2  C2  A00 X   1      83.168  61.482  76.5530  0.00  0.00     0.000 C
ATOM      3  C3  A00 X   1      83.614  60.771  77.8730  0.00  0.00     0.000 C
ATOM      4  C4  A00 X   1      85.106  60.358  77.9380  0.00  0.00     0.000 C
ATOM      5  C5  A00 X   1      85.729  60.219  76.5490  0.00  0.00     0.000 C
ATOM      6  O5  A00 X   1      85.641  61.541  75.9740  0.00  0.00     0.000 O
ATOM      7   O  A00 X   1      82.855  59.573  78.0250  0.00  0.00     0.000 O
ATOM      9  HD  A00 X   1      83.671  59.389  78.2510  0.00  0.00     0.000 HD
ATOM      9   O  A00 X   1      85.869  61.278  78.7190  0.00  0.00     0.000 O
ATOM     11  HD  A00 X   1      86.684  61.094  78.9440  0.00  0.00     0.000 HD
ENDROOT
BRANCH 2 11
ATOM     11   O  A00 X   1      82.318  62.597  76.8840  0.00  0.00     0.000 O
ATOM     12   O  A00 X   1      80.535  62.404  78.4810  0.00  0.00     0.000 OA
ATOM     13   O  A00 X   1      80.435  61.113  76.4220  0.00  0.00     0.000 OA
ATOM     14   O  A00 X   1      80.219  63.481  76.3700  0.00  0.00     0.000 OA
ATOM     15   S  A00 X   1      80.780  62.352  77.0620  0.00  0.00     0.000 S
ENDBRANCH 2 11
BRANCH 5 16
ATOM     16   C  A00 X   1      85.113  59.125  75.6700  0.00  0.00     0.000 C
ATOM     17   O  A00 X   1      85.403  59.095  74.4920  0.00  0.00     0.000 OA
ATOM     18   O  A00 X   1      84.353  58.286  76.1100  0.00  0.00     0.000 OA
ENDBRANCH 5 16
BRANCH 1 19
ATOM     19  O4  A00 X   2      84.026  61.851  74.2340  0.00  0.00     0.000 O
BRANCH 19 23
ATOM     20  C1  A00 X   2      85.730  65.630  73.1430  0.00  0.00     0.000 C
ATOM     21  C2  A00 X   2      84.194  65.565  73.3280  0.00  0.00     0.000 C
ATOM     22  C3  A00 X   2      83.789  64.304  74.1210  0.00  0.00     0.000 C
ATOM     23  C4  A00 X   2      84.368  63.035  73.4560  0.00  0.00     0.000 C
ATOM     24  C5  A00 X   2      85.901  63.232  73.3110  0.00  0.00     0.000 C
ATOM     25  O5  A00 X   2      86.146  64.402  72.4880  0.00  0.00     0.000 O
ATOM     26   O  A00 X   2      82.366  64.325  74.3250  0.00  0.00     0.000 O
ATOM     28  HD  A00 X   2      82.198  64.475  73.4890  0.00  0.00     0.000 HD
BRANCH 21 30
ATOM     28   N  A00 X   2      84.060  66.548  72.2490  0.00  0.00     0.000 N
ATOM     30  HD  A00 X   2      83.300  66.527  72.6650  0.00  0.00     0.000 HD
ATOM     30   O  A00 X   2      82.172  67.854  72.6860  0.00  0.00     0.000 OA
ATOM     31   S  A00 X   2      82.612  66.906  71.7250  0.00  0.00     0.000 S
ATOM     32   O  A00 X   2      82.847  67.436  70.4170  0.00  0.00     0.000 OA
ATOM     33   O  A00 X   2      81.877  65.679  71.6400  0.00  0.00     0.000 OA
ENDBRANCH 21 30
BRANCH 24 34
ATOM     34   C  A00 X   2      86.752  62.013  72.8850  0.00  0.00     0.000 C
ATOM     35   O  A00 X   2      86.243  60.148  69.7990  0.00  0.00     0.000 OA
ATOM     36   O  A00 X   2      86.113  61.274  71.8250  0.00  0.00     0.000 O
ATOM     37   O  A00 X   2      86.620  62.481  69.8860  0.00  0.00     0.000 OA
ATOM     38   S  A00 X   2      86.915  61.210  70.4730  0.00  0.00     0.000 S
ATOM     39   O  A00 X   2      88.277  60.941  70.8230  0.00  0.00     0.000 OA
ENDBRANCH 24 34
BRANCH 20 40
ATOM     40  O4  A00 X   3      86.278  65.677  74.4680  0.00  0.00     0.000 O
BRANCH 40 44
ATOM     41  C1  A00 X   3      88.787  64.428  76.7640  0.00  0.00     0.000 C
ATOM     42  C2  A00 X   3      87.681  65.440  77.1340  0.00  0.00     0.000 C
ATOM     43  C3  A00 X   3      87.648  66.619  76.1280  0.00  0.00     0.000 C
ATOM     44  C4  A00 X   3      87.609  66.201  74.6630  0.00  0.00     0.000 C
ATOM     45  C5  A00 X   3      88.752  65.189  74.3680  0.00  0.00     0.000 C
ATOM     46  O5  A00 X   3      88.752  64.100  75.3480  0.00  0.00     0.000 O
ATOM     47   O  A00 X   3      86.720  67.662  76.4210  0.00  0.00     0.000 O
ATOM     49  HD  A00 X   3      86.610  67.651  75.5620  0.00  0.00     0.000 HD
BRANCH 42 49
ATOM     49   O  A00 X   3      86.431  64.717  77.1410  0.00  0.00     0.000 O
ATOM     50   O  A00 X   3      84.124  65.249  77.4920  0.00  0.00     0.000 OA
ATOM     51   O  A00 X   3      85.749  66.237  78.8960  0.00  0.00     0.000 OA
ATOM     52   O  A00 X   3      85.370  63.911  79.0750  0.00  0.00     0.000 OA
ATOM     53   S  A00 X   3      85.343  65.038  78.2070  0.00  0.00     0.000 S
ENDBRANCH 42 49
BRANCH 45 54
ATOM     54   C  A00 X   3      90.111  65.889  74.2440  0.00  0.00     0.000 C
ATOM     55   O  A00 X   3      90.243  67.049  74.5770  0.00  0.00     0.000 OA
ATOM     56   O  A00 X   3      91.083  65.293  73.8070  0.00  0.00     0.000 OA
ENDBRANCH 45 54
BRANCH 41 57
ATOM     57  O4  A00 X   4      90.084  64.859  77.2350  0.00  0.00     0.000 O
BRANCH 57 61
ATOM     58  C1  A00 X   4      93.552  62.719  78.6610  0.00  0.00     0.000 C
ATOM     59  C2  A00 X   4      93.071  62.469  77.2100  0.00  0.00     0.000 C
ATOM     60  C3  A00 X   4      92.073  63.529  76.7010  0.00  0.00     0.000 C
ATOM     61  C4  A00 X   4      90.949  63.795  77.7250  0.00  0.00     0.000 C
ATOM     62  C5  A00 X   4      91.647  64.232  79.0360  0.00  0.00     0.000 C
ATOM     63  O5  A00 X   4      92.472  63.143  79.5240  0.00  0.00     0.000 O
BRANCH 59 66
ATOM     64   N  A00 X   4      92.356  61.182  77.1320  0.00  0.00     0.000 N
ATOM     66  HD  A00 X   4      91.959  60.901  77.8480  0.00  0.00     0.000 HD
ATOM     66   O  A00 X   4      94.507  60.110  76.9730  0.00  0.00     0.000 OA
ATOM     67   S  A00 X   4      93.148  59.908  76.5780  0.00  0.00     0.000 S
ATOM     68   O  A00 X   4      92.456  58.855  77.2630  0.00  0.00     0.000 OA
ATOM     69   O  A00 X   4      92.836  60.004  75.1800  0.00  0.00     0.000 OA
ENDBRANCH 59 66
BRANCH 62 70
ATOM     70   C  A00 X   4      90.672  64.653  80.1620  0.00  0.00     0.000 C
ATOM     71   O  A00 X   4      88.411  62.581  82.0860  0.00  0.00     0.000 OA
ATOM     72   O  A00 X   4      88.041  64.610  80.9490  0.00  0.00     0.000 OA
ATOM     73   O  A00 X   4      90.159  63.478  80.8090  0.00  0.00     0.000 O
ATOM     74   O  A00 X   4      88.248  62.539  79.6810  0.00  0.00     0.000 OA
ATOM     75   S  A00 X   4      88.604  63.281  80.8470  0.00  0.00     0.000 S
ENDBRANCH 62 70
ENDBRANCH 57 61
ENDBRANCH 41 57
ENDBRANCH 40 44
ENDBRANCH 20 40
ENDBRANCH 19 23
ENDBRANCH 1 19
TORSDOF 14
ENDMDL
MODEL 54
REMARK VINA RESULT:      -1.5     90.942     95.091
ROOT
ATOM      1  C1  A00 X   1      22.641  75.218  91.9690  0.00  0.00     0.000 C
ATOM      2  C2  A00 X   1      21.157  74.928  92.3180  0.00  0.00     0.000 C
ATOM      3  C3  A00 X   1      20.882  73.606  93.1070  0.00  0.00     0.000 C
ATOM      4  C4  A00 X   1      22.046  72.582  93.1210  0.00  0.00     0.000 C
ATOM      5  C5  A00 X   1      23.010  72.787  91.9530  0.00  0.00     0.000 C
ATOM      6  O5  A00 X   1      23.556  74.109  92.1550  0.00  0.00     0.000 O
ATOM      7   O  A00 X   1      19.767  72.943  92.5140  0.00  0.00     0.000 O
ATOM      9  HD  A00 X   1      20.354  72.335  92.7030  0.00  0.00     0.000 HD
ATOM      9   O  A00 X   1      22.765  72.627  94.3530  0.00  0.00     0.000 O
ATOM     11  HD  A00 X   1      23.352  72.019  94.5430  0.00  0.00     0.000 HD
ENDROOT
BRANCH 2 11
ATOM     11   O  A00 X   1      20.661  76.043  93.0840  0.00  0.00     0.000 O
ATOM     12   O  A00 X   1      18.492  76.012  94.1140  0.00  0.00     0.000 OA
ATOM     13   O  A00 X   1      18.659  75.925  91.6890  0.00  0.00     0.000 OA
ATOM     14   O  A00 X   1      19.262  77.900  92.8690  0.00  0.00     0.000 OA
ATOM     15   S  A00 X   1      19.161  76.467  92.9220  0.00  0.00     0.000 S
ENDBRANCH 2 11
BRANCH 5 16
ATOM     16   C  A00 X   1      22.397  72.583  90.5640  0.00  0.00     0.000 C
ATOM     17   O  A00 X   1      23.032  72.934  89.5910  0.00  0.00     0.000 OA
ATOM     18   O  A00 X   1      21.304  72.077  90.4010  0.00  0.00     0.000 OA
ENDBRANCH 5 16
BRANCH 1 19
ATOM     19  O4  A00 X   2      22.803  75.823  90.6630  0.00  0.00     0.000 O
BRANCH 19 23
ATOM     20  C1  A00 X   2      25.897  78.497  91.9450  0.00  0.00     0.000 C
ATOM     21  C2  A00 X   2      24.454  79.054  91.8750  0.00  0.00     0.000 C
ATOM     22  C3  A00 X   2      23.424  77.907  91.8290  0.00  0.00     0.000 C
ATOM     23  C4  A00 X   2      23.747  76.932  90.6740  0.00  0.00     0.000 C
ATOM     24  C5  A00 X   2      25.218  76.463  90.8460  0.00  0.00     0.000 C
ATOM     25  O5  A00 X   2      26.087  77.624  90.8000  0.00  0.00     0.000 O
ATOM     26   O  A00 X   2      22.102  78.473  91.8350  0.00  0.00     0.000 O
ATOM     28  HD  A00 X   2      22.280  79.022  91.1890  0.00  0.00     0.000 HD
BRANCH 21 30
ATOM     28   N  A00 X   2      25.014  80.347  91.4690  0.00  0.00     0.000 N
ATOM     30  HD  A00 X   2      24.195  80.493  91.7120  0.00  0.00     0.000 HD
ATOM     30   O  A00 X   2      23.618  82.033  92.2880  0.00  0.00     0.000 OA
ATOM     31   S  A00 X   2      24.022  81.500  91.0360  0.00  0.00     0.000 S
ATOM     32   O  A00 X   2      24.838  82.368  90.2450  0.00  0.00     0.000 OA
ATOM     33   O  A00 X   2      23.004  80.900  90.2260  0.00  0.00     0.000 OA
ENDBRANCH 21 30
BRANCH 24 34
ATOM     34   C  A00 X   2      25.719  75.305  89.9520  0.00  0.00     0.000 C
ATOM     35   O  A00 X   2      28.411  75.623  87.5210  0.00  0.00     0.000 OA
ATOM     36   O  A00 X   2      26.525  75.797  88.8630  0.00  0.00     0.000 O
ATOM     37   O  A00 X   2      28.631  76.158  89.8140  0.00  0.00     0.000 OA
ATOM     38   S  A00 X   2      28.016  75.296  88.8510  0.00  0.00     0.000 S
ATOM     39   O  A00 X   2      27.975  73.896  89.1460  0.00  0.00     0.000 OA
ENDBRANCH 24 34
BRANCH 20 40
ATOM     40  O4  A00 X   3      25.957  77.725  93.1530  0.00  0.00     0.000 O
BRANCH 40 44
ATOM     41  C1  A00 X   3      27.030  74.684  94.8040  0.00  0.00     0.000 C
ATOM     42  C2  A00 X   3      26.235  75.820  95.4820  0.00  0.00     0.000 C
ATOM     43  C3  A00 X   3      26.909  77.194  95.2340  0.00  0.00     0.000 C
ATOM     44  C4  A00 X   3      27.237  77.484  93.7750  0.00  0.00     0.000 C
ATOM     45  C5  A00 X   3      28.040  76.300  93.1650  0.00  0.00     0.000 C
ATOM     46  O5  A00 X   3      27.373  75.024  93.4320  0.00  0.00     0.000 O
ATOM     47   O  A00 X   3      26.308  78.310  95.8880  0.00  0.00     0.000 O
ATOM     49  HD  A00 X   3      26.495  78.706  95.1410  0.00  0.00     0.000 HD
BRANCH 42 49
ATOM     49   O  A00 X   3      24.897  75.783  94.9400  0.00  0.00     0.000 O
ATOM     50   O  A00 X   3      22.889  77.062  95.1920  0.00  0.00     0.000 OA
ATOM     51   O  A00 X   3      24.170  76.558  97.1150  0.00  0.00     0.000 OA
ATOM     52   O  A00 X   3      23.055  74.792  96.0080  0.00  0.00     0.000 OA
ATOM     53   S  A00 X   3      23.670  76.065  95.8550  0.00  0.00     0.000 S
ENDBRANCH 42 49
BRANCH 45 54
ATOM     54   C  A00 X   3      29.507  76.320  93.6100  0.00  0.00     0.000 C
ATOM     55   O  A00 X   3      30.313  75.557  93.1190  0.00  0.00     0.000 OA
ATOM     56   O  A00 X   3      29.890  77.102  94.4670  0.00  0.00     0.000 OA
ENDBRANCH 45 54
BRANCH 41 57
ATOM     57  O4  A00 X   4      28.159  74.269  95.6060  0.00  0.00     0.000 O
BRANCH 57 61
ATOM     58  C1  A00 X   4      30.087  70.455  96.2150  0.00  0.00     0.000 C
ATOM     59  C2  A00 X   4      30.077  71.061  94.7900  0.00  0.00     0.000 C
ATOM     60  C3  A00 X   4      29.693  72.554  94.7590  0.00  0.00     0.000 C
ATOM     61  C4  A00 X   4      28.429  72.838  95.5990  0.00  0.00     0.000 C
ATOM     62  C5  A00 X   4      28.739  72.345  97.0340  0.00  0.00     0.000 C
ATOM     63  O5  A00 X   4      28.967  70.912  97.0070  0.00  0.00     0.000 O
BRANCH 59 66
ATOM     64   N  A00 X   4      29.075  70.385  93.9460  0.00  0.00     0.000 N
ATOM     66  HD  A00 X   4      28.385  70.042  94.3420  0.00  0.00     0.000 HD
ATOM     66   O  A00 X   4      30.699  68.644  93.5870  0.00  0.00     0.000 OA
ATOM     67   S  A00 X   4      29.576  69.246  92.9400  0.00  0.00     0.000 S
ATOM     68   O  A00 X   4      28.398  68.433  92.8640  0.00  0.00     0.000 OA
ATOM     69   O  A00 X   4      29.823  70.036  91.7670  0.00  0.00     0.000 OA
ENDBRANCH 59 66
BRANCH 62 70
ATOM     70   C  A00 X   4      27.621  72.645  98.0610  0.00  0.00     0.000 C
ATOM     71   O  A00 X   4      24.320  71.180  98.3040  0.00  0.00     0.000 OA
ATOM     72   O  A00 X   4      25.003  73.433  98.3240  0.00  0.00     0.000 OA
ATOM     73   O  A00 X   4      26.582  71.661  97.9340  0.00  0.00     0.000 O
ATOM     74   O  A00 X   4      24.977  72.202  96.2210  0.00  0.00     0.000 OA
ATOM     75   S  A00 X   4      25.127  72.165  97.6400  0.00  0.00     0.000 S
ENDBRANCH 62 70
ENDBRANCH 57 61
ENDBRANCH 41 57
ENDBRANCH 40 44
ENDBRANCH 20 40
ENDBRANCH 19 23
ENDBRANCH 1 19
TORSDOF 14
ENDMDL
MODEL 55
REMARK VINA RESULT:      -1.5     77.323     81.684
ROOT
ATOM      1  C1  A00 X   1      96.598  67.761  26.6790  0.00  0.00     0.000 C
ATOM      2  C2  A00 X   1      97.066  66.536  27.5100  0.00  0.00     0.000 C
ATOM      3  C3  A00 X   1      98.167  65.641  26.8520  0.00  0.00     0.000 C
ATOM      4  C4  A00 X   1      98.388  65.859  25.3330  0.00  0.00     0.000 C
ATOM      5  C5  A00 X   1      97.168  66.483  24.6570  0.00  0.00     0.000 C
ATOM      6  O5  A00 X   1      97.015  67.773  25.2910  0.00  0.00     0.000 O
ATOM      7   O  A00 X   1      97.801  64.272  27.0150  0.00  0.00     0.000 O
ATOM      9  HD  A00 X   1      98.112  64.360  26.2120  0.00  0.00     0.000 HD
ATOM      9   O  A00 X   1      99.541  66.663  25.0840  0.00  0.00     0.000 O
ATOM     11  HD  A00 X   1      99.852  66.750  24.2800  0.00  0.00     0.000 HD
ENDROOT
BRANCH 2 11
ATOM     11   O  A00 X   1      97.552  67.025  28.7750  0.00  0.00     0.000 O
ATOM     12   O  A00 X   1      98.643  65.586  30.3580  0.00  0.00     0.000 OA
ATOM     13   O  A00 X   1      96.310  65.187  29.7970  0.00  0.00     0.000 OA
ATOM     14   O  A00 X   1      96.940  67.124  31.0260  0.00  0.00     0.000 OA
ATOM     15   S  A00 X   1      97.349  66.145  30.0560  0.00  0.00     0.000 S
ENDBRANCH 2 11
BRANCH 5 16
ATOM     16   C  A00 X   1      95.898  65.627  24.6940  0.00  0.00     0.000 C
ATOM     17   O  A00 X   1      94.844  66.135  24.3700  0.00  0.00     0.000 OA
ATOM     18   O  A00 X   1      95.909  64.459  25.0290  0.00  0.00     0.000 OA
ENDBRANCH 5 16
BRANCH 1 19
ATOM     19  O4  A00 X   2      95.177  68.014  26.8050  0.00  0.00     0.000 O
BRANCH 19 23
ATOM     20  C1  A00 X   2      95.632  72.275  26.9000  0.00  0.00     0.000 C
ATOM     21  C2  A00 X   2      95.490  71.541  28.2560  0.00  0.00     0.000 C
ATOM     22  C3  A00 X   2      95.770  70.032  28.0960  0.00  0.00     0.000 C
ATOM     23  C4  A00 X   2      94.876  69.427  26.9890  0.00  0.00     0.000 C
ATOM     24  C5  A00 X   2      95.095  70.258  25.6950  0.00  0.00     0.000 C
ATOM     25  O5  A00 X   2      94.729  71.638  25.9580  0.00  0.00     0.000 O
ATOM     26   O  A00 X   2      95.693  69.409  29.3890  0.00  0.00     0.000 O
ATOM     28  HD  A00 X   2      94.926  69.766  29.5710  0.00  0.00     0.000 HD
BRANCH 21 30
ATOM     28   N  A00 X   2      94.756  72.703  28.7650  0.00  0.00     0.000 N
ATOM     30  HD  A00 X   2      94.991  72.233  29.4540  0.00  0.00     0.000 HD
ATOM     30   O  A00 X   2      95.196  72.896  31.0520  0.00  0.00     0.000 OA
ATOM     31   S  A00 X   2      94.096  72.615  30.1990  0.00  0.00     0.000 S
ATOM     32   O  A00 X   2      93.083  73.624  30.1680  0.00  0.00     0.000 OA
ATOM     33   O  A00 X   2      93.502  71.316  30.3120  0.00  0.00     0.000 OA
ENDBRANCH 21 30
BRANCH 24 34
ATOM     34   C  A00 X   2      94.490  69.721  24.3770  0.00  0.00     0.000 C
ATOM     35   O  A00 X   2      91.932  71.452  22.4500  0.00  0.00     0.000 OA
ATOM     36   O  A00 X   2      93.277  70.420  24.0350  0.00  0.00     0.000 O
ATOM     37   O  A00 X   2      94.010  72.410  23.0490  0.00  0.00     0.000 OA
ATOM     38   S  A00 X   2      93.319  71.213  22.6780  0.00  0.00     0.000 S
ATOM     39   O  A00 X   2      93.951  70.350  21.7250  0.00  0.00     0.000 OA
ENDBRANCH 24 34
BRANCH 20 40
ATOM     40  O4  A00 X   3      96.988  72.061  26.4840  0.00  0.00     0.000 O
BRANCH 40 44
ATOM     41  C1  A00 X   3      99.297  71.247  23.8130  0.00  0.00     0.000 C
ATOM     42  C2  A00 X   3      99.705  71.513  25.2790  0.00  0.00     0.000 C
ATOM     43  C3  A00 X   3      99.093  72.842  25.7920  0.00  0.00     0.000 C
ATOM     44  C4  A00 X   3      97.595  72.984  25.5540  0.00  0.00     0.000 C
ATOM     45  C5  A00 X   3      97.266  72.707  24.0600  0.00  0.00     0.000 C
ATOM     46  O5  A00 X   3      97.870  71.449  23.6160  0.00  0.00     0.000 O
ATOM     47   O  A00 X   3      99.474  73.235  27.1090  0.00  0.00     0.000 O
ATOM     49  HD  A00 X   3      98.645  73.479  27.1550  0.00  0.00     0.000 HD
BRANCH 42 49
ATOM     49   O  A00 X   3      99.247  70.385  26.0570  0.00  0.00     0.000 O
ATOM     50   O  A00 X   3      99.255  69.757  28.3670  0.00  0.00     0.000 OA
ATOM     51   O  A00 X   3     101.186  70.769  27.4530  0.00  0.00     0.000 OA
ATOM     52   O  A00 X   3     100.606  68.594  26.7330  0.00  0.00     0.000 OA
ATOM     53   S  A00 X   3     100.113  69.833  27.2260  0.00  0.00     0.000 S
ENDBRANCH 42 49
BRANCH 45 54
ATOM     54   C  A00 X   3      97.629  73.900  23.1680  0.00  0.00     0.000 C
ATOM     55   O  A00 X   3      98.270  74.831  23.6110  0.00  0.00     0.000 OA
ATOM     56   O  A00 X   3      97.281  73.935  21.9980  0.00  0.00     0.000 OA
ENDBRANCH 45 54
BRANCH 41 57
ATOM     57  O4  A00 X   4     100.128  71.980  22.8860  0.00  0.00     0.000 O
BRANCH 57 61
ATOM     58  C1  A00 X   4     101.572  71.112  18.9110  0.00  0.00     0.000 C
ATOM     59  C2  A00 X   4     100.043  71.216  19.1380  0.00  0.00     0.000 C
ATOM     60  C3  A00 X   4      99.664  71.874  20.4810  0.00  0.00     0.000 C
ATOM     61  C4  A00 X   4     100.460  71.271  21.6590  0.00  0.00     0.000 C
ATOM     62  C5  A00 X   4     101.958  71.464  21.3170  0.00  0.00     0.000 C
ATOM     63  O5  A00 X   4     102.273  70.718  20.1130  0.00  0.00     0.000 O
BRANCH 59 66
ATOM     64   N  A00 X   4      99.433  69.875  19.1760  0.00  0.00     0.000 N
ATOM     66  HD  A00 X   4      99.929  69.218  19.4440  0.00  0.00     0.000 HD
ATOM     66   O  A00 X   4      99.442  69.913  16.7680  0.00  0.00     0.000 OA
ATOM     67   S  A00 X   4      98.716  69.332  17.8540  0.00  0.00     0.000 S
ATOM     68   O  A00 X   4      98.890  67.919  18.0270  0.00  0.00     0.000 OA
ATOM     69   O  A00 X   4      97.376  69.792  18.0850  0.00  0.00     0.000 OA
ENDBRANCH 59 66
BRANCH 62 70
ATOM     70   C  A00 X   4     102.926  71.017  22.4390  0.00  0.00     0.000 C
ATOM     71   O  A00 X   4     103.653  67.664  23.5940  0.00  0.00     0.000 OA
ATOM     72   O  A00 X   4     103.095  69.613  24.7930  0.00  0.00     0.000 OA
ATOM     73   O  A00 X   4     103.085  69.590  22.3870  0.00  0.00     0.000 O
ATOM     74   O  A00 X   4     101.359  68.406  23.5810  0.00  0.00     0.000 OA
ATOM     75   S  A00 X   4     102.737  68.767  23.6760  0.00  0.00     0.000 S
ENDBRANCH 62 70
ENDBRANCH 57 61
ENDBRANCH 41 57
ENDBRANCH 40 44
ENDBRANCH 20 40
ENDBRANCH 19 23
ENDBRANCH 1 19
TORSDOF 14
ENDMDL
MODEL 56
REMARK VINA RESULT:      -1.5     74.609     79.796
ROOT
ATOM      1  C1  A00 X   1     105.924  36.410  36.8620  0.00  0.00     0.000 C
ATOM      2  C2  A00 X   1     107.203  37.162  37.3180  0.00  0.00     0.000 C
ATOM      3  C3  A00 X   1     107.262  38.687  36.9760  0.00  0.00     0.000 C
ATOM      4  C4  A00 X   1     106.234  39.176  35.9240  0.00  0.00     0.000 C
ATOM      5  C5  A00 X   1     105.736  38.040  35.0310  0.00  0.00     0.000 C
ATOM      6  O5  A00 X   1     105.073  37.127  35.9340  0.00  0.00     0.000 O
ATOM      7   O  A00 X   1     108.553  38.989  36.4520  0.00  0.00     0.000 O
ATOM      9  HD  A00 X   1     107.976  39.423  35.9740  0.00  0.00     0.000 HD
ATOM      9   O  A00 X   1     105.123  39.826  36.5420  0.00  0.00     0.000 O
ATOM     11  HD  A00 X   1     104.546  40.261  36.0650  0.00  0.00     0.000 HD
ENDROOT
BRANCH 2 11
ATOM     11   O  A00 X   1     107.325  36.995  38.7440  0.00  0.00     0.000 O
ATOM     12   O  A00 X   1     108.985  38.169  40.0220  0.00  0.00     0.000 OA
ATOM     13   O  A00 X   1     109.695  36.557  38.3440  0.00  0.00     0.000 OA
ATOM     14   O  A00 X   1     108.592  35.830  40.3220  0.00  0.00     0.000 OA
ATOM     15   S  A00 X   1     108.756  36.901  39.3760  0.00  0.00     0.000 S
ENDBRANCH 2 11
BRANCH 5 16
ATOM     16   C  A00 X   1     106.813  37.374  34.1680  0.00  0.00     0.000 C
ATOM     17   O  A00 X   1     106.543  36.337  33.5990  0.00  0.00     0.000 OA
ATOM     18   O  A00 X   1     107.922  37.851  34.0280  0.00  0.00     0.000 OA
ENDBRANCH 5 16
BRANCH 1 19
ATOM     19  O4  A00 X   2     106.198  35.066  36.3970  0.00  0.00     0.000 O
BRANCH 19 23
ATOM     20  C1  A00 X   2     102.693  33.392  38.2060  0.00  0.00     0.000 C
ATOM     21  C2  A00 X   2     104.029  33.254  38.9750  0.00  0.00     0.000 C
ATOM     22  C3  A00 X   2     105.078  34.250  38.4380  0.00  0.00     0.000 C
ATOM     23  C4  A00 X   2     105.246  34.091  36.9100  0.00  0.00     0.000 C
ATOM     24  C5  A00 X   2     103.842  34.230  36.2610  0.00  0.00     0.000 C
ATOM     25  O5  A00 X   2     102.975  33.195  36.7950  0.00  0.00     0.000 O
ATOM     26   O  A00 X   2     106.274  34.132  39.2270  0.00  0.00     0.000 O
ATOM     28  HD  A00 X   2     106.303  33.270  39.1440  0.00  0.00     0.000 HD
BRANCH 21 30
ATOM     28   N  A00 X   2     103.572  31.948  39.4610  0.00  0.00     0.000 N
ATOM     30  HD  A00 X   2     104.240  32.182  39.9600  0.00  0.00     0.000 HD
ATOM     30   O  A00 X   2     104.480  31.604  41.5860  0.00  0.00     0.000 OA
ATOM     31   S  A00 X   2     104.580  31.050  40.2830  0.00  0.00     0.000 S
ATOM     32   O  A00 X   2     104.046  29.730  40.1450  0.00  0.00     0.000 OA
ATOM     33   O  A00 X   2     105.854  31.141  39.6340  0.00  0.00     0.000 OA
ENDBRANCH 21 30
BRANCH 24 34
ATOM     34   C  A00 X   2     103.762  34.338  34.7200  0.00  0.00     0.000 C
ATOM     35   O  A00 X   2     102.150  31.871  32.5810  0.00  0.00     0.000 OA
ATOM     36   O  A00 X   2     103.395  33.077  34.1250  0.00  0.00     0.000 O
ATOM     37   O  A00 X   2     101.072  32.971  34.3760  0.00  0.00     0.000 OA
ATOM     38   S  A00 X   2     102.040  33.081  33.3280  0.00  0.00     0.000 S
ATOM     39   O  A00 X   2     102.035  34.280  32.5440  0.00  0.00     0.000 OA
ENDBRANCH 24 34
BRANCH 20 40
ATOM     40  O4  A00 X   3     102.257  34.741  38.4250  0.00  0.00     0.000 O
BRANCH 40 44
ATOM     41  C1  A00 X   3     100.874  37.779  37.0160  0.00  0.00     0.000 C
ATOM     42  C2  A00 X   3     101.293  37.604  38.4920  0.00  0.00     0.000 C
ATOM     43  C3  A00 X   3     100.660  36.327  39.1010  0.00  0.00     0.000 C
ATOM     44  C4  A00 X   3     100.858  35.064  38.2710  0.00  0.00     0.000 C
ATOM     45  C5  A00 X   3     100.411  35.317  36.8040  0.00  0.00     0.000 C
ATOM     46  O5  A00 X   3     101.023  36.537  36.2730  0.00  0.00     0.000 O
ATOM     47   O  A00 X   3     100.909  36.109  40.4890  0.00  0.00     0.000 O
ATOM     49  HD  A00 X   3     100.975  35.285  40.2330  0.00  0.00     0.000 HD
BRANCH 42 49
ATOM     49   O  A00 X   3     102.736  37.543  38.5180  0.00  0.00     0.000 O
ATOM     50   O  A00 X   3     104.426  37.218  40.1810  0.00  0.00     0.000 OA
ATOM     51   O  A00 X   3     102.579  38.605  40.6870  0.00  0.00     0.000 OA
ATOM     52   O  A00 X   3     104.135  39.346  39.0690  0.00  0.00     0.000 OA
ATOM     53   S  A00 X   3     103.530  38.211  39.6770  0.00  0.00     0.000 S
ENDBRANCH 42 49
BRANCH 45 54
ATOM     54   C  A00 X   3      98.884  35.299  36.6650  0.00  0.00     0.000 C
ATOM     55   O  A00 X   3      98.173  35.265  37.6490  0.00  0.00     0.000 OA
ATOM     56   O  A00 X   3      98.356  35.316  35.5640  0.00  0.00     0.000 OA
ENDBRANCH 45 54
BRANCH 41 57
ATOM     57  O4  A00 X   4      99.565  38.379  36.9000  0.00  0.00     0.000 O
BRANCH 57 61
ATOM     58  C1  A00 X   4      97.813  41.077  34.0210  0.00  0.00     0.000 C
ATOM     59  C2  A00 X   4      98.293  39.686  33.5370  0.00  0.00     0.000 C
ATOM     60  C3  A00 X   4      98.559  38.693  34.6860  0.00  0.00     0.000 C
ATOM     61  C4  A00 X   4      99.414  39.326  35.8050  0.00  0.00     0.000 C
ATOM     62  C5  A00 X   4      98.643  40.582  36.2840  0.00  0.00     0.000 C
ATOM     63  O5  A00 X   4      98.539  41.525  35.1880  0.00  0.00     0.000 O
BRANCH 59 66
ATOM     64   N  A00 X   4      99.537  39.575  32.7540  0.00  0.00     0.000 N
ATOM     66  HD  A00 X   4     100.179  40.124  32.9430  0.00  0.00     0.000 HD
ATOM     66   O  A00 X   4      98.312  40.445  30.8720  0.00  0.00     0.000 OA
ATOM     67   S  A00 X   4      99.433  39.605  31.1580  0.00  0.00     0.000 S
ATOM     68   O  A00 X   4     100.715  40.152  30.8250  0.00  0.00     0.000 OA
ATOM     69   O  A00 X   4      99.304  38.201  30.8860  0.00  0.00     0.000 OA
ENDBRANCH 59 66
BRANCH 62 70
ATOM     70   C  A00 X   4      99.294  41.300  37.4910  0.00  0.00     0.000 C
ATOM     71   O  A00 X   4     102.390  43.174  37.6060  0.00  0.00     0.000 OA
ATOM     72   O  A00 X   4     101.578  41.464  39.0070  0.00  0.00     0.000 OA
ATOM     73   O  A00 X   4     100.380  42.118  37.0270  0.00  0.00     0.000 O
ATOM     74   O  A00 X   4     102.447  40.902  36.8000  0.00  0.00     0.000 OA
ATOM     75   S  A00 X   4     101.803  41.864  37.6350  0.00  0.00     0.000 S
ENDBRANCH 62 70
ENDBRANCH 57 61
ENDBRANCH 41 57
ENDBRANCH 40 44
ENDBRANCH 20 40
ENDBRANCH 19 23
ENDBRANCH 1 19
TORSDOF 14
ENDMDL
MODEL 57
REMARK VINA RESULT:      -1.5    114.860    120.493
ROOT
ATOM      1  C1  A00 X   1      98.653 106.949  64.8610  0.00  0.00     0.000 C
ATOM      2  C2  A00 X   1      97.591 105.888  65.2560  0.00  0.00     0.000 C
ATOM      3  C3  A00 X   1      97.192 105.846  66.7680  0.00  0.00     0.000 C
ATOM      4  C4  A00 X   1      98.149 106.592  67.7330  0.00  0.00     0.000 C
ATOM      5  C5  A00 X   1      99.549 106.759  67.1430  0.00  0.00     0.000 C
ATOM      6  O5  A00 X   1      99.356 107.572  65.9640  0.00  0.00     0.000 O
ATOM      7   O  A00 X   1      97.164 104.486  67.1960  0.00  0.00     0.000 O
ATOM      9  HD  A00 X   1      97.534 104.946  67.8300  0.00  0.00     0.000 HD
ATOM      9   O  A00 X   1      97.626 107.868  68.1030  0.00  0.00     0.000 O
ATOM     11  HD  A00 X   1      97.995 108.327  68.7380  0.00  0.00     0.000 HD
ENDROOT
BRANCH 2 11
ATOM     11   O  A00 X   1      96.411 106.134  64.4660  0.00  0.00     0.000 O
ATOM     12   O  A00 X   1      94.354 104.957  64.8550  0.00  0.00     0.000 OA
ATOM     13   O  A00 X   1      96.314 103.718  64.1220  0.00  0.00     0.000 OA
ATOM     14   O  A00 X   1      95.237 105.248  62.6530  0.00  0.00     0.000 OA
ATOM     15   S  A00 X   1      95.529 104.917  64.0220  0.00  0.00     0.000 S
ENDBRANCH 2 11
BRANCH 5 16
ATOM     16   C  A00 X   1     100.297 105.450  66.8690  0.00  0.00     0.000 C
ATOM     17   O  A00 X   1     101.316 105.490  66.2120  0.00  0.00     0.000 OA
ATOM     18   O  A00 X   1      99.910 104.378  67.2910  0.00  0.00     0.000 OA
ENDBRANCH 5 16
BRANCH 1 19
ATOM     19  O4  A00 X   2      99.575 106.470  63.8500  0.00  0.00     0.000 O
BRANCH 19 23
ATOM     20  C1  A00 X   2      99.684 110.202  61.7470  0.00  0.00     0.000 C
ATOM     21  C2  A00 X   2      98.742 109.101  61.2010  0.00  0.00     0.000 C
ATOM     22  C3  A00 X   2      98.484 108.019  62.2700  0.00  0.00     0.000 C
ATOM     23  C4  A00 X   2      99.819 107.455  62.8060  0.00  0.00     0.000 C
ATOM     24  C5  A00 X   2     100.675 108.652  63.3030  0.00  0.00     0.000 C
ATOM     25  O5  A00 X   2     100.906 109.555  62.1910  0.00  0.00     0.000 O
ATOM     26   O  A00 X   2      97.553 107.060  61.7400  0.00  0.00     0.000 O
ATOM     28  HD  A00 X   2      98.003 106.953  61.0080  0.00  0.00     0.000 HD
BRANCH 21 30
ATOM     28   N  A00 X   2      99.031 109.580  59.8450  0.00  0.00     0.000 N
ATOM     30  HD  A00 X   2      98.327 109.079  59.7900  0.00  0.00     0.000 HD
ATOM     30   O  A00 X   2      97.134 109.225  58.5290  0.00  0.00     0.000 OA
ATOM     31   S  A00 X   2      98.472 108.758  58.6160  0.00  0.00     0.000 S
ATOM     32   O  A00 X   2      99.320 109.150  57.5330  0.00  0.00     0.000 OA
ATOM     33   O  A00 X   2      98.657 107.370  58.9150  0.00  0.00     0.000 OA
ENDBRANCH 21 30
BRANCH 24 34
ATOM     34   C  A00 X   2     101.965 108.342  64.0980  0.00  0.00     0.000 C
ATOM     35   O  A00 X   2     105.315 109.225  62.9780  0.00  0.00     0.000 OA
ATOM     36   O  A00 X   2     103.136 108.479  63.2690  0.00  0.00     0.000 O
ATOM     37   O  A00 X   2     103.551 110.781  63.2270  0.00  0.00     0.000 OA
ATOM     38   S  A00 X   2     104.156 109.585  63.7280  0.00  0.00     0.000 S
ATOM     39   O  A00 X   2     104.287 109.451  65.1480  0.00  0.00     0.000 OA
ENDBRANCH 24 34
BRANCH 20 40
ATOM     40  O4  A00 X   3      99.004 110.769  62.8760  0.00  0.00     0.000 O
BRANCH 40 44
ATOM     41  C1  A00 X   3      99.200 111.954  66.2940  0.00  0.00     0.000 C
ATOM     42  C2  A00 X   3      97.907 111.910  65.4510  0.00  0.00     0.000 C
ATOM     43  C3  A00 X   3      98.120 112.588  64.0730  0.00  0.00     0.000 C
ATOM     44  C4  A00 X   3      99.347 112.102  63.3110  0.00  0.00     0.000 C
ATOM     45  C5  A00 X   3     100.605 112.181  64.2220  0.00  0.00     0.000 C
ATOM     46  O5  A00 X   3     100.355 111.539  65.5140  0.00  0.00     0.000 O
ATOM     47   O  A00 X   3      96.966 112.683  63.2400  0.00  0.00     0.000 O
ATOM     49  HD  A00 X   3      97.539 112.499  62.6170  0.00  0.00     0.000 HD
BRANCH 42 49
ATOM     49   O  A00 X   3      97.544 110.519  65.3040  0.00  0.00     0.000 O
ATOM     50   O  A00 X   3      95.816 109.287  64.1970  0.00  0.00     0.000 OA
ATOM     51   O  A00 X   3      95.248 111.285  65.3260  0.00  0.00     0.000 OA
ATOM     52   O  A00 X   3      95.930 109.421  66.6090  0.00  0.00     0.000 OA
ATOM     53   S  A00 X   3      96.050 110.087  65.3580  0.00  0.00     0.000 S
ENDBRANCH 42 49
BRANCH 45 54
ATOM     54   C  A00 X   3     101.122 113.619  64.3530  0.00  0.00     0.000 C
ATOM     55   O  A00 X   3     100.439 114.557  63.9950  0.00  0.00     0.000 OA
ATOM     56   O  A00 X   3     102.228 113.845  64.8170  0.00  0.00     0.000 OA
ENDBRANCH 45 54
BRANCH 41 57
ATOM     57  O4  A00 X   4      99.364 113.229  66.9540  0.00  0.00     0.000 O
BRANCH 57 61
ATOM     58  C1  A00 X   4     101.116 114.382  70.7270  0.00  0.00     0.000 C
ATOM     59  C2  A00 X   4     102.020 113.710  69.6650  0.00  0.00     0.000 C
ATOM     60  C3  A00 X   4     101.393 113.674  68.2560  0.00  0.00     0.000 C
ATOM     61  C4  A00 X   4      99.936 113.164  68.2910  0.00  0.00     0.000 C
ATOM     62  C5  A00 X   4      99.167 114.107  69.2490  0.00  0.00     0.000 C
ATOM     63  O5  A00 X   4      99.730 113.997  70.5810  0.00  0.00     0.000 O
BRANCH 59 66
ATOM     64   N  A00 X   4     102.251 112.302  70.0370  0.00  0.00     0.000 N
ATOM     66  HD  A00 X   4     101.642 111.909  70.5110  0.00  0.00     0.000 HD
ATOM     66   O  A00 X   4     103.989 113.080  71.5100  0.00  0.00     0.000 OA
ATOM     67   S  A00 X   4     103.631 111.923  70.7500  0.00  0.00     0.000 S
ATOM     68   O  A00 X   4     103.221 110.784  71.5180  0.00  0.00     0.000 OA
ATOM     69   O  A00 X   4     104.430 111.602  69.6020  0.00  0.00     0.000 OA
ENDBRANCH 59 66
BRANCH 62 70
ATOM     70   C  A00 X   4      97.648 113.822  69.3320  0.00  0.00     0.000 C
ATOM     71   O  A00 X   4      95.958 110.983  70.8120  0.00  0.00     0.000 OA
ATOM     72   O  A00 X   4      95.696 111.996  68.7020  0.00  0.00     0.000 OA
ATOM     73   O  A00 X   4      97.421 112.714  70.2170  0.00  0.00     0.000 O
ATOM     74   O  A00 X   4      97.631 110.577  69.1250  0.00  0.00     0.000 OA
ATOM     75   S  A00 X   4      96.651 111.470  69.6520  0.00  0.00     0.000 S
ENDBRANCH 62 70
ENDBRANCH 57 61
ENDBRANCH 41 57
ENDBRANCH 40 44
ENDBRANCH 20 40
ENDBRANCH 19 23
ENDBRANCH 1 19
TORSDOF 14
ENDMDL
MODEL 58
REMARK VINA RESULT:      -1.5     82.015     86.270
ROOT
ATOM      1  C1  A00 X   1       7.944  69.320  84.6650  0.00  0.00     0.000 C
ATOM      2  C2  A00 X   1       6.729  70.255  84.4240  0.00  0.00     0.000 C
ATOM      3  C3  A00 X   1       7.007  71.789  84.5440  0.00  0.00     0.000 C
ATOM      4  C4  A00 X   1       8.339  72.175  85.2380  0.00  0.00     0.000 C
ATOM      5  C5  A00 X   1       8.863  71.059  86.1420  0.00  0.00     0.000 C
ATOM      6  O5  A00 X   1       9.112  69.950  85.2490  0.00  0.00     0.000 O
ATOM      7   O  A00 X   1       5.964  72.385  85.3120  0.00  0.00     0.000 O
ATOM      9  HD  A00 X   1       6.708  72.746  85.5690  0.00  0.00     0.000 HD
ATOM      9   O  A00 X   1       9.340  72.533  84.2850  0.00  0.00     0.000 O
ATOM     11  HD  A00 X   1      10.084  72.894  84.5420  0.00  0.00     0.000 HD
ENDROOT
BRANCH 2 11
ATOM     11   O  A00 X   1       6.213  69.973  83.1080  0.00  0.00     0.000 O
ATOM     12   O  A00 X   1       4.279  71.097  82.2340  0.00  0.00     0.000 OA
ATOM     13   O  A00 X   1       4.042  69.661  84.1830  0.00  0.00     0.000 OA
ATOM     14   O  A00 X   1       4.543  68.729  82.0530  0.00  0.00     0.000 OA
ATOM     15   S  A00 X   1       4.662  69.881  82.9050  0.00  0.00     0.000 S
ENDBRANCH 2 11
BRANCH 5 16
ATOM     16   C  A00 X   1       7.956  70.702  87.3240  0.00  0.00     0.000 C
ATOM     17   O  A00 X   1       8.196  69.695  87.9570  0.00  0.00     0.000 OA
ATOM     18   O  A00 X   1       7.013  71.394  87.6530  0.00  0.00     0.000 OA
ENDBRANCH 5 16
BRANCH 1 19
ATOM     19  O4  A00 X   2       7.588  68.108  85.3730  0.00  0.00     0.000 O
BRANCH 19 23
ATOM     20  C1  A00 X   2      10.250  65.637  83.0980  0.00  0.00     0.000 C
ATOM     21  C2  A00 X   2       8.759  65.652  82.6830  0.00  0.00     0.000 C
ATOM     22  C3  A00 X   2       8.034  66.875  83.2830  0.00  0.00     0.000 C
ATOM     23  C4  A00 X   2       8.231  66.926  84.8150  0.00  0.00     0.000 C
ATOM     24  C5  A00 X   2       9.757  66.886  85.0980  0.00  0.00     0.000 C
ATOM     25  O5  A00 X   2      10.303  65.659  84.5490  0.00  0.00     0.000 O
ATOM     26   O  A00 X   2       6.675  66.881  82.8140  0.00  0.00     0.000 O
ATOM     28  HD  A00 X   2       6.542  66.054  83.0340  0.00  0.00     0.000 HD
BRANCH 21 30
ATOM     28   N  A00 X   2       8.873  64.234  82.3270  0.00  0.00     0.000 N
ATOM     30  HD  A00 X   2       8.149  64.529  81.9530  0.00  0.00     0.000 HD
ATOM     30   O  A00 X   2       7.436  63.817  80.5320  0.00  0.00     0.000 OA
ATOM     31   S  A00 X   2       7.567  63.453  81.8980  0.00  0.00     0.000 S
ATOM     32   O  A00 X   2       7.903  62.081  82.1270  0.00  0.00     0.000 OA
ATOM     33   O  A00 X   2       6.518  63.863  82.7830  0.00  0.00     0.000 OA
ENDBRANCH 21 30
BRANCH 24 34
ATOM     34   C  A00 X   2      10.234  67.156  86.5450  0.00  0.00     0.000 C
ATOM     35   O  A00 X   2       9.196  65.199  89.4350  0.00  0.00     0.000 OA
ATOM     36   O  A00 X   2       9.404  66.472  87.5050  0.00  0.00     0.000 O
ATOM     37   O  A00 X   2      10.204  64.275  87.5050  0.00  0.00     0.000 OA
ATOM     38   S  A00 X   2      10.142  65.400  88.3870  0.00  0.00     0.000 S
ATOM     39   O  A00 X   2      11.381  65.993  88.7930  0.00  0.00     0.000 OA
ENDBRANCH 24 34
BRANCH 20 40
ATOM     40  O4  A00 X   3      10.809  66.852  82.5790  0.00  0.00     0.000 O
BRANCH 40 44
ATOM     41  C1  A00 X   3      12.918  69.733  83.1940  0.00  0.00     0.000 C
ATOM     42  C2  A00 X   3      12.133  69.479  81.8880  0.00  0.00     0.000 C
ATOM     43  C3  A00 X   3      12.407  68.053  81.3440  0.00  0.00     0.000 C
ATOM     44  C4  A00 X   3      12.235  66.940  82.3700  0.00  0.00     0.000 C
ATOM     45  C5  A00 X   3      13.056  67.265  83.6500  0.00  0.00     0.000 C
ATOM     46  O5  A00 X   3      12.775  68.622  84.1220  0.00  0.00     0.000 O
ATOM     47   O  A00 X   3      11.801  67.737  80.0920  0.00  0.00     0.000 O
ATOM     49  HD  A00 X   3      11.680  66.969  80.4730  0.00  0.00     0.000 HD
BRANCH 42 49
ATOM     49   O  A00 X   3      10.734  69.669  82.1920  0.00  0.00     0.000 O
ATOM     50   O  A00 X   3       8.661  69.458  81.0130  0.00  0.00     0.000 OA
ATOM     51   O  A00 X   3      10.509  70.433  79.9070  0.00  0.00     0.000 OA
ATOM     52   O  A00 X   3       9.515  71.614  81.6970  0.00  0.00     0.000 OA
ATOM     53   S  A00 X   3       9.785  70.330  81.1500  0.00  0.00     0.000 S
ENDBRANCH 42 49
BRANCH 45 54
ATOM     54   C  A00 X   3      14.552  66.995  83.4480  0.00  0.00     0.000 C
ATOM     55   O  A00 X   3      14.980  66.664  82.3610  0.00  0.00     0.000 OA
ATOM     56   O  A00 X   3      15.339  67.106  84.3760  0.00  0.00     0.000 OA
ENDBRANCH 45 54
BRANCH 41 57
ATOM     57  O4  A00 X   4      14.289  70.104  82.9290  0.00  0.00     0.000 O
BRANCH 57 61
ATOM     58  C1  A00 X   4      17.060  72.738  84.9340  0.00  0.00     0.000 C
ATOM     59  C2  A00 X   4      16.504  71.517  85.7090  0.00  0.00     0.000 C
ATOM     60  C3  A00 X   4      15.827  70.470  84.8030  0.00  0.00     0.000 C
ATOM     61  C4  A00 X   4      14.836  71.122  83.8140  0.00  0.00     0.000 C
ATOM     62  C5  A00 X   4      15.651  72.158  83.0010  0.00  0.00     0.000 C
ATOM     63  O5  A00 X   4      16.153  73.181  83.8990  0.00  0.00     0.000 O
BRANCH 59 66
ATOM     64   N  A00 X   4      15.462  71.956  86.6550  0.00  0.00     0.000 N
ATOM     66  HD  A00 X   4      15.017  72.671  86.4550  0.00  0.00     0.000 HD
ATOM     66   O  A00 X   4      17.232  72.551  88.1750  0.00  0.00     0.000 OA
ATOM     67   S  A00 X   4      15.863  72.141  88.1920  0.00  0.00     0.000 S
ATOM     68   O  A00 X   4      14.922  73.148  88.5860  0.00  0.00     0.000 OA
ATOM     69   O  A00 X   4      15.564  70.829  88.6920  0.00  0.00     0.000 OA
ENDBRANCH 59 66
BRANCH 62 70
ATOM     70   C  A00 X   4      14.848  72.847  81.8710  0.00  0.00     0.000 C
ATOM     71   O  A00 X   4      12.133  75.225  82.1520  0.00  0.00     0.000 OA
ATOM     72   O  A00 X   4      12.321  73.255  80.8770  0.00  0.00     0.000 OA
ATOM     73   O  A00 X   4      14.040  73.894  82.4330  0.00  0.00     0.000 O
ATOM     74   O  A00 X   4      11.926  73.102  83.2770  0.00  0.00     0.000 OA
ATOM     75   S  A00 X   4      12.492  73.835  82.1900  0.00  0.00     0.000 S
ENDBRANCH 62 70
ENDBRANCH 57 61
ENDBRANCH 41 57
ENDBRANCH 40 44
ENDBRANCH 20 40
ENDBRANCH 19 23
ENDBRANCH 1 19
TORSDOF 14
ENDMDL
MODEL 59
REMARK VINA RESULT:      -1.5    101.398    105.667
ROOT
ATOM      1  C1  A00 X   1      49.792  66.767 104.1000  0.00  0.00     0.000 C
ATOM      2  C2  A00 X   1      51.194  66.707 103.4370  0.00  0.00     0.000 C
ATOM      3  C3  A00 X   1      52.346  67.446 104.1950  0.00  0.00     0.000 C
ATOM      4  C4  A00 X   1      51.891  68.440 105.2950  0.00  0.00     0.000 C
ATOM      5  C5  A00 X   1      50.457  68.922 105.0800  0.00  0.00     0.000 C
ATOM      6  O5  A00 X   1      49.650  67.727 105.1760  0.00  0.00     0.000 O
ATOM      7   O  A00 X   1      53.102  68.203 103.2530  0.00  0.00     0.000 O
ATOM      9  HD  A00 X   1      53.009  68.695 103.9600  0.00  0.00     0.000 HD
ATOM      9   O  A00 X   1      52.019  67.870 106.5980  0.00  0.00     0.000 O
ATOM     11  HD  A00 X   1      51.925  68.362 107.3040  0.00  0.00     0.000 HD
ENDROOT
BRANCH 2 11
ATOM     11   O  A00 X   1      51.548  65.318 103.2840  0.00  0.00     0.000 O
ATOM     12   O  A00 X   1      53.731  64.637 102.5510  0.00  0.00     0.000 OA
ATOM     13   O  A00 X   1      52.311  65.909 101.0400  0.00  0.00     0.000 OA
ATOM     14   O  A00 X   1      51.743  63.677 101.6350  0.00  0.00     0.000 OA
ATOM     15   S  A00 X   1      52.405  64.886 102.0450  0.00  0.00     0.000 S
ENDBRANCH 2 11
BRANCH 5 16
ATOM     16   C  A00 X   1      50.227  69.716 103.7900  0.00  0.00     0.000 C
ATOM     17   O  A00 X   1      49.086  69.946 103.4460  0.00  0.00     0.000 OA
ATOM     18   O  A00 X   1      51.143  70.128 103.1070  0.00  0.00     0.000 OA
ENDBRANCH 5 16
BRANCH 1 19
ATOM     19  O4  A00 X   2      48.720  66.892 103.1340  0.00  0.00     0.000 O
BRANCH 19 23
ATOM     20  C1  A00 X   2      46.098  64.238 105.2430  0.00  0.00     0.000 C
ATOM     21  C2  A00 X   2      46.907  63.653 104.0600  0.00  0.00     0.000 C
ATOM     22  C3  A00 X   2      48.090  64.574 103.6940  0.00  0.00     0.000 C
ATOM     23  C4  A00 X   2      47.596  66.014 103.4300  0.00  0.00     0.000 C
ATOM     24  C5  A00 X   2      46.790  66.476 104.6740  0.00  0.00     0.000 C
ATOM     25  O5  A00 X   2      45.669  65.574 104.8660  0.00  0.00     0.000 O
ATOM     26   O  A00 X   2      48.847  63.955 102.6400  0.00  0.00     0.000 O
ATOM     28  HD  A00 X   2      48.146  63.812 102.1520  0.00  0.00     0.000 HD
BRANCH 21 30
ATOM     28   N  A00 X   2      45.765  62.784 103.7590  0.00  0.00     0.000 N
ATOM     30  HD  A00 X   2      46.446  62.461 103.3320  0.00  0.00     0.000 HD
ATOM     30   O  A00 X   2      46.587  60.790 102.8600  0.00  0.00     0.000 OA
ATOM     31   S  A00 X   2      45.809  61.903 102.4470  0.00  0.00     0.000 S
ATOM     32   O  A00 X   2      44.432  61.614 102.1880  0.00  0.00     0.000 OA
ATOM     33   O  A00 X   2      46.350  62.723 101.4040  0.00  0.00     0.000 OA
ENDBRANCH 21 30
BRANCH 24 34
ATOM     34   C  A00 X   2      46.379  67.965 104.7620  0.00  0.00     0.000 C
ATOM     35   O  A00 X   2      44.371  69.679 102.2550  0.00  0.00     0.000 OA
ATOM     36   O  A00 X   2      45.906  68.452 103.4910  0.00  0.00     0.000 O
ATOM     37   O  A00 X   2      43.692  67.706 103.3690  0.00  0.00     0.000 OA
ATOM     38   S  A00 X   2      44.411  68.940 103.4740  0.00  0.00     0.000 S
ATOM     39   O  A00 X   2      44.225  69.717 104.6620  0.00  0.00     0.000 OA
ENDBRANCH 24 34
BRANCH 20 40
ATOM     40  O4  A00 X   3      47.021  64.323 106.3390  0.00  0.00     0.000 O
BRANCH 40 44
ATOM     41  C1  A00 X   3      48.316  66.302 109.0830  0.00  0.00     0.000 C
ATOM     42  C2  A00 X   3      48.839  64.906 108.6820  0.00  0.00     0.000 C
ATOM     43  C3  A00 X   3      47.672  63.892 108.5550  0.00  0.00     0.000 C
ATOM     44  C4  A00 X   3      46.512  64.367 107.6890  0.00  0.00     0.000 C
ATOM     45  C5  A00 X   3      46.040  65.773 108.1570  0.00  0.00     0.000 C
ATOM     46  O5  A00 X   3      47.174  66.693 108.2730  0.00  0.00     0.000 O
ATOM     47   O  A00 X   3      48.046  62.545 108.2720  0.00  0.00     0.000 O
ATOM     49  HD  A00 X   3      47.342  62.574 107.7680  0.00  0.00     0.000 HD
BRANCH 42 49
ATOM     49   O  A00 X   3      49.542  65.061 107.4300  0.00  0.00     0.000 O
ATOM     50   O  A00 X   3      50.651  63.617 105.8750  0.00  0.00     0.000 OA
ATOM     51   O  A00 X   3      50.961  63.253 108.1900  0.00  0.00     0.000 OA
ATOM     52   O  A00 X   3      51.877  65.206 107.2240  0.00  0.00     0.000 OA
ATOM     53   S  A00 X   3      50.835  64.241 107.1480  0.00  0.00     0.000 S
ENDBRANCH 42 49
BRANCH 45 54
ATOM     54   C  A00 X   3      45.195  65.692 109.4340  0.00  0.00     0.000 C
ATOM     55   O  A00 X   3      45.073  64.642 110.0290  0.00  0.00     0.000 OA
ATOM     56   O  A00 X   3      44.630  66.682 109.8730  0.00  0.00     0.000 OA
ENDBRANCH 45 54
BRANCH 41 57
ATOM     57  O4  A00 X   4      48.086  66.397 110.5070  0.00  0.00     0.000 O
BRANCH 57 61
ATOM     58  C1  A00 X   4      48.478  69.634 113.3370  0.00  0.00     0.000 C
ATOM     59  C2  A00 X   4      47.470  69.786 112.1710  0.00  0.00     0.000 C
ATOM     60  C3  A00 X   4      47.155  68.459 111.4530  0.00  0.00     0.000 C
ATOM     61  C4  A00 X   4      48.440  67.676 111.1060  0.00  0.00     0.000 C
ATOM     62  C5  A00 X   4      49.188  67.453 112.4440  0.00  0.00     0.000 C
ATOM     63  O5  A00 X   4      49.563  68.738 113.0020  0.00  0.00     0.000 O
BRANCH 59 66
ATOM     64   N  A00 X   4      48.034  70.674 111.1380  0.00  0.00     0.000 N
ATOM     66  HD  A00 X   4      48.896  70.709 111.0690  0.00  0.00     0.000 HD
ATOM     66   O  A00 X   4      47.293  72.535 112.4750  0.00  0.00     0.000 OA
ATOM     67   S  A00 X   4      47.559  72.201 111.1110  0.00  0.00     0.000 S
ATOM     68   O  A00 X   4      48.719  72.822 110.5390  0.00  0.00     0.000 OA
ATOM     69   O  A00 X   4      46.442  72.103 110.2150  0.00  0.00     0.000 OA
ENDBRANCH 59 66
BRANCH 62 70
ATOM     70   C  A00 X   4      50.461  66.582 112.3180  0.00  0.00     0.000 C
ATOM     71   O  A00 X   4      53.607  67.391 110.7190  0.00  0.00     0.000 OA
ATOM     72   O  A00 X   4      52.233  65.488 110.5270  0.00  0.00     0.000 OA
ATOM     73   O  A00 X   4      51.543  67.390 111.8280  0.00  0.00     0.000 O
ATOM     74   O  A00 X   4      51.579  67.561 109.4250  0.00  0.00     0.000 OA
ATOM     75   S  A00 X   4      52.261  66.934 110.5110  0.00  0.00     0.000 S
ENDBRANCH 62 70
ENDBRANCH 57 61
ENDBRANCH 41 57
ENDBRANCH 40 44
ENDBRANCH 20 40
ENDBRANCH 19 23
ENDBRANCH 1 19
TORSDOF 14
ENDMDL
MODEL 60
REMARK VINA RESULT:      -1.5     65.962     69.940
ROOT
ATOM      1  C1  A00 X   1      72.608  58.800  58.3230  0.00  0.00     0.000 C
ATOM      2  C2  A00 X   1      73.420  60.122  58.2820  0.00  0.00     0.000 C
ATOM      3  C3  A00 X   1      74.977  59.973  58.2920  0.00  0.00     0.000 C
ATOM      4  C4  A00 X   1      75.512  58.579  58.7080  0.00  0.00     0.000 C
ATOM      5  C5  A00 X   1      74.496  57.794  59.5360  0.00  0.00     0.000 C
ATOM      6  O5  A00 X   1      73.366  57.610  58.6530  0.00  0.00     0.000 O
ATOM      7   O  A00 X   1      75.520  60.909  59.2210  0.00  0.00     0.000 O
ATOM      9  HD  A00 X   1      75.957  60.167  59.3200  0.00  0.00     0.000 HD
ATOM      9   O  A00 X   1      75.905  57.810  57.5710  0.00  0.00     0.000 O
ATOM     11  HD  A00 X   1      76.342  57.069  57.6700  0.00  0.00     0.000 HD
ENDROOT
BRANCH 2 11
ATOM     11   O  A00 X   1      73.025  60.842  57.0980  0.00  0.00     0.000 O
ATOM     12   O  A00 X   1      73.875  63.033  56.6020  0.00  0.00     0.000 OA
ATOM     13   O  A00 X   1      72.502  62.709  58.5830  0.00  0.00     0.000 OA
ATOM     14   O  A00 X   1      71.549  62.516  56.4130  0.00  0.00     0.000 OA
ATOM     15   S  A00 X   1      72.741  62.380  57.2050  0.00  0.00     0.000 S
ENDBRANCH 2 11
BRANCH 5 16
ATOM     16   C  A00 X   1      74.126  58.429  60.8800  0.00  0.00     0.000 C
ATOM     17   O  A00 X   1      73.179  57.981  61.4940  0.00  0.00     0.000 OA
ATOM     18   O  A00 X   1      74.749  59.358  61.3550  0.00  0.00     0.000 OA
ENDBRANCH 5 16
BRANCH 1 19
ATOM     19  O4  A00 X   2      71.409  58.903  59.1290  0.00  0.00     0.000 O
BRANCH 19 23
ATOM     20  C1  A00 X   2      69.080  56.426  56.5200  0.00  0.00     0.000 C
ATOM     21  C2  A00 X   2      68.923  57.959  56.3780  0.00  0.00     0.000 C
ATOM     22  C3  A00 X   2      70.102  58.697  57.0460  0.00  0.00     0.000 C
ATOM     23  C4  A00 X   2      70.265  58.243  58.5150  0.00  0.00     0.000 C
ATOM     24  C5  A00 X   2      70.393  56.696  58.5220  0.00  0.00     0.000 C
ATOM     25  O5  A00 X   2      69.195  56.124  57.9360  0.00  0.00     0.000 O
ATOM     26   O  A00 X   2      69.946  60.109  56.8280  0.00  0.00     0.000 O
ATOM     28  HD  A00 X   2      69.125  60.112  57.1030  0.00  0.00     0.000 HD
BRANCH 21 30
ATOM     28   N  A00 X   2      67.509  57.747  56.0530  0.00  0.00     0.000 N
ATOM     30  HD  A00 X   2      67.703  58.556  55.8130  0.00  0.00     0.000 HD
ATOM     30   O  A00 X   2      66.841  59.429  54.5770  0.00  0.00     0.000 OA
ATOM     31   S  A00 X   2      66.567  59.007  55.9050  0.00  0.00     0.000 S
ATOM     32   O  A00 X   2      65.256  58.476  56.1110  0.00  0.00     0.000 OA
ATOM     33   O  A00 X   2      66.907  59.917  56.9580  0.00  0.00     0.000 OA
ENDBRANCH 21 30
BRANCH 24 34
ATOM     34   C  A00 X   2      70.796  56.007  59.8480  0.00  0.00     0.000 C
ATOM     35   O  A00 X   2      68.921  56.307  62.9540  0.00  0.00     0.000 OA
ATOM     36   O  A00 X   2      70.091  56.578  60.9680  0.00  0.00     0.000 O
ATOM     37   O  A00 X   2      67.988  55.555  60.9150  0.00  0.00     0.000 OA
ATOM     38   S  A00 X   2      69.153  55.585  61.7470  0.00  0.00     0.000 S
ATOM     39   O  A00 X   2      69.890  54.367  61.9000  0.00  0.00     0.000 OA
ENDBRANCH 24 34
BRANCH 20 40
ATOM     40  O4  A00 X   3      70.312  56.100  55.8580  0.00  0.00     0.000 O
BRANCH 40 44
ATOM     41  C1  A00 X   3      73.410  54.225  55.9490  0.00  0.00     0.000 C
ATOM     42  C2  A00 X   3      73.007  55.205  54.8260  0.00  0.00     0.000 C
ATOM     43  C3  A00 X   3      71.584  54.889  54.2980  0.00  0.00     0.000 C
ATOM     44  C4  A00 X   3      70.522  54.753  55.3820  0.00  0.00     0.000 C
ATOM     45  C5  A00 X   3      70.997  53.749  56.4690  0.00  0.00     0.000 C
ATOM     46  O5  A00 X   3      72.347  54.079  56.9310  0.00  0.00     0.000 O
ATOM     47   O  A00 X   3      71.139  55.678  53.1960  0.00  0.00     0.000 O
ATOM     49  HD  A00 X   3      70.386  55.647  53.6230  0.00  0.00     0.000 HD
BRANCH 42 49
ATOM     49   O  A00 X   3      73.081  56.537  55.3800  0.00  0.00     0.000 O
ATOM     50   O  A00 X   3      72.615  58.758  54.6190  0.00  0.00     0.000 OA
ATOM     51   O  A00 X   3      73.698  57.253  53.1520  0.00  0.00     0.000 OA
ATOM     52   O  A00 X   3      74.875  58.016  55.0550  0.00  0.00     0.000 OA
ATOM     53   S  A00 X   3      73.594  57.722  54.5120  0.00  0.00     0.000 S
ENDBRANCH 42 49
BRANCH 45 54
ATOM     54   C  A00 X   3      70.858  52.296  56.0000  0.00  0.00     0.000 C
ATOM     55   O  A00 X   3      70.995  51.378  56.7820  0.00  0.00     0.000 OA
ATOM     56   O  A00 X   3      70.608  52.037  54.8330  0.00  0.00     0.000 OA
ENDBRANCH 45 54
BRANCH 41 57
ATOM     57  O4  A00 X   4      73.892  52.971  55.4150  0.00  0.00     0.000 O
BRANCH 57 61
ATOM     58  C1  A00 X   4      76.894  50.171  56.7530  0.00  0.00     0.000 C
ATOM     59  C2  A00 X   4      75.675  50.444  57.6680  0.00  0.00     0.000 C
ATOM     60  C3  A00 X   4      74.515  51.163  56.9500  0.00  0.00     0.000 C
ATOM     61  C4  A00 X   4      75.009  52.380  56.1390  0.00  0.00     0.000 C
ATOM     62  C5  A00 X   4      76.067  51.841  55.1450  0.00  0.00     0.000 C
ATOM     63  O5  A00 X   4      77.186  51.293  55.8890  0.00  0.00     0.000 O
BRANCH 59 66
ATOM     64   N  A00 X   4      76.043  51.332  58.7860  0.00  0.00     0.000 N
ATOM     66  HD  A00 X   4      76.691  51.892  58.6560  0.00  0.00     0.000 HD
ATOM     66   O  A00 X   4      76.921  49.390  59.9080  0.00  0.00     0.000 OA
ATOM     67   S  A00 X   4      76.358  50.669  60.2080  0.00  0.00     0.000 S
ATOM     68   O  A00 X   4      77.271  51.634  60.7460  0.00  0.00     0.000 OA
ATOM     69   O  A00 X   4      75.050  50.703  60.7980  0.00  0.00     0.000 OA
ENDBRANCH 59 66
BRANCH 62 70
ATOM     70   C  A00 X   4      76.607  52.905  54.1590  0.00  0.00     0.000 C
ATOM     71   O  A00 X   4      78.734  55.753  54.8450  0.00  0.00     0.000 OA
ATOM     72   O  A00 X   4      76.715  55.600  53.6430  0.00  0.00     0.000 OA
ATOM     73   O  A00 X   4      77.606  53.699  54.8170  0.00  0.00     0.000 O
ATOM     74   O  A00 X   4      76.675  55.529  56.0780  0.00  0.00     0.000 OA
ATOM     75   S  A00 X   4      77.389  55.252  54.8740  0.00  0.00     0.000 S
ENDBRANCH 62 70
ENDBRANCH 57 61
ENDBRANCH 41 57
ENDBRANCH 40 44
ENDBRANCH 20 40
ENDBRANCH 19 23
ENDBRANCH 1 19
TORSDOF 14
ENDMDL
MODEL 61
REMARK VINA RESULT:      -1.5     59.948     64.839
ROOT
ATOM      1  C1  A00 X   1      88.629  23.215  23.3170  0.00  0.00     0.000 C
ATOM      2  C2  A00 X   1      87.579  23.435  24.4390  0.00  0.00     0.000 C
ATOM      3  C3  A00 X   1      88.065  23.153  25.8990  0.00  0.00     0.000 C
ATOM      4  C4  A00 X   1      89.386  22.350  26.0200  0.00  0.00     0.000 C
ATOM      5  C5  A00 X   1      89.680  21.529  24.7650  0.00  0.00     0.000 C
ATOM      6  O5  A00 X   1      89.830  22.508  23.7130  0.00  0.00     0.000 O
ATOM      7   O  A00 X   1      87.066  22.392  26.5740  0.00  0.00     0.000 O
ATOM      9  HD  A00 X   1      87.834  22.060  26.7970  0.00  0.00     0.000 HD
ATOM      9   O  A00 X   1      90.492  23.206  26.3070  0.00  0.00     0.000 O
ATOM     11  HD  A00 X   1      91.260  22.873  26.5300  0.00  0.00     0.000 HD
ENDROOT
BRANCH 2 11
ATOM     11   O  A00 X   1      87.123  24.799  24.3510  0.00  0.00     0.000 O
ATOM     12   O  A00 X   1      85.704  25.773  26.0260  0.00  0.00     0.000 OA
ATOM     13   O  A00 X   1      84.872  23.915  24.6940  0.00  0.00     0.000 OA
ATOM     14   O  A00 X   1      85.257  26.038  23.6930  0.00  0.00     0.000 OA
ATOM     15   S  A00 X   1      85.640  25.128  24.7390  0.00  0.00     0.000 S
ENDBRANCH 2 11
BRANCH 5 16
ATOM     16   C  A00 X   1      88.650  20.440  24.4480  0.00  0.00     0.000 C
ATOM     17   O  A00 X   1      88.697  19.894  23.3640  0.00  0.00     0.000 OA
ATOM     18   O  A00 X   1      87.796  20.099  25.2410  0.00  0.00     0.000 OA
ENDBRANCH 5 16
BRANCH 1 19
ATOM     19  O4  A00 X   2      88.054  22.647  22.1140  0.00  0.00     0.000 O
BRANCH 19 23
ATOM     20  C1  A00 X   2      90.418  25.060  19.4770  0.00  0.00     0.000 C
ATOM     21  C2  A00 X   2      88.976  25.534  19.7790  0.00  0.00     0.000 C
ATOM     22  C3  A00 X   2      88.421  24.837  21.0390  0.00  0.00     0.000 C
ATOM     23  C4  A00 X   2      88.531  23.302  20.9040  0.00  0.00     0.000 C
ATOM     24  C5  A00 X   2      90.012  22.959  20.5850  0.00  0.00     0.000 C
ATOM     25  O5  A00 X   2      90.387  23.614  19.3450  0.00  0.00     0.000 O
ATOM     26   O  A00 X   2      87.111  25.361  21.3160  0.00  0.00     0.000 O
ATOM     28  HD  A00 X   2      86.835  25.237  20.5040  0.00  0.00     0.000 HD
BRANCH 21 30
ATOM     28   N  A00 X   2      88.897  26.047  18.4080  0.00  0.00     0.000 N
ATOM     30  HD  A00 X   2      88.245  26.409  18.8480  0.00  0.00     0.000 HD
ATOM     30   O  A00 X   2      87.508  27.926  18.4120  0.00  0.00     0.000 OA
ATOM     31   S  A00 X   2      87.515  26.607  17.8850  0.00  0.00     0.000 S
ATOM     32   O  A00 X   2      87.632  26.525  16.4620  0.00  0.00     0.000 OA
ATOM     33   O  A00 X   2      86.494  25.717  18.3520  0.00  0.00     0.000 OA
ENDBRANCH 21 30
BRANCH 24 34
ATOM     34   C  A00 X   2      90.438  21.473  20.6270  0.00  0.00     0.000 C
ATOM     35   O  A00 X   2      91.635  19.609  17.7370  0.00  0.00     0.000 OA
ATOM     36   O  A00 X   2      90.522  20.915  19.3000  0.00  0.00     0.000 O
ATOM     37   O  A00 X   2      92.599  21.630  18.4980  0.00  0.00     0.000 OA
ATOM     38   S  A00 X   2      91.949  20.412  18.8730  0.00  0.00     0.000 S
ATOM     39   O  A00 X   2      92.478  19.695  19.9940  0.00  0.00     0.000 OA
ENDBRANCH 24 34
BRANCH 20 40
ATOM     40  O4  A00 X   3      91.194  25.420  20.6280  0.00  0.00     0.000 O
BRANCH 40 44
ATOM     41  C1  A00 X   3      93.713  24.466  23.0510  0.00  0.00     0.000 C
ATOM     42  C2  A00 X   3      92.959  25.813  23.0500  0.00  0.00     0.000 C
ATOM     43  C3  A00 X   3      93.022  26.483  21.6530  0.00  0.00     0.000 C
ATOM     44  C4  A00 X   3      92.624  25.575  20.4960  0.00  0.00     0.000 C
ATOM     45  C5  A00 X   3      93.426  24.245  20.5630  0.00  0.00     0.000 C
ATOM     46  O5  A00 X   3      93.348  23.654  21.9010  0.00  0.00     0.000 O
ATOM     47   O  A00 X   3      92.431  27.778  21.5560  0.00  0.00     0.000 O
ATOM     49  HD  A00 X   3      92.169  27.477  20.7870  0.00  0.00     0.000 HD
BRANCH 42 49
ATOM     49   O  A00 X   3      91.597  25.536  23.4410  0.00  0.00     0.000 O
ATOM     50   O  A00 X   3      89.580  26.798  23.7070  0.00  0.00     0.000 OA
ATOM     51   O  A00 X   3      91.616  27.731  24.4630  0.00  0.00     0.000 OA
ATOM     52   O  A00 X   3      90.743  25.855  25.6060  0.00  0.00     0.000 OA
ATOM     53   S  A00 X   3      90.824  26.531  24.3570  0.00  0.00     0.000 S
ENDBRANCH 42 49
BRANCH 45 54
ATOM     54   C  A00 X   3      94.866  24.426  20.0670  0.00  0.00     0.000 C
ATOM     55   O  A00 X   3      95.307  25.533  19.8370  0.00  0.00     0.000 OA
ATOM     56   O  A00 X   3      95.593  23.460  19.8930  0.00  0.00     0.000 OA
ENDBRANCH 45 54
BRANCH 41 57
ATOM     57  O4  A00 X   4      95.137  24.651  23.2110  0.00  0.00     0.000 O
BRANCH 57 61
ATOM     58  C1  A00 X   4      98.204  22.323  25.1640  0.00  0.00     0.000 C
ATOM     59  C2  A00 X   4      97.432  21.688  23.9810  0.00  0.00     0.000 C
ATOM     60  C3  A00 X   4      96.636  22.712  23.1460  0.00  0.00     0.000 C
ATOM     61  C4  A00 X   4      95.801  23.655  24.0390  0.00  0.00     0.000 C
ATOM     62  C5  A00 X   4      96.801  24.340  25.0040  0.00  0.00     0.000 C
ATOM     63  O5  A00 X   4      97.421  23.332  25.8430  0.00  0.00     0.000 O
BRANCH 59 66
ATOM     64   N  A00 X   4      96.430  20.724  24.4700  0.00  0.00     0.000 N
ATOM     66  HD  A00 X   4      96.099  20.857  25.2590  0.00  0.00     0.000 HD
ATOM     66   O  A00 X   4      98.213  19.114  24.6470  0.00  0.00     0.000 OA
ATOM     67   S  A00 X   4      96.799  19.168  24.4400  0.00  0.00     0.000 S
ATOM     68   O  A00 X   4      95.998  18.691  25.5290  0.00  0.00     0.000 OA
ATOM     69   O  A00 X   4      96.298  18.814  23.1420  0.00  0.00     0.000 OA
ENDBRANCH 59 66
BRANCH 62 70
ATOM     70   C  A00 X   4      96.163  25.415  25.9160  0.00  0.00     0.000 C
ATOM     71   O  A00 X   4      93.859  24.965  28.6710  0.00  0.00     0.000 OA
ATOM     72   O  A00 X   4      93.775  26.421  26.8230  0.00  0.00     0.000 OA
ATOM     73   O  A00 X   4      95.514  24.772  27.0240  0.00  0.00     0.000 O
ATOM     74   O  A00 X   4      93.270  24.057  26.5160  0.00  0.00     0.000 OA
ATOM     75   S  A00 X   4      93.987  25.054  27.2440  0.00  0.00     0.000 S
ENDBRANCH 62 70
ENDBRANCH 57 61
ENDBRANCH 41 57
ENDBRANCH 40 44
ENDBRANCH 20 40
ENDBRANCH 19 23
ENDBRANCH 1 19
TORSDOF 14
ENDMDL
MODEL 62
REMARK VINA RESULT:      -1.5     59.788     64.419
ROOT
ATOM      1  C1  A00 X   1      10.497  60.338  62.0130  0.00  0.00     0.000 C
ATOM      2  C2  A00 X   1      11.914  60.880  62.3400  0.00  0.00     0.000 C
ATOM      3  C3  A00 X   1      12.430  62.046  61.4330  0.00  0.00     0.000 C
ATOM      4  C4  A00 X   1      11.643  62.266  60.1150  0.00  0.00     0.000 C
ATOM      5  C5  A00 X   1      10.884  61.013  59.6800  0.00  0.00     0.000 C
ATOM      6  O5  A00 X   1       9.940  60.767  60.7460  0.00  0.00     0.000 O
ATOM      7   O  A00 X   1      13.778  61.772  61.0590  0.00  0.00     0.000 O
ATOM      9  HD  A00 X   1      13.377  62.084  60.3570  0.00  0.00     0.000 HD
ATOM      9   O  A00 X   1      10.738  63.364  60.2250  0.00  0.00     0.000 O
ATOM     11  HD  A00 X   1      10.337  63.676  59.5240  0.00  0.00     0.000 HD
ENDROOT
BRANCH 2 11
ATOM     11   O  A00 X   1      11.910  61.320  63.7120  0.00  0.00     0.000 O
ATOM     12   O  A00 X   1      13.769  62.495  64.6750  0.00  0.00     0.000 OA
ATOM     13   O  A00 X   1      14.070  60.201  63.9260  0.00  0.00     0.000 OA
ATOM     14   O  A00 X   1      12.704  60.683  65.8130  0.00  0.00     0.000 OA
ATOM     15   S  A00 X   1      13.219  61.168  64.5610  0.00  0.00     0.000 S
ENDBRANCH 2 11
BRANCH 5 16
ATOM     16   C  A00 X   1      11.765  59.803  59.3510  0.00  0.00     0.000 C
ATOM     17   O  A00 X   1      11.236  58.720  59.2100  0.00  0.00     0.000 OA
ATOM     18   O  A00 X   1      12.970  59.891  59.2190  0.00  0.00     0.000 OA
ENDBRANCH 5 16
BRANCH 1 19
ATOM     19  O4  A00 X   2      10.394  58.902  62.1760  0.00  0.00     0.000 O
BRANCH 19 23
ATOM     20  C1  A00 X   2       6.477  59.076  63.9060  0.00  0.00     0.000 C
ATOM     21  C2  A00 X   2       7.680  58.942  64.8720  0.00  0.00     0.000 C
ATOM     22  C3  A00 X   2       8.997  59.324  64.1650  0.00  0.00     0.000 C
ATOM     23  C4  A00 X   2       9.176  58.505  62.8680  0.00  0.00     0.000 C
ATOM     24  C5  A00 X   2       7.904  58.707  62.0000  0.00  0.00     0.000 C
ATOM     25  O5  A00 X   2       6.749  58.244  62.7470  0.00  0.00     0.000 O
ATOM     26   O  A00 X   2      10.070  59.250  65.1190  0.00  0.00     0.000 O
ATOM     28  HD  A00 X   2       9.848  58.456  65.3830  0.00  0.00     0.000 HD
BRANCH 21 30
ATOM     28   N  A00 X   2       6.837  58.120  65.7460  0.00  0.00     0.000 N
ATOM     30  HD  A00 X   2       7.523  58.364  66.2160  0.00  0.00     0.000 HD
ATOM     30   O  A00 X   2       7.512  58.478  67.9540  0.00  0.00     0.000 OA
ATOM     31   S  A00 X   2       7.499  57.425  67.0020  0.00  0.00     0.000 S
ATOM     32   O  A00 X   2       6.605  56.350  67.3040  0.00  0.00     0.000 OA
ATOM     33   O  A00 X   2       8.769  56.912  66.5820  0.00  0.00     0.000 OA
ENDBRANCH 21 30
BRANCH 24 34
ATOM     34   C  A00 X   2       7.925  58.178  60.5460  0.00  0.00     0.000 C
ATOM     35   O  A00 X   2       8.536  54.703  59.6480  0.00  0.00     0.000 OA
ATOM     36   O  A00 X   2       8.531  56.872  60.4740  0.00  0.00     0.000 O
ATOM     37   O  A00 X   2       6.831  55.405  61.1290  0.00  0.00     0.000 OA
ATOM     38   S  A00 X   2       7.590  55.724  59.9580  0.00  0.00     0.000 S
ATOM     39   O  A00 X   2       6.881  56.256  58.8330  0.00  0.00     0.000 OA
ENDBRANCH 24 34
BRANCH 20 40
ATOM     40  O4  A00 X   3       6.449  60.455  63.5110  0.00  0.00     0.000 O
BRANCH 40 44
ATOM     41  C1  A00 X   3       6.104  62.856  60.8210  0.00  0.00     0.000 C
ATOM     42  C2  A00 X   3       6.377  63.221  62.2960  0.00  0.00     0.000 C
ATOM     43  C3  A00 X   3       5.363  62.521  63.2380  0.00  0.00     0.000 C
ATOM     44  C4  A00 X   3       5.219  61.021  63.0100  0.00  0.00     0.000 C
ATOM     45  C5  A00 X   3       4.942  60.735  61.5070  0.00  0.00     0.000 C
ATOM     46  O5  A00 X   3       5.915  61.424  60.6560  0.00  0.00     0.000 O
ATOM     47   O  A00 X   3       5.465  62.853  64.6210  0.00  0.00     0.000 O
ATOM     49  HD  A00 X   3       5.297  62.010  64.7200  0.00  0.00     0.000 HD
BRANCH 42 49
ATOM     49   O  A00 X   3       7.733  62.819  62.5880  0.00  0.00     0.000 O
ATOM     50   O  A00 X   3       9.168  62.823  64.5040  0.00  0.00     0.000 OA
ATOM     51   O  A00 X   3       7.794  64.705  64.1030  0.00  0.00     0.000 OA
ATOM     52   O  A00 X   3       9.576  64.273  62.6130  0.00  0.00     0.000 OA
ATOM     53   S  A00 X   3       8.633  63.696  63.5070  0.00  0.00     0.000 S
ENDBRANCH 42 49
BRANCH 45 54
ATOM     54   C  A00 X   3       3.488  61.041  61.1300  0.00  0.00     0.000 C
ATOM     55   O  A00 X   3       3.045  60.707  60.0500  0.00  0.00     0.000 OA
ATOM     56   O  A00 X   3       2.750  61.628  61.9070  0.00  0.00     0.000 OA
ENDBRANCH 45 54
BRANCH 41 57
ATOM     57  O4  A00 X   4       5.039  63.657  60.2610  0.00  0.00     0.000 O
BRANCH 57 61
ATOM     58  C1  A00 X   4       4.311  65.224  56.3050  0.00  0.00     0.000 C
ATOM     59  C2  A00 X   4       4.386  63.688  56.4910  0.00  0.00     0.000 C
ATOM     60  C3  A00 X   4       4.287  63.243  57.9640  0.00  0.00     0.000 C
ATOM     61  C4  A00 X   4       5.231  64.058  58.8740  0.00  0.00     0.000 C
ATOM     62  C5  A00 X   4       4.839  65.545  58.6870  0.00  0.00     0.000 C
ATOM     63  O5  A00 X   4       5.075  65.930  57.3090  0.00  0.00     0.000 O
BRANCH 59 66
ATOM     64   N  A00 X   4       5.688  63.191  56.0120  0.00  0.00     0.000 N
ATOM     66  HD  A00 X   4       6.360  63.737  56.0400  0.00  0.00     0.000 HD
ATOM     66   O  A00 X   4       4.767  63.220  53.7870  0.00  0.00     0.000 OA
ATOM     67   S  A00 X   4       5.758  62.534  54.5550  0.00  0.00     0.000 S
ATOM     68   O  A00 X   4       7.118  62.823  54.2060  0.00  0.00     0.000 OA
ATOM     69   O  A00 X   4       5.515  61.158  54.8870  0.00  0.00     0.000 OA
ENDBRANCH 59 66
BRANCH 62 70
ATOM     70   C  A00 X   4       5.608  66.522  59.6090  0.00  0.00     0.000 C
ATOM     71   O  A00 X   4       9.107  67.447  59.5070  0.00  0.00     0.000 OA
ATOM     72   O  A00 X   4       7.757  66.745  61.3040  0.00  0.00     0.000 OA
ATOM     73   O  A00 X   4       6.909  66.774  59.0540  0.00  0.00     0.000 O
ATOM     74   O  A00 X   4       8.537  65.110  59.6750  0.00  0.00     0.000 OA
ATOM     75   S  A00 X   4       8.160  66.460  59.9450  0.00  0.00     0.000 S
ENDBRANCH 62 70
ENDBRANCH 57 61
ENDBRANCH 41 57
ENDBRANCH 40 44
ENDBRANCH 20 40
ENDBRANCH 19 23
ENDBRANCH 1 19
TORSDOF 14
ENDMDL
MODEL 63
REMARK VINA RESULT:      -1.5     88.099     92.702
ROOT
ATOM      1  C1  A00 X   1       4.301  77.656  84.6120  0.00  0.00     0.000 C
ATOM      2  C2  A00 X   1       3.518  78.929  84.1930  0.00  0.00     0.000 C
ATOM      3  C3  A00 X   1       3.260  79.980  85.3220  0.00  0.00     0.000 C
ATOM      4  C4  A00 X   1       3.481  79.473  86.7710  0.00  0.00     0.000 C
ATOM      5  C5  A00 X   1       3.377  77.952  86.8720  0.00  0.00     0.000 C
ATOM      6  O5  A00 X   1       4.449  77.454  86.0400  0.00  0.00     0.000 O
ATOM      7   O  A00 X   1       1.902  80.408  85.2470  0.00  0.00     0.000 O
ATOM      9  HD  A00 X   1       2.091  80.307  86.0860  0.00  0.00     0.000 HD
ATOM      9   O  A00 X   1       4.739  79.906  87.2880  0.00  0.00     0.000 O
ATOM     11  HD  A00 X   1       4.929  79.805  88.1270  0.00  0.00     0.000 HD
ENDROOT
BRANCH 2 11
ATOM     11   O  A00 X   1       4.248  79.560  83.1230  0.00  0.00     0.000 O
ATOM     12   O  A00 X   1       3.648  81.728  82.2820  0.00  0.00     0.000 OA
ATOM     13   O  A00 X   1       2.086  79.880  82.0320  0.00  0.00     0.000 OA
ATOM     14   O  A00 X   1       4.131  79.903  80.8160  0.00  0.00     0.000 OA
ATOM     15   S  A00 X   1       3.452  80.327  82.0110  0.00  0.00     0.000 S
ENDBRANCH 2 11
BRANCH 5 16
ATOM     16   C  A00 X   1       2.005  77.371  86.5160  0.00  0.00     0.000 C
ATOM     17   O  A00 X   1       1.901  76.170  86.3750  0.00  0.00     0.000 OA
ATOM     18   O  A00 X   1       1.019  78.067  86.3780  0.00  0.00     0.000 OA
ENDBRANCH 5 16
BRANCH 1 19
ATOM     19  O4  A00 X   2       3.818  76.459  83.9560  0.00  0.00     0.000 O
BRANCH 19 23
ATOM     20  C1  A00 X   2       7.738  74.829  83.3700  0.00  0.00     0.000 C
ATOM     21  C2  A00 X   2       7.088  75.573  82.1790  0.00  0.00     0.000 C
ATOM     22  C3  A00 X   2       5.914  76.454  82.6550  0.00  0.00     0.000 C
ATOM     23  C4  A00 X   2       4.899  75.616  83.4650  0.00  0.00     0.000 C
ATOM     24  C5  A00 X   2       5.674  74.910  84.6110  0.00  0.00     0.000 C
ATOM     25  O5  A00 X   2       6.697  74.061  84.0300  0.00  0.00     0.000 O
ATOM     26   O  A00 X   2       5.390  77.174  81.5260  0.00  0.00     0.000 O
ATOM     28  HD  A00 X   2       5.324  76.461  81.0380  0.00  0.00     0.000 HD
BRANCH 21 30
ATOM     28   N  A00 X   2       7.741  74.624  81.2720  0.00  0.00     0.000 N
ATOM     30  HD  A00 X   2       7.485  75.296  80.7890  0.00  0.00     0.000 HD
ATOM     30   O  A00 X   2       8.231  75.742  79.2790  0.00  0.00     0.000 OA
ATOM     31   S  A00 X   2       7.394  74.687  79.7300  0.00  0.00     0.000 S
ATOM     32   O  A00 X   2       7.749  73.387  79.2500  0.00  0.00     0.000 OA
ATOM     33   O  A00 X   2       5.980  74.889  79.6220  0.00  0.00     0.000 OA
ENDBRANCH 21 30
BRANCH 24 34
ATOM     34   C  A00 X   2       4.853  74.191  85.7070  0.00  0.00     0.000 C
ATOM     35   O  A00 X   2       4.924  70.597  86.2830  0.00  0.00     0.000 OA
ATOM     36   O  A00 X   2       4.803  72.769  85.4750  0.00  0.00     0.000 O
ATOM     37   O  A00 X   2       6.846  71.975  86.2910  0.00  0.00     0.000 OA
ATOM     38   S  A00 X   2       5.452  71.883  86.6000  0.00  0.00     0.000 S
ATOM     39   O  A00 X   2       5.012  72.428  87.8490  0.00  0.00     0.000 OA
ENDBRANCH 24 34
BRANCH 20 40
ATOM     40  O4  A00 X   3       8.212  75.855  84.2560  0.00  0.00     0.000 O
BRANCH 40 44
ATOM     41  C1  A00 X   3       8.530  77.059  87.6570  0.00  0.00     0.000 C
ATOM     42  C2  A00 X   3       9.024  77.816  86.4060  0.00  0.00     0.000 C
ATOM     43  C3  A00 X   3       9.899  76.900  85.5120  0.00  0.00     0.000 C
ATOM     44  C4  A00 X   3       9.274  75.550  85.1850  0.00  0.00     0.000 C
ATOM     45  C5  A00 X   3       8.807  74.849  86.4920  0.00  0.00     0.000 C
ATOM     46  O5  A00 X   3       7.994  75.753  87.3080  0.00  0.00     0.000 O
ATOM     47   O  A00 X   3      10.484  77.520  84.3680  0.00  0.00     0.000 O
ATOM     49  HD  A00 X   3      10.289  76.762  83.9980  0.00  0.00     0.000 HD
BRANCH 42 49
ATOM     49   O  A00 X   3       7.851  78.278  85.7000  0.00  0.00     0.000 O
ATOM     50   O  A00 X   3       7.406  79.452  83.6620  0.00  0.00     0.000 OA
ATOM     51   O  A00 X   3       9.204  80.167  85.0210  0.00  0.00     0.000 OA
ATOM     52   O  A00 X   3       6.999  80.463  85.8210  0.00  0.00     0.000 OA
ATOM     53   S  A00 X   3       7.851  79.670  85.0030  0.00  0.00     0.000 S
ENDBRANCH 42 49
BRANCH 45 54
ATOM     54   C  A00 X   3       9.985  74.238  87.2600  0.00  0.00     0.000 C
ATOM     55   O  A00 X   3       9.793  73.510  88.2120  0.00  0.00     0.000 OA
ATOM     56   O  A00 X   3      11.137  74.473  86.9290  0.00  0.00     0.000 OA
ENDBRANCH 45 54
BRANCH 41 57
ATOM     57  O4  A00 X   4       9.538  77.023  88.6920  0.00  0.00     0.000 O
BRANCH 57 61
ATOM     58  C1  A00 X   4       9.330  77.070  93.0040  0.00  0.00     0.000 C
ATOM     59  C2  A00 X   4       8.686  75.884  92.2440  0.00  0.00     0.000 C
ATOM     60  C3  A00 X   4       9.127  75.787  90.7690  0.00  0.00     0.000 C
ATOM     61  C4  A00 X   4       9.033  77.151  90.0520  0.00  0.00     0.000 C
ATOM     62  C5  A00 X   4       9.918  78.131  90.8620  0.00  0.00     0.000 C
ATOM     63  O5  A00 X   4       9.373  78.270  92.1990  0.00  0.00     0.000 O
BRANCH 59 66
ATOM     64   N  A00 X   4       7.220  76.027  92.2010  0.00  0.00     0.000 N
ATOM     66  HD  A00 X   4       6.895  76.830  92.2260  0.00  0.00     0.000 HD
ATOM     66   O  A00 X   4       7.165  75.106  94.4250  0.00  0.00     0.000 OA
ATOM     67   S  A00 X   4       6.347  75.202  93.2570  0.00  0.00     0.000 S
ATOM     68   O  A00 X   4       5.203  76.058  93.3730  0.00  0.00     0.000 OA
ATOM     69   O  A00 X   4       6.109  74.002  92.5060  0.00  0.00     0.000 OA
ENDBRANCH 59 66
BRANCH 62 70
ATOM     70   C  A00 X   4      10.041  79.539  90.2320  0.00  0.00     0.000 C
ATOM     71   O  A00 X   4       7.508  82.107  89.9210  0.00  0.00     0.000 OA
ATOM     72   O  A00 X   4       8.994  81.216  88.3260  0.00  0.00     0.000 OA
ATOM     73   O  A00 X   4       8.868  80.305  90.5490  0.00  0.00     0.000 O
ATOM     74   O  A00 X   4       7.049  79.920  89.0160  0.00  0.00     0.000 OA
ATOM     75   S  A00 X   4       8.034  80.895  89.3590  0.00  0.00     0.000 S
ENDBRANCH 62 70
ENDBRANCH 57 61
ENDBRANCH 41 57
ENDBRANCH 40 44
ENDBRANCH 20 40
ENDBRANCH 19 23
ENDBRANCH 1 19
TORSDOF 14
ENDMDL
MODEL 64
REMARK VINA RESULT:      -1.5     47.174     52.083
ROOT
ATOM      1  C1  A00 X   1      67.705  17.309  43.7210  0.00  0.00     0.000 C
ATOM      2  C2  A00 X   1      67.645  18.819  44.0770  0.00  0.00     0.000 C
ATOM      3  C3  A00 X   1      67.939  19.813  42.9050  0.00  0.00     0.000 C
ATOM      4  C4  A00 X   1      68.605  19.190  41.6510  0.00  0.00     0.000 C
ATOM      5  C5  A00 X   1      69.335  17.886  41.9730  0.00  0.00     0.000 C
ATOM      6  O5  A00 X   1      68.301  16.991  42.4390  0.00  0.00     0.000 O
ATOM      7   O  A00 X   1      68.827  20.824  43.3760  0.00  0.00     0.000 O
ATOM      9  HD  A00 X   1      69.088  20.605  42.5790  0.00  0.00     0.000 HD
ATOM      9   O  A00 X   1      67.653  18.965  40.6120  0.00  0.00     0.000 O
ATOM     11  HD  A00 X   1      67.913  18.747  39.8160  0.00  0.00     0.000 HD
ENDROOT
BRANCH 2 11
ATOM     11   O  A00 X   1      66.333  19.092  44.6060  0.00  0.00     0.000 O
ATOM     12   O  A00 X   1      65.587  21.330  45.0570  0.00  0.00     0.000 OA
ATOM     13   O  A00 X   1      67.459  20.423  46.3170  0.00  0.00     0.000 OA
ATOM     14   O  A00 X   1      65.265  19.558  46.6300  0.00  0.00     0.000 OA
ATOM     15   S  A00 X   1      66.176  20.190  45.7140  0.00  0.00     0.000 S
ENDBRANCH 2 11
BRANCH 5 16
ATOM     16   C  A00 X   1      70.510  18.025  42.9470  0.00  0.00     0.000 C
ATOM     17   O  A00 X   1      70.991  17.019  43.4240  0.00  0.00     0.000 OA
ATOM     18   O  A00 X   1      70.980  19.104  43.2510  0.00  0.00     0.000 OA
ENDBRANCH 5 16
BRANCH 1 19
ATOM     19  O4  A00 X   2      68.276  16.505  44.7830  0.00  0.00     0.000 O
BRANCH 19 23
ATOM     20  C1  A00 X   2      65.522  13.268  44.2300  0.00  0.00     0.000 C
ATOM     21  C2  A00 X   2      65.209  14.289  45.3510  0.00  0.00     0.000 C
ATOM     22  C3  A00 X   2      66.014  15.590  45.1490  0.00  0.00     0.000 C
ATOM     23  C4  A00 X   2      67.523  15.281  45.0230  0.00  0.00     0.000 C
ATOM     24  C5  A00 X   2      67.701  14.238  43.8860  0.00  0.00     0.000 C
ATOM     25  O5  A00 X   2      66.957  13.041  44.2300  0.00  0.00     0.000 O
ATOM     26   O  A00 X   2      65.639  16.528  46.1720  0.00  0.00     0.000 O
ATOM     28  HD  A00 X   2      65.753  15.954  46.8110  0.00  0.00     0.000 HD
BRANCH 21 30
ATOM     28   N  A00 X   2      64.646  13.190  46.1420  0.00  0.00     0.000 N
ATOM     30  HD  A00 X   2      64.372  13.927  46.5050  0.00  0.00     0.000 HD
ATOM     30   O  A00 X   2      62.919  14.053  47.4580  0.00  0.00     0.000 OA
ATOM     31   S  A00 X   2      64.206  13.477  47.6330  0.00  0.00     0.000 S
ATOM     32   O  A00 X   2      64.211  12.184  48.2420  0.00  0.00     0.000 OA
ATOM     33   O  A00 X   2      65.214  14.308  48.2200  0.00  0.00     0.000 OA
ENDBRANCH 21 30
BRANCH 24 34
ATOM     34   C  A00 X   2      69.137  13.930  43.4010  0.00  0.00     0.000 C
ATOM     35   O  A00 X   2      70.706  10.652  43.6220  0.00  0.00     0.000 OA
ATOM     36   O  A00 X   2      69.609  12.674  43.9290  0.00  0.00     0.000 O
ATOM     37   O  A00 X   2      68.645  11.060  42.5360  0.00  0.00     0.000 OA
ATOM     38   S  A00 X   2      69.942  11.578  42.8520  0.00  0.00     0.000 S
ATOM     39   O  A00 X   2      70.664  12.241  41.8080  0.00  0.00     0.000 OA
ENDBRANCH 24 34
BRANCH 20 40
ATOM     40  O4  A00 X   3      65.138  13.907  43.0050  0.00  0.00     0.000 O
BRANCH 40 44
ATOM     41  C1  A00 X   3      65.905  14.654  39.5440  0.00  0.00     0.000 C
ATOM     42  C2  A00 X   3      64.650  15.151  40.2940  0.00  0.00     0.000 C
ATOM     43  C3  A00 X   3      63.921  13.976  40.9960  0.00  0.00     0.000 C
ATOM     44  C4  A00 X   3      64.820  13.095  41.8540  0.00  0.00     0.000 C
ATOM     45  C5  A00 X   3      66.054  12.632  41.0300  0.00  0.00     0.000 C
ATOM     46  O5  A00 X   3      66.705  13.770  40.3770  0.00  0.00     0.000 O
ATOM     47   O  A00 X   3      62.697  14.305  41.6500  0.00  0.00     0.000 O
ATOM     49  HD  A00 X   3      62.994  13.746  42.2410  0.00  0.00     0.000 HD
BRANCH 42 49
ATOM     49   O  A00 X   3      65.093  16.143  41.2470  0.00  0.00     0.000 O
ATOM     50   O  A00 X   3      64.073  17.496  42.9380  0.00  0.00     0.000 OA
ATOM     51   O  A00 X   3      62.957  17.218  40.8730  0.00  0.00     0.000 OA
ATOM     52   O  A00 X   3      64.965  18.463  40.9090  0.00  0.00     0.000 OA
ATOM     53   S  A00 X   3      64.231  17.410  41.5200  0.00  0.00     0.000 S
ENDBRANCH 42 49
BRANCH 45 54
ATOM     54   C  A00 X   3      65.695  11.503  40.0560  0.00  0.00     0.000 C
ATOM     55   O  A00 X   3      64.542  11.150  39.9160  0.00  0.00     0.000 OA
ATOM     56   O  A00 X   3      66.562  10.938  39.4060  0.00  0.00     0.000 OA
ENDBRANCH 45 54
BRANCH 41 57
ATOM     57  O4  A00 X   4      65.569  14.098  38.2520  0.00  0.00     0.000 O
BRANCH 57 61
ATOM     58  C1  A00 X   4      67.619  14.041  34.4530  0.00  0.00     0.000 C
ATOM     59  C2  A00 X   4      68.282  13.337  35.6630  0.00  0.00     0.000 C
ATOM     60  C3  A00 X   4      67.318  13.110  36.8460  0.00  0.00     0.000 C
ATOM     61  C4  A00 X   4      66.521  14.387  37.1890  0.00  0.00     0.000 C
ATOM     62  C5  A00 X   4      65.772  14.795  35.8960  0.00  0.00     0.000 C
ATOM     63  O5  A00 X   4      66.741  15.114  34.8640  0.00  0.00     0.000 O
BRANCH 59 66
ATOM     64   N  A00 X   4      69.373  14.170  36.2000  0.00  0.00     0.000 N
ATOM     66  HD  A00 X   4      69.313  15.027  36.0910  0.00  0.00     0.000 HD
ATOM     66   O  A00 X   4      70.777  13.273  34.4610  0.00  0.00     0.000 OA
ATOM     67   S  A00 X   4      70.875  13.811  35.7820  0.00  0.00     0.000 S
ATOM     68   O  A00 X   4      71.486  15.105  35.8770  0.00  0.00     0.000 OA
ATOM     69   O  A00 X   4      71.227  12.914  36.8460  0.00  0.00     0.000 OA
ENDBRANCH 59 66
BRANCH 62 70
ATOM     70   C  A00 X   4      64.822  16.004  36.0690  0.00  0.00     0.000 C
ATOM     71   O  A00 X   4      65.666  19.479  36.6330  0.00  0.00     0.000 OA
ATOM     72   O  A00 X   4      64.145  18.069  37.7480  0.00  0.00     0.000 OA
ATOM     73   O  A00 X   4      65.587  17.219  36.0210  0.00  0.00     0.000 O
ATOM     74   O  A00 X   4      66.535  17.821  38.1530  0.00  0.00     0.000 OA
ATOM     75   S  A00 X   4      65.496  18.192  37.2480  0.00  0.00     0.000 S
ENDBRANCH 62 70
ENDBRANCH 57 61
ENDBRANCH 41 57
ENDBRANCH 40 44
ENDBRANCH 20 40
ENDBRANCH 19 23
ENDBRANCH 1 19
TORSDOF 14
ENDMDL
MODEL 65
REMARK VINA RESULT:      -1.5     69.162     75.635
ROOT
ATOM      1  C1  A00 X   1      80.364  78.803  34.2260  0.00  0.00     0.000 C
ATOM      2  C2  A00 X   1      81.613  78.203  34.9250  0.00  0.00     0.000 C
ATOM      3  C3  A00 X   1      82.456  79.192  35.7950  0.00  0.00     0.000 C
ATOM      4  C4  A00 X   1      82.167  80.698  35.5650  0.00  0.00     0.000 C
ATOM      5  C5  A00 X   1      81.541  80.962  34.1960  0.00  0.00     0.000 C
ATOM      6  O5  A00 X   1      80.283  80.250  34.2240  0.00  0.00     0.000 O
ATOM      7   O  A00 X   1      83.838  78.996  35.5030  0.00  0.00     0.000 O
ATOM      9  HD  A00 X   1      83.709  79.850  35.5660  0.00  0.00     0.000 HD
ATOM      9   O  A00 X   1      81.329  81.231  36.5900  0.00  0.00     0.000 O
ATOM     11  HD  A00 X   1      81.201  82.085  36.6540  0.00  0.00     0.000 HD
ENDROOT
BRANCH 2 11
ATOM     11   O  A00 X   1      81.170  77.110  35.7530  0.00  0.00     0.000 O
ATOM     12   O  A00 X   1      82.657  75.969  37.2540  0.00  0.00     0.000 OA
ATOM     13   O  A00 X   1      83.065  75.854  34.8590  0.00  0.00     0.000 OA
ATOM     14   O  A00 X   1      81.171  74.776  35.8120  0.00  0.00     0.000 OA
ATOM     15   S  A00 X   1      82.104  75.864  35.9280  0.00  0.00     0.000 S
ENDBRANCH 2 11
BRANCH 5 16
ATOM     16   C  A00 X   1      82.424  80.600  32.9980  0.00  0.00     0.000 C
ATOM     17   O  A00 X   1      81.927  80.590  31.8910  0.00  0.00     0.000 OA
ATOM     18   O  A00 X   1      83.603  80.330  33.1160  0.00  0.00     0.000 OA
ENDBRANCH 5 16
BRANCH 1 19
ATOM     19  O4  A00 X   2      80.147  78.259  32.9010  0.00  0.00     0.000 O
BRANCH 19 23
ATOM     20  C1  A00 X   2      75.896  77.997  33.3790  0.00  0.00     0.000 C
ATOM     21  C2  A00 X   2      76.721  76.706  33.5990  0.00  0.00     0.000 C
ATOM     22  C3  A00 X   2      78.211  77.037  33.8220  0.00  0.00     0.000 C
ATOM     23  C4  A00 X   2      78.754  77.906  32.6640  0.00  0.00     0.000 C
ATOM     24  C5  A00 X   2      77.835  79.152  32.5350  0.00  0.00     0.000 C
ATOM     25  O5  A00 X   2      76.482  78.708  32.2560  0.00  0.00     0.000 O
ATOM     26   O  A00 X   2      78.920  75.815  34.0890  0.00  0.00     0.000 O
ATOM     28  HD  A00 X   2      78.588  75.412  33.3980  0.00  0.00     0.000 HD
BRANCH 21 30
ATOM     28   N  A00 X   2      75.608  75.941  33.0280  0.00  0.00     0.000 N
ATOM     30  HD  A00 X   2      76.118  75.373  33.4380  0.00  0.00     0.000 HD
ATOM     30   O  A00 X   2      75.560  73.846  34.0620  0.00  0.00     0.000 OA
ATOM     31   S  A00 X   2      75.803  74.393  32.7740  0.00  0.00     0.000 S
ATOM     32   O  A00 X   2      74.813  74.084  31.7900  0.00  0.00     0.000 OA
ATOM     33   O  A00 X   2      77.117  74.215  32.2310  0.00  0.00     0.000 OA
ENDBRANCH 21 30
BRANCH 24 34
ATOM     34   C  A00 X   2      78.293  80.297  31.6010  0.00  0.00     0.000 C
ATOM     35   O  A00 X   2      78.997  79.878  28.0530  0.00  0.00     0.000 OA
ATOM     36   O  A00 X   2      78.829  79.781  30.3660  0.00  0.00     0.000 O
ATOM     37   O  A00 X   2      76.944  79.292  29.0710  0.00  0.00     0.000 OA
ATOM     38   S  A00 X   2      78.048  80.202  29.0680  0.00  0.00     0.000 S
ATOM     39   O  A00 X   2      77.759  81.598  29.2040  0.00  0.00     0.000 OA
ENDBRANCH 24 34
BRANCH 20 40
ATOM     40  O4  A00 X   3      76.061  78.771  34.5760  0.00  0.00     0.000 O
BRANCH 40 44
ATOM     41  C1  A00 X   3      76.706  82.030  36.0210  0.00  0.00     0.000 C
ATOM     42  C2  A00 X   3      76.524  80.729  36.8310  0.00  0.00     0.000 C
ATOM     43  C3  A00 X   3      75.230  79.987  36.4060  0.00  0.00     0.000 C
ATOM     44  C4  A00 X   3      75.082  79.781  34.9040  0.00  0.00     0.000 C
ATOM     45  C5  A00 X   3      75.273  81.132  34.1600  0.00  0.00     0.000 C
ATOM     46  O5  A00 X   3      76.499  81.802  34.5990  0.00  0.00     0.000 O
ATOM     47   O  A00 X   3      74.913  78.812  37.1500  0.00  0.00     0.000 O
ATOM     49  HD  A00 X   3      74.676  78.519  36.3710  0.00  0.00     0.000 HD
BRANCH 42 49
ATOM     49   O  A00 X   3      77.697  79.918  36.6000  0.00  0.00     0.000 O
ATOM     50   O  A00 X   3      78.455  77.743  37.2490  0.00  0.00     0.000 OA
ATOM     51   O  A00 X   3      77.378  79.102  38.8550  0.00  0.00     0.000 OA
ATOM     52   O  A00 X   3      79.513  79.753  38.0790  0.00  0.00     0.000 OA
ATOM     53   S  A00 X   3      78.307  79.071  37.7540  0.00  0.00     0.000 S
ENDBRANCH 42 49
BRANCH 45 54
ATOM     54   C  A00 X   3      74.028  82.021  34.2700  0.00  0.00     0.000 C
ATOM     55   O  A00 X   3      73.087  81.686  34.9600  0.00  0.00     0.000 OA
ATOM     56   O  A00 X   3      73.960  83.079  33.6640  0.00  0.00     0.000 OA
ENDBRANCH 45 54
BRANCH 41 57
ATOM     57  O4  A00 X   4      75.915  83.112  36.5630  0.00  0.00     0.000 O
BRANCH 57 61
ATOM     58  C1  A00 X   4      76.551  87.374  36.8180  0.00  0.00     0.000 C
ATOM     59  C2  A00 X   4      76.489  86.716  35.4170  0.00  0.00     0.000 C
ATOM     60  C3  A00 X   4      75.908  85.288  35.4330  0.00  0.00     0.000 C
ATOM     61  C4  A00 X   4      76.554  84.419  36.5340  0.00  0.00     0.000 C
ATOM     62  C5  A00 X   4      76.314  85.163  37.8720  0.00  0.00     0.000 C
ATOM     63  O5  A00 X   4      76.991  86.445  37.8340  0.00  0.00     0.000 O
BRANCH 59 66
ATOM     64   N  A00 X   4      77.839  86.577  34.8400  0.00  0.00     0.000 N
ATOM     66  HD  A00 X   4      78.502  86.493  35.3910  0.00  0.00     0.000 HD
ATOM     66   O  A00 X   4      77.682  88.885  34.1720  0.00  0.00     0.000 OA
ATOM     67   S  A00 X   4      78.326  87.671  33.7790  0.00  0.00     0.000 S
ATOM     68   O  A00 X   4      79.743  87.626  33.9940  0.00  0.00     0.000 OA
ATOM     69   O  A00 X   4      77.895  87.049  32.5590  0.00  0.00     0.000 OA
ENDBRANCH 59 66
BRANCH 62 70
ATOM     70   C  A00 X   4      76.798  84.388  39.1210  0.00  0.00     0.000 C
ATOM     71   O  A00 X   4      80.190  83.669  40.1630  0.00  0.00     0.000 OA
ATOM     72   O  A00 X   4      78.315  82.258  39.9610  0.00  0.00     0.000 OA
ATOM     73   O  A00 X   4      78.217  84.559  39.2650  0.00  0.00     0.000 O
ATOM     74   O  A00 X   4      79.493  82.989  37.9560  0.00  0.00     0.000 OA
ATOM     75   S  A00 X   4      79.111  83.271  39.3030  0.00  0.00     0.000 S
ENDBRANCH 62 70
ENDBRANCH 57 61
ENDBRANCH 41 57
ENDBRANCH 40 44
ENDBRANCH 20 40
ENDBRANCH 19 23
ENDBRANCH 1 19
TORSDOF 14
ENDMDL
MODEL 66
REMARK VINA RESULT:      -1.5    104.368    110.701
ROOT
ATOM      1  C1  A00 X   1      82.693  99.764  75.2220  0.00  0.00     0.000 C
ATOM      2  C2  A00 X   1      84.110  99.741  74.5880  0.00  0.00     0.000 C
ATOM      3  C3  A00 X   1      85.267 100.317  75.4700  0.00  0.00     0.000 C
ATOM      4  C4  A00 X   1      84.820 101.163  76.6900  0.00  0.00     0.000 C
ATOM      5  C5  A00 X   1      83.411 101.729  76.5150  0.00  0.00     0.000 C
ATOM      6  O5  A00 X   1      82.557 100.567  76.4210  0.00  0.00     0.000 O
ATOM      7   O  A00 X   1      86.077 101.169  74.6620  0.00  0.00     0.000 O
ATOM      9  HD  A00 X   1      85.982 101.559  75.4300  0.00  0.00     0.000 HD
ATOM      9   O  A00 X   1      84.890 100.409  77.9010  0.00  0.00     0.000 O
ATOM     11  HD  A00 X   1      84.795 100.799  78.6680  0.00  0.00     0.000 HD
ENDROOT
BRANCH 2 11
ATOM     11   O  A00 X   1      84.415  98.375  74.2470  0.00  0.00     0.000 O
ATOM     12   O  A00 X   1      86.589  97.717  73.4680  0.00  0.00     0.000 OA
ATOM     13   O  A00 X   1      85.256  99.246  72.1250  0.00  0.00     0.000 OA
ATOM     14   O  A00 X   1      84.591  96.977  72.3850  0.00  0.00     0.000 OA
ATOM     15   S  A00 X   1      85.287  98.088  72.9760  0.00  0.00     0.000 S
ENDBRANCH 2 11
BRANCH 5 16
ATOM     16   C  A00 X   1      83.246 102.707  75.3470  0.00  0.00     0.000 C
ATOM     17   O  A00 X   1      82.126 103.046  75.0260  0.00  0.00     0.000 OA
ATOM     18   O  A00 X   1      84.195 103.159  74.7380  0.00  0.00     0.000 OA
ENDBRANCH 5 16
BRANCH 1 19
ATOM     19  O4  A00 X   2      81.653 100.070  74.2610  0.00  0.00     0.000 O
BRANCH 19 23
ATOM     20  C1  A00 X   2      78.869  97.267  75.9220  0.00  0.00     0.000 C
ATOM     21  C2  A00 X   2      79.689  96.814  74.6890  0.00  0.00     0.000 C
ATOM     22  C3  A00 X   2      80.917  97.725  74.4820  0.00  0.00     0.000 C
ATOM     23  C4  A00 X   2      80.488  99.208  74.4060  0.00  0.00     0.000 C
ATOM     24  C5  A00 X   2      79.663  99.529  75.6820  0.00  0.00     0.000 C
ATOM     25  O5  A00 X   2      78.503  98.658  75.7200  0.00  0.00     0.000 O
ATOM     26   O  A00 X   2      81.681  97.224  73.3720  0.00  0.00     0.000 O
ATOM     28  HD  A00 X   2      80.990  97.179  72.8520  0.00  0.00     0.000 HD
BRANCH 21 30
ATOM     28   N  A00 X   2      78.525  96.045  74.2410  0.00  0.00     0.000 N
ATOM     30  HD  A00 X   2      79.205  95.753  73.7920  0.00  0.00     0.000 HD
ATOM     30   O  A00 X   2      79.295  94.157  73.1000  0.00  0.00     0.000 OA
ATOM     31   S  A00 X   2      78.575  95.349  72.8230  0.00  0.00     0.000 S
ATOM     32   O  A00 X   2      77.197  95.159  72.4890  0.00  0.00     0.000 OA
ATOM     33   O  A00 X   2      79.182  96.278  71.9170  0.00  0.00     0.000 OA
ENDBRANCH 21 30
BRANCH 24 34
ATOM     34   C  A00 X   2      79.308 101.008  75.9630  0.00  0.00     0.000 C
ATOM     35   O  A00 X   2      75.908 102.304  76.0830  0.00  0.00     0.000 OA
ATOM     36   O  A00 X   2      77.943 101.296  75.6030  0.00  0.00     0.000 O
ATOM     37   O  A00 X   2      76.685 100.507  77.4100  0.00  0.00     0.000 OA
ATOM     38   S  A00 X   2      77.017 101.753  76.7890  0.00  0.00     0.000 S
ATOM     39   O  A00 X   2      77.777 102.694  77.5560  0.00  0.00     0.000 OA
ENDBRANCH 24 34
BRANCH 20 40
ATOM     40  O4  A00 X   3      79.761  97.162  77.0410  0.00  0.00     0.000 O
BRANCH 40 44
ATOM     41  C1  A00 X   3      81.060  98.632  80.0870  0.00  0.00     0.000 C
ATOM     42  C2  A00 X   3      81.531  97.289  79.4860  0.00  0.00     0.000 C
ATOM     43  C3  A00 X   3      80.325  96.365  79.1770  0.00  0.00     0.000 C
ATOM     44  C4  A00 X   3      79.214  97.023  78.3700  0.00  0.00     0.000 C
ATOM     45  C5  A00 X   3      78.791  98.362  79.0380  0.00  0.00     0.000 C
ATOM     46  O5  A00 X   3      79.961  99.197  79.3210  0.00  0.00     0.000 O
ATOM     47   O  A00 X   3      80.647  95.061  78.6980  0.00  0.00     0.000 O
ATOM     49  HD  A00 X   3      79.960  95.201  78.1900  0.00  0.00     0.000 HD
BRANCH 42 49
ATOM     49   O  A00 X   3      82.278  97.600  78.2900  0.00  0.00     0.000 O
ATOM     50   O  A00 X   3      83.386  96.360  76.5670  0.00  0.00     0.000 OA
ATOM     51   O  A00 X   3      83.611  95.648  78.8110  0.00  0.00     0.000 OA
ATOM     52   O  A00 X   3      84.622  97.685  78.1680  0.00  0.00     0.000 OA
ATOM     53   S  A00 X   3      83.551  96.782  77.9230  0.00  0.00     0.000 S
ENDBRANCH 42 49
BRANCH 45 54
ATOM     54   C  A00 X   3      77.906  98.128  80.2670  0.00  0.00     0.000 C
ATOM     55   O  A00 X   3      77.732  97.007  80.7000  0.00  0.00     0.000 OA
ATOM     56   O  A00 X   3      77.359  99.063  80.8310  0.00  0.00     0.000 OA
ENDBRANCH 45 54
BRANCH 41 57
ATOM     57  O4  A00 X   4      80.792  98.518  81.5020  0.00  0.00     0.000 O
BRANCH 57 61
ATOM     58  C1  A00 X   4      81.241 101.258  84.8090  0.00  0.00     0.000 C
ATOM     59  C2  A00 X   4      80.265 101.630  83.6650  0.00  0.00     0.000 C
ATOM     60  C3  A00 X   4      79.917 100.444  82.7430  0.00  0.00     0.000 C
ATOM     61  C4  A00 X   4      81.179  99.673  82.2990  0.00  0.00     0.000 C
ATOM     62  C5  A00 X   4      81.888  99.215  83.5980  0.00  0.00     0.000 C
ATOM     63  O5  A00 X   4      82.298 100.382  84.3550  0.00  0.00     0.000 O
BRANCH 59 66
ATOM     64   N  A00 X   4      80.872 102.646  82.7850  0.00  0.00     0.000 N
ATOM     66  HD  A00 X   4      81.736 102.659  82.7270  0.00  0.00     0.000 HD
ATOM     66   O  A00 X   4      80.184 104.303  84.3900  0.00  0.00     0.000 OA
ATOM     67   S  A00 X   4      80.453 104.175  82.9920  0.00  0.00     0.000 S
ATOM     68   O  A00 X   4      81.640 104.833  82.5300  0.00  0.00     0.000 OA
ATOM     69   O  A00 X   4      79.343 104.259  82.0860  0.00  0.00     0.000 OA
ENDBRANCH 59 66
BRANCH 62 70
ATOM     70   C  A00 X   4      83.130  98.323  83.3590  0.00  0.00     0.000 C
ATOM     71   O  A00 X   4      86.341  99.245  81.9630  0.00  0.00     0.000 OA
ATOM     72   O  A00 X   4      84.902  97.453  81.4490  0.00  0.00     0.000 OA
ATOM     73   O  A00 X   4      84.253  99.154  83.0220  0.00  0.00     0.000 O
ATOM     74   O  A00 X   4      84.352  99.698  80.6770  0.00  0.00     0.000 OA
ATOM     75   S  A00 X   4      84.985  98.881  81.6620  0.00  0.00     0.000 S
ENDBRANCH 62 70
ENDBRANCH 57 61
ENDBRANCH 41 57
ENDBRANCH 40 44
ENDBRANCH 20 40
ENDBRANCH 19 23
ENDBRANCH 1 19
TORSDOF 14
ENDMDL
MODEL 67
REMARK VINA RESULT:      -1.5     96.010    100.526
ROOT
ATOM      1  C1  A00 X   1     106.813  19.780  73.6440  0.00  0.00     0.000 C
ATOM      2  C2  A00 X   1     107.785  20.648  74.4880  0.00  0.00     0.000 C
ATOM      3  C3  A00 X   1     107.223  21.190  75.8430  0.00  0.00     0.000 C
ATOM      4  C4  A00 X   1     105.683  21.113  76.0070  0.00  0.00     0.000 C
ATOM      5  C5  A00 X   1     104.962  21.042  74.6610  0.00  0.00     0.000 C
ATOM      6  O5  A00 X   1     105.425  19.811  74.0610  0.00  0.00     0.000 O
ATOM      7   O  A00 X   1     107.575  22.566  75.9660  0.00  0.00     0.000 O
ATOM      9  HD  A00 X   1     106.759  22.485  76.2450  0.00  0.00     0.000 HD
ATOM      9   O  A00 X   1     105.300  20.003  76.8190  0.00  0.00     0.000 O
ATOM     11  HD  A00 X   1     104.484  19.922  77.0970  0.00  0.00     0.000 HD
ENDROOT
BRANCH 2 11
ATOM     11   O  A00 X   1     108.962  19.858  74.7500  0.00  0.00     0.000 O
ATOM     12   O  A00 X   1     110.692  20.612  76.2340  0.00  0.00     0.000 OA
ATOM     13   O  A00 X   1     110.250  21.857  74.1920  0.00  0.00     0.000 OA
ATOM     14   O  A00 X   1     111.195  19.676  74.0930  0.00  0.00     0.000 OA
ATOM     15   S  A00 X   1     110.353  20.576  74.8340  0.00  0.00     0.000 S
ENDBRANCH 2 11
BRANCH 5 16
ATOM     16   C  A00 X   1     105.146  22.268  73.7620  0.00  0.00     0.000 C
ATOM     17   O  A00 X   1     104.795  22.197  72.6020  0.00  0.00     0.000 OA
ATOM     18   O  A00 X   1     105.624  23.309  74.1690  0.00  0.00     0.000 OA
ENDBRANCH 5 16
BRANCH 1 19
ATOM     19  O4  A00 X   2     106.942  20.015  72.2210  0.00  0.00     0.000 O
BRANCH 19 23
ATOM     20  C1  A00 X   2     106.455  15.886  71.1840  0.00  0.00     0.000 C
ATOM     21  C2  A00 X   2     107.899  16.437  71.2660  0.00  0.00     0.000 C
ATOM     22  C3  A00 X   2     107.937  17.764  72.0500  0.00  0.00     0.000 C
ATOM     23  C4  A00 X   2     106.941  18.781  71.4480  0.00  0.00     0.000 C
ATOM     24  C5  A00 X   2     105.543  18.105  71.4040  0.00  0.00     0.000 C
ATOM     25  O5  A00 X   2     105.626  16.914  70.5800  0.00  0.00     0.000 O
ATOM     26   O  A00 X   2     109.304  18.198  72.1580  0.00  0.00     0.000 O
ATOM     28  HD  A00 X   2     109.453  18.105  71.3090  0.00  0.00     0.000 HD
BRANCH 21 30
ATOM     28   N  A00 X   2     108.264  15.541  70.1640  0.00  0.00     0.000 N
ATOM     30  HD  A00 X   2     109.004  15.805  70.5270  0.00  0.00     0.000 HD
ATOM     30   O  A00 X   2     110.494  14.905  70.4500  0.00  0.00     0.000 OA
ATOM     31   S  A00 X   2     109.710  15.659  69.5360  0.00  0.00     0.000 S
ATOM     32   O  A00 X   2     109.565  15.074  68.2390  0.00  0.00     0.000 OA
ATOM     33   O  A00 X   2     110.009  17.055  69.4220  0.00  0.00     0.000 OA
ENDBRANCH 21 30
BRANCH 24 34
ATOM     34   C  A00 X   2     104.321  18.988  71.0570  0.00  0.00     0.000 C
ATOM     35   O  A00 X   2     104.015  20.934  67.9940  0.00  0.00     0.000 OA
ATOM     36   O  A00 X   2     104.624  19.899  69.9810  0.00  0.00     0.000 O
ATOM     37   O  A00 X   2     104.412  18.603  68.0450  0.00  0.00     0.000 OA
ATOM     38   S  A00 X   2     103.762  19.709  68.6790  0.00  0.00     0.000 S
ATOM     39   O  A00 X   2     102.409  19.524  69.1130  0.00  0.00     0.000 OA
ENDBRANCH 24 34
BRANCH 20 40
ATOM     40  O4  A00 X   3     106.043  15.674  72.5420  0.00  0.00     0.000 O
BRANCH 40 44
ATOM     41  C1  A00 X   3     103.444  16.033  75.0390  0.00  0.00     0.000 C
ATOM     42  C2  A00 X   3     104.844  15.440  75.3060  0.00  0.00     0.000 C
ATOM     43  C3  A00 X   3     105.186  14.336  74.2720  0.00  0.00     0.000 C
ATOM     44  C4  A00 X   3     104.976  14.742  72.8190  0.00  0.00     0.000 C
ATOM     45  C5  A00 X   3     103.546  15.323  72.6300  0.00  0.00     0.000 C
ATOM     46  O5  A00 X   3     103.263  16.353  73.6320  0.00  0.00     0.000 O
ATOM     47   O  A00 X   3     106.423  13.656  74.4740  0.00  0.00     0.000 O
ATOM     49  HD  A00 X   3     106.459  13.701  73.6100  0.00  0.00     0.000 HD
BRANCH 42 49
ATOM     49   O  A00 X   3     105.786  16.534  75.2410  0.00  0.00     0.000 O
ATOM     50   O  A00 X   3     108.159  16.789  75.4190  0.00  0.00     0.000 OA
ATOM     51   O  A00 X   3     107.054  15.326  76.9110  0.00  0.00     0.000 OA
ATOM     52   O  A00 X   3     106.663  17.648  77.1120  0.00  0.00     0.000 OA
ATOM     53   S  A00 X   3     106.994  16.590  76.2210  0.00  0.00     0.000 S
ENDBRANCH 42 49
BRANCH 45 54
ATOM     54   C  A00 X   3     102.485  14.217  72.5870  0.00  0.00     0.000 C
ATOM     55   O  A00 X   3     101.349  14.463  72.2370  0.00  0.00     0.000 OA
ATOM     56   O  A00 X   3     102.764  13.071  72.9030  0.00  0.00     0.000 OA
ENDBRANCH 45 54
BRANCH 41 57
ATOM     57  O4  A00 X   4     102.398  15.202  75.5910  0.00  0.00     0.000 O
BRANCH 57 61
ATOM     58  C1  A00 X   4      98.532  16.087  77.2970  0.00  0.00     0.000 C
ATOM     59  C2  A00 X   4      98.797  16.474  75.8200  0.00  0.00     0.000 C
ATOM     60  C3  A00 X   4     100.049  15.799  75.2240  0.00  0.00     0.000 C
ATOM     61  C4  A00 X   4     101.269  15.924  76.1600  0.00  0.00     0.000 C
ATOM     62  C5  A00 X   4     100.851  15.288  77.5090  0.00  0.00     0.000 C
ATOM     63  O5  A00 X   4      99.751  16.047  78.0740  0.00  0.00     0.000 O
BRANCH 59 66
ATOM     64   N  A00 X   4      99.042  17.924  75.7260  0.00  0.00     0.000 N
ATOM     66  HD  A00 X   4      99.371  18.320  76.4220  0.00  0.00     0.000 HD
ATOM     66   O  A00 X   4      96.652  18.226  75.7290  0.00  0.00     0.000 OA
ATOM     67   S  A00 X   4      97.839  18.866  75.2520  0.00  0.00     0.000 S
ATOM     68   O  A00 X   4      98.190  20.087  75.9160  0.00  0.00     0.000 OA
ATOM     69   O  A00 X   4      98.069  18.879  73.8360  0.00  0.00     0.000 OA
ENDBRANCH 59 66
BRANCH 62 70
ATOM     70   C  A00 X   4     101.989  15.219  78.5550  0.00  0.00     0.000 C
ATOM     71   O  A00 X   4     103.585  17.932  80.3440  0.00  0.00     0.000 OA
ATOM     72   O  A00 X   4     104.512  16.125  79.1520  0.00  0.00     0.000 OA
ATOM     73   O  A00 X   4     102.137  16.503  79.1820  0.00  0.00     0.000 O
ATOM     74   O  A00 X   4     103.550  18.003  77.9340  0.00  0.00     0.000 OA
ATOM     75   S  A00 X   4     103.542  17.197  79.1110  0.00  0.00     0.000 S
ENDBRANCH 62 70
ENDBRANCH 57 61
ENDBRANCH 41 57
ENDBRANCH 40 44
ENDBRANCH 20 40
ENDBRANCH 19 23
ENDBRANCH 1 19
TORSDOF 14
ENDMDL
MODEL 68
REMARK VINA RESULT:      -1.5     46.111     50.946
ROOT
ATOM      1  C1  A00 X   1      54.346  38.337  48.8920  0.00  0.00     0.000 C
ATOM      2  C2  A00 X   1      53.038  38.915  48.2880  0.00  0.00     0.000 C
ATOM      3  C3  A00 X   1      52.155  39.771  49.2540  0.00  0.00     0.000 C
ATOM      4  C4  A00 X   1      52.489  39.637  50.7620  0.00  0.00     0.000 C
ATOM      5  C5  A00 X   1      53.217  38.330  51.0770  0.00  0.00     0.000 C
ATOM      6  O5  A00 X   1      54.455  38.411  50.3360  0.00  0.00     0.000 O
ATOM      7   O  A00 X   1      50.794  39.373  49.1040  0.00  0.00     0.000 O
ATOM      9  HD  A00 X   1      50.935  39.488  49.9510  0.00  0.00     0.000 HD
ATOM      9   O  A00 X   1      53.262  40.743  51.2260  0.00  0.00     0.000 O
ATOM     11  HD  A00 X   1      53.403  40.858  52.0730  0.00  0.00     0.000 HD
ENDROOT
BRANCH 2 11
ATOM     11   O  A00 X   1      53.400  39.717  47.1470  0.00  0.00     0.000 O
ATOM     12   O  A00 X   1      51.746  40.683  45.6990  0.00  0.00     0.000 OA
ATOM     13   O  A00 X   1      51.933  38.263  45.8430  0.00  0.00     0.000 OA
ATOM     14   O  A00 X   1      53.662  39.547  44.8330  0.00  0.00     0.000 OA
ATOM     15   S  A00 X   1      52.605  39.532  45.8090  0.00  0.00     0.000 S
ENDBRANCH 2 11
BRANCH 5 16
ATOM     16   C  A00 X   1      52.415  37.056  50.7930  0.00  0.00     0.000 C
ATOM     17   O  A00 X   1      52.983  35.985  50.8550  0.00  0.00     0.000 OA
ATOM     18   O  A00 X   1      51.232  37.079  50.5160  0.00  0.00     0.000 OA
ENDBRANCH 5 16
BRANCH 1 19
ATOM     19  O4  A00 X   2      54.647  37.005  48.4080  0.00  0.00     0.000 O
BRANCH 19 23
ATOM     20  C1  A00 X   2      58.877  37.679  48.2860  0.00  0.00     0.000 C
ATOM     21  C2  A00 X   2      58.094  37.813  46.9580  0.00  0.00     0.000 C
ATOM     22  C3  A00 X   2      56.583  37.974  47.2250  0.00  0.00     0.000 C
ATOM     23  C4  A00 X   2      56.062  36.824  48.1150  0.00  0.00     0.000 C
ATOM     24  C5  A00 X   2      56.937  36.784  49.3990  0.00  0.00     0.000 C
ATOM     25  O5  A00 X   2      58.318  36.555  49.0160  0.00  0.00     0.000 O
ATOM     26   O  A00 X   2      55.910  38.163  45.9690  0.00  0.00     0.000 O
ATOM     28  HD  A00 X   2      56.290  37.476  45.6040  0.00  0.00     0.000 HD
BRANCH 21 30
ATOM     28   N  A00 X   2      59.263  37.272  46.2570  0.00  0.00     0.000 N
ATOM     30  HD  A00 X   2      58.755  37.634  45.6560  0.00  0.00     0.000 HD
ATOM     30   O  A00 X   2      59.342  38.230  44.1280  0.00  0.00     0.000 OA
ATOM     31   S  A00 X   2      59.142  36.952  44.7140  0.00  0.00     0.000 S
ATOM     32   O  A00 X   2      60.191  36.009  44.4800  0.00  0.00     0.000 OA
ATOM     33   O  A00 X   2      57.865  36.336  44.5090  0.00  0.00     0.000 OA
ENDBRANCH 21 30
BRANCH 24 34
ATOM     34   C  A00 X   2      56.480  35.869  50.5600  0.00  0.00     0.000 C
ATOM     35   O  A00 X   2      58.336  32.959  51.7180  0.00  0.00     0.000 OA
ATOM     36   O  A00 X   2      57.205  34.624  50.5610  0.00  0.00     0.000 O
ATOM     37   O  A00 X   2      59.244  35.139  51.5860  0.00  0.00     0.000 OA
ATOM     38   S  A00 X   2      58.075  34.355  51.8440  0.00  0.00     0.000 S
ATOM     39   O  A00 X   2      57.264  34.722  52.9660  0.00  0.00     0.000 OA
ENDBRANCH 24 34
BRANCH 20 40
ATOM     40  O4  A00 X   3      58.626  38.893  49.0080  0.00  0.00     0.000 O
BRANCH 40 44
ATOM     41  C1  A00 X   3      57.817  40.471  52.1680  0.00  0.00     0.000 C
ATOM     42  C2  A00 X   3      58.008  41.222  50.8320  0.00  0.00     0.000 C
ATOM     43  C3  A00 X   3      59.341  40.816  50.1530  0.00  0.00     0.000 C
ATOM     44  C4  A00 X   3      59.557  39.313  50.0290  0.00  0.00     0.000 C
ATOM     45  C5  A00 X   3      59.353  38.631  51.4110  0.00  0.00     0.000 C
ATOM     46  O5  A00 X   3      58.089  39.050  52.0190  0.00  0.00     0.000 O
ATOM     47   O  A00 X   3      59.665  41.513  48.9510  0.00  0.00     0.000 O
ATOM     49  HD  A00 X   3      59.944  40.731  48.7060  0.00  0.00     0.000 HD
BRANCH 42 49
ATOM     49   O  A00 X   3      56.872  40.900  50.0000  0.00  0.00     0.000 O
ATOM     50   O  A00 X   3      56.165  41.396  47.7670  0.00  0.00     0.000 OA
ATOM     51   O  A00 X   3      57.137  43.117  49.0640  0.00  0.00     0.000 OA
ATOM     52   O  A00 X   3      55.010  42.298  49.6910  0.00  0.00     0.000 OA
ATOM     53   S  A00 X   3      56.249  41.981  49.0680  0.00  0.00     0.000 S
ENDBRANCH 42 49
BRANCH 45 54
ATOM     54   C  A00 X   3      60.563  38.837  52.3300  0.00  0.00     0.000 C
ATOM     55   O  A00 X   3      60.643  38.250  53.3890  0.00  0.00     0.000 OA
ATOM     56   O  A00 X   3      61.466  39.597  52.0140  0.00  0.00     0.000 OA
ENDBRANCH 45 54
BRANCH 41 57
ATOM     57  O4  A00 X   4      58.549  41.100  53.2430  0.00  0.00     0.000 O
BRANCH 57 61
ATOM     58  C1  A00 X   4      57.766  41.544  57.4650  0.00  0.00     0.000 C
ATOM     59  C2  A00 X   4      57.916  40.116  56.8860  0.00  0.00     0.000 C
ATOM     60  C3  A00 X   4      58.540  40.087  55.4760  0.00  0.00     0.000 C
ATOM     61  C4  A00 X   4      57.871  41.108  54.5310  0.00  0.00     0.000 C
ATOM     62  C5  A00 X   4      58.022  42.493  55.2080  0.00  0.00     0.000 C
ATOM     63  O5  A00 X   4      57.307  42.488  56.4700  0.00  0.00     0.000 O
BRANCH 59 66
ATOM     64   N  A00 X   4      56.656  39.369  56.7160  0.00  0.00     0.000 N
ATOM     66  HD  A00 X   4      55.942  39.826  56.5370  0.00  0.00     0.000 HD
ATOM     66   O  A00 X   4      56.715  38.928  59.0820  0.00  0.00     0.000 OA
ATOM     67   S  A00 X   4      56.214  38.356  57.8720  0.00  0.00     0.000 S
ATOM     68   O  A00 X   4      54.789  38.391  57.7150  0.00  0.00     0.000 OA
ATOM     69   O  A00 X   4      56.828  37.148  57.3980  0.00  0.00     0.000 OA
ENDBRANCH 59 66
BRANCH 62 70
ATOM     70   C  A00 X   4      57.504  43.674  54.3540  0.00  0.00     0.000 C
ATOM     71   O  A00 X   4      54.091  44.502  53.4740  0.00  0.00     0.000 OA
ATOM     72   O  A00 X   4      56.020  44.325  52.1360  0.00  0.00     0.000 OA
ATOM     73   O  A00 X   4      56.074  43.754  54.4720  0.00  0.00     0.000 O
ATOM     74   O  A00 X   4      54.919  42.303  52.9340  0.00  0.00     0.000 OA
ATOM     75   S  A00 X   4      55.224  43.680  53.1560  0.00  0.00     0.000 S
ENDBRANCH 62 70
ENDBRANCH 57 61
ENDBRANCH 41 57
ENDBRANCH 40 44
ENDBRANCH 20 40
ENDBRANCH 19 23
ENDBRANCH 1 19
TORSDOF 14
ENDMDL
MODEL 69
REMARK VINA RESULT:      -1.5     75.246     80.733
ROOT
ATOM      1  C1  A00 X   1      78.468  83.246  44.3980  0.00  0.00     0.000 C
ATOM      2  C2  A00 X   1      79.000  83.531  45.8280  0.00  0.00     0.000 C
ATOM      3  C3  A00 X   1      80.092  84.645  45.9450  0.00  0.00     0.000 C
ATOM      4  C4  A00 X   1      80.767  85.063  44.6140  0.00  0.00     0.000 C
ATOM      5  C5  A00 X   1      80.656  83.976  43.5450  0.00  0.00     0.000 C
ATOM      6  O5  A00 X   1      79.237  83.829  43.3160  0.00  0.00     0.000 O
ATOM      7   O  A00 X   1      81.134  84.176  46.7980  0.00  0.00     0.000 O
ATOM      9  HD  A00 X   1      81.511  84.587  46.1360  0.00  0.00     0.000 HD
ATOM      9   O  A00 X   1      80.226  86.286  44.1160  0.00  0.00     0.000 O
ATOM     11  HD  A00 X   1      80.603  86.697  43.4530  0.00  0.00     0.000 HD
ENDROOT
BRANCH 2 11
ATOM     11   O  A00 X   1      77.874  83.889  46.6510  0.00  0.00     0.000 O
ATOM     12   O  A00 X   1      78.118  84.405  48.9840  0.00  0.00     0.000 OA
ATOM     13   O  A00 X   1      78.641  82.162  48.2000  0.00  0.00     0.000 OA
ATOM     14   O  A00 X   1      76.396  82.948  48.1950  0.00  0.00     0.000 OA
ATOM     15   S  A00 X   1      77.784  83.312  48.1060  0.00  0.00     0.000 S
ENDBRANCH 2 11
BRANCH 5 16
ATOM     16   C  A00 X   1      81.362  82.659  43.8840  0.00  0.00     0.000 C
ATOM     17   O  A00 X   1      81.157  81.692  43.1800  0.00  0.00     0.000 OA
ATOM     18   O  A00 X   1      82.122  82.551  44.8250  0.00  0.00     0.000 OA
ENDBRANCH 5 16
BRANCH 1 19
ATOM     19  O4  A00 X   2      78.212  81.839  44.1650  0.00  0.00     0.000 O
BRANCH 19 23
ATOM     20  C1  A00 X   2      74.714  82.557  41.7950  0.00  0.00     0.000 C
ATOM     21  C2  A00 X   2      74.506  82.198  43.2860  0.00  0.00     0.000 C
ATOM     22  C3  A00 X   2      75.810  82.396  44.0860  0.00  0.00     0.000 C
ATOM     23  C4  A00 X   2      76.971  81.611  43.4370  0.00  0.00     0.000 C
ATOM     24  C5  A00 X   2      77.064  82.045  41.9480  0.00  0.00     0.000 C
ATOM     25  O5  A00 X   2      75.805  81.740  41.2930  0.00  0.00     0.000 O
ATOM     26   O  A00 X   2      75.547  82.116  45.4720  0.00  0.00     0.000 O
ATOM     28  HD  A00 X   2      75.168  81.357  45.2990  0.00  0.00     0.000 HD
BRANCH 21 30
ATOM     28   N  A00 X   2      73.284  81.483  42.9030  0.00  0.00     0.000 N
ATOM     30  HD  A00 X   2      73.249  81.598  43.7610  0.00  0.00     0.000 HD
ATOM     30   O  A00 X   2      71.764  81.643  44.6710  0.00  0.00     0.000 OA
ATOM     31   S  A00 X   2      72.520  80.644  44.0040  0.00  0.00     0.000 S
ATOM     32   O  A00 X   2      71.749  79.710  43.2430  0.00  0.00     0.000 OA
ATOM     33   O  A00 X   2      73.512  79.956  44.7760  0.00  0.00     0.000 OA
ENDBRANCH 21 30
BRANCH 24 34
ATOM     34   C  A00 X   2      78.291  81.578  41.1310  0.00  0.00     0.000 C
ATOM     35   O  A00 X   2      79.209  78.089  40.6420  0.00  0.00     0.000 OA
ATOM     36   O  A00 X   2      78.604  80.197  41.4010  0.00  0.00     0.000 O
ATOM     37   O  A00 X   2      77.095  78.989  40.0850  0.00  0.00     0.000 OA
ATOM     38   S  A00 X   2      78.503  79.232  40.1640  0.00  0.00     0.000 S
ATOM     39   O  A00 X   2      79.122  79.913  39.0670  0.00  0.00     0.000 OA
ENDBRANCH 24 34
BRANCH 20 40
ATOM     40  O4  A00 X   3      75.103  83.939  41.7800  0.00  0.00     0.000 O
BRANCH 40 44
ATOM     41  C1  A00 X   3      77.336  86.458  40.4410  0.00  0.00     0.000 C
ATOM     42  C2  A00 X   3      76.251  86.721  41.5070  0.00  0.00     0.000 C
ATOM     43  C3  A00 X   3      74.878  86.161  41.0520  0.00  0.00     0.000 C
ATOM     44  C4  A00 X   3      74.911  84.714  40.5770  0.00  0.00     0.000 C
ATOM     45  C5  A00 X   3      76.022  84.530  39.5050  0.00  0.00     0.000 C
ATOM     46  O5  A00 X   3      77.295  85.081  39.9720  0.00  0.00     0.000 O
ATOM     47   O  A00 X   3      73.779  86.423  41.9220  0.00  0.00     0.000 O
ATOM     49  HD  A00 X   3      73.558  85.615  41.7020  0.00  0.00     0.000 HD
BRANCH 42 49
ATOM     49   O  A00 X   3      76.697  86.094  42.7290  0.00  0.00     0.000 O
ATOM     50   O  A00 X   3      75.824  85.784  44.9360  0.00  0.00     0.000 OA
ATOM     51   O  A00 X   3      75.531  87.877  43.8770  0.00  0.00     0.000 OA
ATOM     52   O  A00 X   3      77.714  87.232  44.5140  0.00  0.00     0.000 OA
ATOM     53   S  A00 X   3      76.431  86.774  44.1040  0.00  0.00     0.000 S
ENDBRANCH 42 49
BRANCH 45 54
ATOM     54   C  A00 X   3      75.590  85.081  38.1400  0.00  0.00     0.000 C
ATOM     55   O  A00 X   3      74.551  85.697  38.0220  0.00  0.00     0.000 OA
ATOM     56   O  A00 X   3      76.283  84.909  37.1490  0.00  0.00     0.000 OA
ENDBRANCH 45 54
BRANCH 41 57
ATOM     57  O4  A00 X   4      77.293  87.440  39.3810  0.00  0.00     0.000 O
BRANCH 57 61
ATOM     58  C1  A00 X   4      80.351  89.248  36.9270  0.00  0.00     0.000 C
ATOM     59  C2  A00 X   4      80.155  87.713  36.8570  0.00  0.00     0.000 C
ATOM     60  C3  A00 X   4      78.829  87.233  37.4820  0.00  0.00     0.000 C
ATOM     61  C4  A00 X   4      78.592  87.858  38.8730  0.00  0.00     0.000 C
ATOM     62  C5  A00 X   4      78.620  89.393  38.6710  0.00  0.00     0.000 C
ATOM     63  O5  A00 X   4      79.934  89.789  38.2020  0.00  0.00     0.000 O
BRANCH 59 66
ATOM     64   N  A00 X   4      81.221  87.039  37.6200  0.00  0.00     0.000 N
ATOM     66  HD  A00 X   4      81.577  87.474  38.2790  0.00  0.00     0.000 HD
ATOM     66   O  A00 X   4      82.630  87.292  35.6830  0.00  0.00     0.000 OA
ATOM     67   S  A00 X   4      82.463  86.433  36.8130  0.00  0.00     0.000 S
ATOM     68   O  A00 X   4      83.488  86.522  37.8120  0.00  0.00     0.000 OA
ATOM     69   O  A00 X   4      81.986  85.100  36.5780  0.00  0.00     0.000 OA
ENDBRANCH 59 66
BRANCH 62 70
ATOM     70   C  A00 X   4      78.289  90.204  39.9470  0.00  0.00     0.000 C
ATOM     71   O  A00 X   4      80.252  90.570  42.9670  0.00  0.00     0.000 OA
ATOM     72   O  A00 X   4      77.979  90.028  42.6700  0.00  0.00     0.000 OA
ATOM     73   O  A00 X   4      79.454  90.267  40.7850  0.00  0.00     0.000 O
ATOM     74   O  A00 X   4      79.686  88.347  42.2220  0.00  0.00     0.000 OA
ATOM     75   S  A00 X   4      79.332  89.729  42.2530  0.00  0.00     0.000 S
ENDBRANCH 62 70
ENDBRANCH 57 61
ENDBRANCH 41 57
ENDBRANCH 40 44
ENDBRANCH 20 40
ENDBRANCH 19 23
ENDBRANCH 1 19
TORSDOF 14
ENDMDL
MODEL 70
REMARK VINA RESULT:      -1.5     71.778     76.995
ROOT
ATOM      1  C1  A00 X   1      91.951  25.581  57.2390  0.00  0.00     0.000 C
ATOM      2  C2  A00 X   1      93.228  25.967  56.4450  0.00  0.00     0.000 C
ATOM      3  C3  A00 X   1      93.364  25.343  55.0170  0.00  0.00     0.000 C
ATOM      4  C4  A00 X   1      92.420  24.150  54.7160  0.00  0.00     0.000 C
ATOM      5  C5  A00 X   1      91.934  23.462  55.9910  0.00  0.00     0.000 C
ATOM      6  O5  A00 X   1      91.185  24.478  56.6940  0.00  0.00     0.000 O
ATOM      7   O  A00 X   1      94.694  24.856  54.8550  0.00  0.00     0.000 O
ATOM      9  HD  A00 X   1      94.163  24.267  54.5070  0.00  0.00     0.000 HD
ATOM      9   O  A00 X   1      91.299  24.557  53.9310  0.00  0.00     0.000 O
ATOM     11  HD  A00 X   1      90.768  23.968  53.5830  0.00  0.00     0.000 HD
ENDROOT
BRANCH 2 11
ATOM     11   O  A00 X   1      93.258  27.403  56.3340  0.00  0.00     0.000 O
ATOM     12   O  A00 X   1      94.881  28.538  54.9760  0.00  0.00     0.000 OA
ATOM     13   O  A00 X   1      95.629  27.252  56.9000  0.00  0.00     0.000 OA
ATOM     14   O  A00 X   1      94.384  29.256  57.2010  0.00  0.00     0.000 OA
ATOM     15   S  A00 X   1      94.644  28.135  56.3390  0.00  0.00     0.000 S
ENDBRANCH 2 11
BRANCH 5 16
ATOM     16   C  A00 X   1      93.036  22.816  56.8390  0.00  0.00     0.000 C
ATOM     17   O  A00 X   1      92.762  22.442  57.9600  0.00  0.00     0.000 OA
ATOM     18   O  A00 X   1      94.168  22.660  56.4260  0.00  0.00     0.000 OA
ENDBRANCH 5 16
BRANCH 1 19
ATOM     19  O4  A00 X   2      92.203  25.402  58.6540  0.00  0.00     0.000 O
BRANCH 19 23
ATOM     20  C1  A00 X   2      88.555  27.305  59.8530  0.00  0.00     0.000 C
ATOM     21  C2  A00 X   2      89.849  28.155  59.8860  0.00  0.00     0.000 C
ATOM     22  C3  A00 X   2      90.959  27.498  59.0400  0.00  0.00     0.000 C
ATOM     23  C4  A00 X   2      91.190  26.036  59.4860  0.00  0.00     0.000 C
ATOM     24  C5  A00 X   2      89.823  25.301  59.4270  0.00  0.00     0.000 C
ATOM     25  O5  A00 X   2      88.892  25.971  60.3170  0.00  0.00     0.000 O
ATOM     26   O  A00 X   2      92.113  28.356  59.0470  0.00  0.00     0.000 O
ATOM     28  HD  A00 X   2      92.112  28.435  59.9100  0.00  0.00     0.000 HD
BRANCH 21 30
ATOM     28   N  A00 X   2      89.319  28.848  61.0650  0.00  0.00     0.000 N
ATOM     30  HD  A00 X   2      89.973  29.329  60.7630  0.00  0.00     0.000 HD
ATOM     30   O  A00 X   2      90.115  31.044  61.0360  0.00  0.00     0.000 OA
ATOM     31   S  A00 X   2      90.252  29.872  61.8250  0.00  0.00     0.000 S
ATOM     32   O  A00 X   2      89.674  29.952  63.1310  0.00  0.00     0.000 OA
ATOM     33   O  A00 X   2      91.558  29.285  61.8950  0.00  0.00     0.000 OA
ENDBRANCH 21 30
BRANCH 24 34
ATOM     34   C  A00 X   2      89.817  23.764  59.6040  0.00  0.00     0.000 C
ATOM     35   O  A00 X   2      91.138  22.042  62.5280  0.00  0.00     0.000 OA
ATOM     36   O  A00 X   2      90.704  23.357  60.6640  0.00  0.00     0.000 O
ATOM     37   O  A00 X   2      89.480  23.726  62.6230  0.00  0.00     0.000 OA
ATOM     38   S  A00 X   2      90.014  22.629  61.8750  0.00  0.00     0.000 S
ATOM     39   O  A00 X   2      89.085  21.696  61.3100  0.00  0.00     0.000 OA
ENDBRANCH 24 34
BRANCH 20 40
ATOM     40  O4  A00 X   3      88.164  27.249  58.4730  0.00  0.00     0.000 O
BRANCH 40 44
ATOM     41  C1  A00 X   3      86.982  25.208  55.7240  0.00  0.00     0.000 C
ATOM     42  C2  A00 X   3      87.321  26.711  55.6220  0.00  0.00     0.000 C
ATOM     43  C3  A00 X   3      86.605  27.518  56.7360  0.00  0.00     0.000 C
ATOM     44  C4  A00 X   3      86.789  26.958  58.1410  0.00  0.00     0.000 C
ATOM     45  C5  A00 X   3      86.425  25.447  58.1630  0.00  0.00     0.000 C
ATOM     46  O5  A00 X   3      87.114  24.727  57.0900  0.00  0.00     0.000 O
ATOM     47   O  A00 X   3      86.777  28.933  56.6870  0.00  0.00     0.000 O
ATOM     49  HD  A00 X   3      86.820  28.844  57.5480  0.00  0.00     0.000 HD
BRANCH 42 49
ATOM     49   O  A00 X   3      88.757  26.829  55.7240  0.00  0.00     0.000 O
ATOM     50   O  A00 X   3      90.352  28.613  55.7330  0.00  0.00     0.000 OA
ATOM     51   O  A00 X   3      88.547  28.705  54.2090  0.00  0.00     0.000 OA
ATOM     52   O  A00 X   3      90.208  27.053  53.8910  0.00  0.00     0.000 OA
ATOM     53   S  A00 X   3      89.526  27.858  54.8450  0.00  0.00     0.000 S
ENDBRANCH 42 49
BRANCH 45 54
ATOM     54   C  A00 X   3      84.907  25.229  58.1590  0.00  0.00     0.000 C
ATOM     55   O  A00 X   3      84.153  26.134  57.8680  0.00  0.00     0.000 OA
ATOM     56   O  A00 X   3      84.431  24.142  58.4480  0.00  0.00     0.000 OA
ENDBRANCH 45 54
BRANCH 41 57
ATOM     57  O4  A00 X   4      85.707  24.906  55.1150  0.00  0.00     0.000 O
BRANCH 57 61
ATOM     58  C1  A00 X   4      84.152  21.399  53.1330  0.00  0.00     0.000 C
ATOM     59  C2  A00 X   4      84.569  21.286  54.6210  0.00  0.00     0.000 C
ATOM     60  C3  A00 X   4      84.761  22.652  55.3110  0.00  0.00     0.000 C
ATOM     61  C4  A00 X   4      85.626  23.608  54.4610  0.00  0.00     0.000 C
ATOM     62  C5  A00 X   4      84.912  23.740  53.0920  0.00  0.00     0.000 C
ATOM     63  O5  A00 X   4      84.878  22.443  52.4440  0.00  0.00     0.000 O
BRANCH 59 66
ATOM     64   N  A00 X   4      85.870  20.603  54.7410  0.00  0.00     0.000 N
ATOM     66  HD  A00 X   4      86.420  20.671  54.0760  0.00  0.00     0.000 HD
ATOM     66   O  A00 X   4      84.679  18.519  54.5430  0.00  0.00     0.000 OA
ATOM     67   S  A00 X   4      85.876  19.048  55.1180  0.00  0.00     0.000 S
ATOM     68   O  A00 X   4      87.097  18.635  54.4900  0.00  0.00     0.000 OA
ATOM     69   O  A00 X   4      85.950  19.135  56.5490  0.00  0.00     0.000 OA
ENDBRANCH 59 66
BRANCH 62 70
ATOM     70   C  A00 X   4      85.575  24.754  52.1290  0.00  0.00     0.000 C
ATOM     71   O  A00 X   4      88.779  24.523  50.4590  0.00  0.00     0.000 OA
ATOM     72   O  A00 X   4      87.825  26.273  51.7130  0.00  0.00     0.000 OA
ATOM     73   O  A00 X   4      86.722  24.144  51.5150  0.00  0.00     0.000 O
ATOM     74   O  A00 X   4      88.714  24.315  52.8600  0.00  0.00     0.000 OA
ATOM     75   S  A00 X   4      88.110  24.855  51.6850  0.00  0.00     0.000 S
ENDBRANCH 62 70
ENDBRANCH 57 61
ENDBRANCH 41 57
ENDBRANCH 40 44
ENDBRANCH 20 40
ENDBRANCH 19 23
ENDBRANCH 1 19
TORSDOF 14
ENDMDL
MODEL 71
REMARK VINA RESULT:      -1.5    111.388    116.355
ROOT
ATOM      1  C1  A00 X   1     112.118  36.478  86.6990  0.00  0.00     0.000 C
ATOM      2  C2  A00 X   1     111.969  34.974  86.3450  0.00  0.00     0.000 C
ATOM      3  C3  A00 X   1     113.267  34.109  86.4560  0.00  0.00     0.000 C
ATOM      4  C4  A00 X   1     114.595  34.905  86.5430  0.00  0.00     0.000 C
ATOM      5  C5  A00 X   1     114.461  36.316  85.9700  0.00  0.00     0.000 C
ATOM      6  O5  A00 X   1     113.480  36.962  86.8110  0.00  0.00     0.000 O
ATOM      7   O  A00 X   1     113.367  33.282  85.3000  0.00  0.00     0.000 O
ATOM      9  HD  A00 X   1     114.162  33.581  85.4680  0.00  0.00     0.000 HD
ATOM      9   O  A00 X   1     115.075  34.974  87.8860  0.00  0.00     0.000 O
ATOM     11  HD  A00 X   1     115.870  35.273  88.0540  0.00  0.00     0.000 HD
ENDROOT
BRANCH 2 11
ATOM     11   O  A00 X   1     110.959  34.418  87.2090  0.00  0.00     0.000 O
ATOM     12   O  A00 X   1     110.234  32.137  87.0130  0.00  0.00     0.000 OA
ATOM     13   O  A00 X   1     109.830  33.678  85.1740  0.00  0.00     0.000 OA
ATOM     14   O  A00 X   1     108.675  33.935  87.2380  0.00  0.00     0.000 OA
ATOM     15   S  A00 X   1     109.874  33.469  86.5950  0.00  0.00     0.000 S
ENDBRANCH 2 11
BRANCH 5 16
ATOM     16   C  A00 X   1     114.126  36.379  84.4760  0.00  0.00     0.000 C
ATOM     17   O  A00 X   1     113.811  37.448  83.9960  0.00  0.00     0.000 OA
ATOM     18   O  A00 X   1     114.170  35.401  83.7560  0.00  0.00     0.000 OA
ENDBRANCH 5 16
BRANCH 1 19
ATOM     19  O4  A00 X   2     111.320  37.337  85.8490  0.00  0.00     0.000 O
BRANCH 19 23
ATOM     20  C1  A00 X   2     110.349  40.071  89.0030  0.00  0.00     0.000 C
ATOM     21  C2  A00 X   2     109.303  38.985  88.6510  0.00  0.00     0.000 C
ATOM     22  C3  A00 X   2     109.948  37.845  87.8350  0.00  0.00     0.000 C
ATOM     23  C4  A00 X   2     110.670  38.409  86.5900  0.00  0.00     0.000 C
ATOM     24  C5  A00 X   2     111.672  39.493  87.0730  0.00  0.00     0.000 C
ATOM     25  O5  A00 X   2     110.934  40.539  87.7580  0.00  0.00     0.000 O
ATOM     26   O  A00 X   2     108.955  36.833  87.5930  0.00  0.00     0.000 O
ATOM     28  HD  A00 X   2     108.374  37.403  87.2980  0.00  0.00     0.000 HD
BRANCH 21 30
ATOM     28   N  A00 X   2     108.248  39.953  88.9680  0.00  0.00     0.000 N
ATOM     30  HD  A00 X   2     107.875  39.172  88.9490  0.00  0.00     0.000 HD
ATOM     30   O  A00 X   2     106.414  38.779  89.8130  0.00  0.00     0.000 OA
ATOM     31   S  A00 X   2     106.746  39.560  88.6750  0.00  0.00     0.000 S
ATOM     32   O  A00 X   2     106.076  40.821  88.5920  0.00  0.00     0.000 OA
ATOM     33   O  A00 X   2     106.721  38.899  87.4040  0.00  0.00     0.000 OA
ENDBRANCH 21 30
BRANCH 24 34
ATOM     34   C  A00 X   2     112.686  40.052  86.0470  0.00  0.00     0.000 C
ATOM     35   O  A00 X   2     112.846  43.545  85.0320  0.00  0.00     0.000 OA
ATOM     36   O  A00 X   2     112.293  41.359  85.5830  0.00  0.00     0.000 O
ATOM     37   O  A00 X   2     112.994  42.813  87.2760  0.00  0.00     0.000 OA
ATOM     38   S  A00 X   2     113.304  42.519  85.9100  0.00  0.00     0.000 S
ATOM     39   O  A00 X   2     114.611  42.010  85.6200  0.00  0.00     0.000 OA
ENDBRANCH 24 34
BRANCH 20 40
ATOM     40  O4  A00 X   3     111.352  39.405  89.7830  0.00  0.00     0.000 O
BRANCH 40 44
ATOM     41  C1  A00 X   3     114.859  38.890  90.5340  0.00  0.00     0.000 C
ATOM     42  C2  A00 X   3     113.692  38.159  91.2340  0.00  0.00     0.000 C
ATOM     43  C3  A00 X   3     112.630  39.168  91.7410  0.00  0.00     0.000 C
ATOM     44  C4  A00 X   3     112.163  40.175  90.6970  0.00  0.00     0.000 C
ATOM     45  C5  A00 X   3     113.390  40.870  90.0420  0.00  0.00     0.000 C
ATOM     46  O5  A00 X   3     114.371  39.882  89.5880  0.00  0.00     0.000 O
ATOM     47   O  A00 X   3     111.546  38.611  92.4820  0.00  0.00     0.000 O
ATOM     49  HD  A00 X   3     111.089  39.200  92.0400  0.00  0.00     0.000 HD
BRANCH 42 49
ATOM     49   O  A00 X   3     113.131  37.240  90.2720  0.00  0.00     0.000 O
ATOM     50   O  A00 X   3     111.314  35.681  90.2200  0.00  0.00     0.000 OA
ATOM     51   O  A00 X   3     112.656  35.806  92.1630  0.00  0.00     0.000 OA
ATOM     52   O  A00 X   3     113.617  34.944  90.1830  0.00  0.00     0.000 OA
ATOM     53   S  A00 X   3     112.644  35.831  90.7220  0.00  0.00     0.000 S
ENDBRANCH 42 49
BRANCH 45 54
ATOM     54   C  A00 X   3     113.993  41.940  90.9610  0.00  0.00     0.000 C
ATOM     55   O  A00 X   3     114.851  42.694  90.5520  0.00  0.00     0.000 OA
ATOM     56   O  A00 X   3     113.621  42.051  92.1190  0.00  0.00     0.000 OA
ENDBRANCH 45 54
BRANCH 41 57
ATOM     57  O4  A00 X   4     115.813  39.407  91.4870  0.00  0.00     0.000 O
BRANCH 57 61
ATOM     58  C1  A00 X   4     120.093  39.963  91.3560  0.00  0.00     0.000 C
ATOM     59  C2  A00 X   4     119.213  40.741  90.3460  0.00  0.00     0.000 C
ATOM     60  C3  A00 X   4     117.715  40.747  90.7120  0.00  0.00     0.000 C
ATOM     61  C4  A00 X   4     117.206  39.334  91.0690  0.00  0.00     0.000 C
ATOM     62  C5  A00 X   4     118.091  38.835  92.2390  0.00  0.00     0.000 C
ATOM     63  O5  A00 X   4     119.466  38.734  91.7870  0.00  0.00     0.000 O
BRANCH 59 66
ATOM     64   N  A00 X   4     119.287  40.114  89.0140  0.00  0.00     0.000 N
ATOM     66  HD  A00 X   4     119.450  39.264  88.9800  0.00  0.00     0.000 HD
ATOM     66   O  A00 X   4     121.352  41.306  88.6780  0.00  0.00     0.000 OA
ATOM     67   S  A00 X   4     120.266  40.760  87.9260  0.00  0.00     0.000 S
ATOM     68   O  A00 X   4     120.580  39.602  87.1410  0.00  0.00     0.000 OA
ATOM     69   O  A00 X   4     119.365  41.677  87.2870  0.00  0.00     0.000 OA
ENDBRANCH 59 66
BRANCH 62 70
ATOM     70   C  A00 X   4     117.661  37.465  92.8160  0.00  0.00     0.000 C
ATOM     71   O  A00 X   4     117.867  34.196  91.2750  0.00  0.00     0.000 OA
ATOM     72   O  A00 X   4     116.077  35.267  92.3680  0.00  0.00     0.000 OA
ATOM     73   O  A00 X   4     118.151  36.416  91.9660  0.00  0.00     0.000 O
ATOM     74   O  A00 X   4     116.688  35.947  90.1090  0.00  0.00     0.000 OA
ATOM     75   S  A00 X   4     117.108  35.411  91.3640  0.00  0.00     0.000 S
ENDBRANCH 62 70
ENDBRANCH 57 61
ENDBRANCH 41 57
ENDBRANCH 40 44
ENDBRANCH 20 40
ENDBRANCH 19 23
ENDBRANCH 1 19
TORSDOF 14
ENDMDL
MODEL 72
REMARK VINA RESULT:      -1.5     78.246     82.885
ROOT
ATOM      1  C1  A00 X   1     105.526  53.932  28.6020  0.00  0.00     0.000 C
ATOM      2  C2  A00 X   1     105.072  52.468  28.3580  0.00  0.00     0.000 C
ATOM      3  C3  A00 X   1     103.974  51.918  29.3270  0.00  0.00     0.000 C
ATOM      4  C4  A00 X   1     103.744  52.748  30.6160  0.00  0.00     0.000 C
ATOM      5  C5  A00 X   1     104.956  53.609  30.9720  0.00  0.00     0.000 C
ATOM      6  O5  A00 X   1     105.101  54.518  29.8580  0.00  0.00     0.000 O
ATOM      7   O  A00 X   1     104.352  50.610  29.7500  0.00  0.00     0.000 O
ATOM      9  HD  A00 X   1     104.037  51.022  30.4440  0.00  0.00     0.000 HD
ATOM      9   O  A00 X   1     102.583  53.571  30.5060  0.00  0.00     0.000 O
ATOM     11  HD  A00 X   1     102.268  53.983  31.1990  0.00  0.00     0.000 HD
ENDROOT
BRANCH 2 11
ATOM     11   O  A00 X   1     104.588  52.380  27.0030  0.00  0.00     0.000 O
ATOM     12   O  A00 X   1     103.926  50.289  26.0250  0.00  0.00     0.000 OA
ATOM     13   O  A00 X   1     106.245  50.614  26.6810  0.00  0.00     0.000 OA
ATOM     14   O  A00 X   1     105.326  51.833  24.8570  0.00  0.00     0.000 OA
ATOM     15   S  A00 X   1     105.055  51.180  26.1090  0.00  0.00     0.000 S
ENDBRANCH 2 11
BRANCH 5 16
ATOM     16   C  A00 X   1     106.233  52.828  31.2970  0.00  0.00     0.000 C
ATOM     17   O  A00 X   1     107.282  53.434  31.3710  0.00  0.00     0.000 OA
ATOM     18   O  A00 X   1     106.232  51.628  31.4890  0.00  0.00     0.000 OA
ENDBRANCH 5 16
BRANCH 1 19
ATOM     19  O4  A00 X   2     106.945  54.124  28.3830  0.00  0.00     0.000 O
BRANCH 19 23
ATOM     20  C1  A00 X   2     106.466  58.033  26.6950  0.00  0.00     0.000 C
ATOM     21  C2  A00 X   2     106.628  56.847  25.7150  0.00  0.00     0.000 C
ATOM     22  C3  A00 X   2     106.355  55.505  26.4260  0.00  0.00     0.000 C
ATOM     23  C4  A00 X   2     107.240  55.367  27.6860  0.00  0.00     0.000 C
ATOM     24  C5  A00 X   2     107.001  56.620  28.5720  0.00  0.00     0.000 C
ATOM     25  O5  A00 X   2     107.363  57.804  27.8150  0.00  0.00     0.000 O
ATOM     26   O  A00 X   2     106.450  54.443  25.4610  0.00  0.00     0.000 O
ATOM     28  HD  A00 X   2     107.218  54.714  25.1650  0.00  0.00     0.000 HD
BRANCH 21 30
ATOM     28   N  A00 X   2     107.367  57.736  24.8130  0.00  0.00     0.000 N
ATOM     30  HD  A00 X   2     107.138  57.042  24.3480  0.00  0.00     0.000 HD
ATOM     30   O  A00 X   2     106.946  57.059  22.6170  0.00  0.00     0.000 OA
ATOM     31   S  A00 X   2     108.038  57.119  23.5220  0.00  0.00     0.000 S
ATOM     32   O  A00 X   2     109.053  58.069  23.1810  0.00  0.00     0.000 OA
ATOM     33   O  A00 X   2     108.632  55.874  23.9070  0.00  0.00     0.000 OA
ENDBRANCH 21 30
BRANCH 24 34
ATOM     34   C  A00 X   2     107.594  56.622  30.0010  0.00  0.00     0.000 C
ATOM     35   O  A00 X   2     110.139  58.957  31.1530  0.00  0.00     0.000 OA
ATOM     36   O  A00 X   2     108.806  57.400  30.0640  0.00  0.00     0.000 O
ATOM     37   O  A00 X   2     108.068  59.614  30.2190  0.00  0.00     0.000 OA
ATOM     38   S  A00 X   2     108.753  58.647  31.0210  0.00  0.00     0.000 S
ATOM     39   O  A00 X   2     108.112  58.207  32.2230  0.00  0.00     0.000 OA
ENDBRANCH 24 34
BRANCH 20 40
ATOM     40  O4  A00 X   3     105.106  57.978  27.1500  0.00  0.00     0.000 O
BRANCH 40 44
ATOM     41  C1  A00 X   3     102.788  58.212  29.9240  0.00  0.00     0.000 C
ATOM     42  C2  A00 X   3     102.388  57.894  28.4660  0.00  0.00     0.000 C
ATOM     43  C3  A00 X   3     102.987  58.935  27.4860  0.00  0.00     0.000 C
ATOM     44  C4  A00 X   3     104.482  59.177  27.6560  0.00  0.00     0.000 C
ATOM     45  C5  A00 X   3     104.804  59.495  29.1440  0.00  0.00     0.000 C
ATOM     46  O5  A00 X   3     104.210  58.494  30.0320  0.00  0.00     0.000 O
ATOM     47   O  A00 X   3     102.612  58.791  26.1180  0.00  0.00     0.000 O
ATOM     49  HD  A00 X   3     103.439  59.011  25.9850  0.00  0.00     0.000 HD
BRANCH 42 49
ATOM     49   O  A00 X   3     102.865  56.561  28.1780  0.00  0.00     0.000 O
ATOM     50   O  A00 X   3     102.887  55.102  26.2800  0.00  0.00     0.000 OA
ATOM     51   O  A00 X   3     100.937  56.361  26.7290  0.00  0.00     0.000 OA
ATOM     52   O  A00 X   3     101.530  54.630  28.2250  0.00  0.00     0.000 OA
ATOM     53   S  A00 X   3     102.016  55.595  27.3010  0.00  0.00     0.000 S
ENDBRANCH 42 49
BRANCH 45 54
ATOM     54   C  A00 X   3     104.419  60.933  29.5130  0.00  0.00     0.000 C
ATOM     55   O  A00 X   3     104.747  61.406  30.5820  0.00  0.00     0.000 OA
ATOM     56   O  A00 X   3     103.776  61.626  28.7400  0.00  0.00     0.000 OA
ENDBRANCH 45 54
BRANCH 41 57
ATOM     57  O4  A00 X   4     101.941  59.232  30.4990  0.00  0.00     0.000 O
BRANCH 57 61
ATOM     58  C1  A00 X   4     100.476  59.921  34.5010  0.00  0.00     0.000 C
ATOM     59  C2  A00 X   4     102.006  59.937  34.2590  0.00  0.00     0.000 C
ATOM     60  C3  A00 X   4     102.391  60.041  32.7690  0.00  0.00     0.000 C
ATOM     61  C4  A00 X   4     101.603  59.036  31.9020  0.00  0.00     0.000 C
ATOM     62  C5  A00 X   4     100.103  59.339  32.1390  0.00  0.00     0.000 C
ATOM     63  O5  A00 X   4      99.783  59.100  33.5330  0.00  0.00     0.000 O
BRANCH 59 66
ATOM     64   N  A00 X   4     102.572  58.664  34.7400  0.00  0.00     0.000 N
ATOM     66  HD  A00 X   4     102.052  57.972  34.7460  0.00  0.00     0.000 HD
ATOM     66   O  A00 X   4     102.595  59.625  36.9480  0.00  0.00     0.000 OA
ATOM     67   S  A00 X   4     103.288  58.647  36.1700  0.00  0.00     0.000 S
ATOM     68   O  A00 X   4     103.067  57.283  36.5540  0.00  0.00     0.000 OA
ATOM     69   O  A00 X   4     104.639  58.936  35.7800  0.00  0.00     0.000 OA
ENDBRANCH 59 66
BRANCH 62 70
ATOM     70   C  A00 X   4      99.143  58.498  31.2630  0.00  0.00     0.000 C
ATOM     71   O  A00 X   4      98.453  54.948  31.4310  0.00  0.00     0.000 OA
ATOM     72   O  A00 X   4      98.994  56.321  29.5960  0.00  0.00     0.000 OA
ATOM     73   O  A00 X   4      98.998  57.190  31.8390  0.00  0.00     0.000 O
ATOM     74   O  A00 X   4     100.740  55.666  31.1650  0.00  0.00     0.000 OA
ATOM     75   S  A00 X   4      99.358  55.952  30.9460  0.00  0.00     0.000 S
ENDBRANCH 62 70
ENDBRANCH 57 61
ENDBRANCH 41 57
ENDBRANCH 40 44
ENDBRANCH 20 40
ENDBRANCH 19 23
ENDBRANCH 1 19
TORSDOF 14
ENDMDL
MODEL 73
REMARK VINA RESULT:      -1.5     67.061     71.225
ROOT
ATOM      1  C1  A00 X   1      14.279  67.708  71.3490  0.00  0.00     0.000 C
ATOM      2  C2  A00 X   1      14.697  69.182  71.5980  0.00  0.00     0.000 C
ATOM      3  C3  A00 X   1      16.232  69.447  71.7360  0.00  0.00     0.000 C
ATOM      4  C4  A00 X   1      17.109  68.191  71.9760  0.00  0.00     0.000 C
ATOM      5  C5  A00 X   1      16.307  67.031  72.5650  0.00  0.00     0.000 C
ATOM      6  O5  A00 X   1      15.318  66.720  71.5580  0.00  0.00     0.000 O
ATOM      7   O  A00 X   1      16.449  70.310  72.8510  0.00  0.00     0.000 O
ATOM      9  HD  A00 X   1      17.068  69.704  72.8730  0.00  0.00     0.000 HD
ATOM      9   O  A00 X   1      17.755  67.769  70.7750  0.00  0.00     0.000 O
ATOM     11  HD  A00 X   1      18.373  67.163  70.7970  0.00  0.00     0.000 HD
ENDROOT
BRANCH 2 11
ATOM     11   O  A00 X   1      14.180  69.974  70.5110  0.00  0.00     0.000 O
ATOM     12   O  A00 X   1      14.754  72.291  70.2420  0.00  0.00     0.000 OA
ATOM     13   O  A00 X   1      13.500  71.595  72.2070  0.00  0.00     0.000 OA
ATOM     14   O  A00 X   1      12.498  71.526  70.0510  0.00  0.00     0.000 OA
ATOM     15   S  A00 X   1      13.725  71.447  70.7960  0.00  0.00     0.000 S
ENDBRANCH 2 11
BRANCH 5 16
ATOM     16   C  A00 X   1      15.708  67.296  73.9510  0.00  0.00     0.000 C
ATOM     17   O  A00 X   1      14.887  66.516  74.3870  0.00  0.00     0.000 OA
ATOM     18   O  A00 X   1      16.031  68.251  74.6280  0.00  0.00     0.000 OA
ENDBRANCH 5 16
BRANCH 1 19
ATOM     19  O4  A00 X   2      13.059  67.347  72.0400  0.00  0.00     0.000 O
BRANCH 19 23
ATOM     20  C1  A00 X   2      11.561  64.978  68.7980  0.00  0.00     0.000 C
ATOM     21  C2  A00 X   2      11.041  66.431  68.9210  0.00  0.00     0.000 C
ATOM     22  C3  A00 X   2      11.963  67.269  69.8310  0.00  0.00     0.000 C
ATOM     23  C4  A00 X   2      12.148  66.580  71.2010  0.00  0.00     0.000 C
ATOM     24  C5  A00 X   2      12.652  65.134  70.9410  0.00  0.00     0.000 C
ATOM     25  O5  A00 X   2      11.665  64.433  70.1400  0.00  0.00     0.000 O
ATOM     26   O  A00 X   2      11.478  68.623  69.8580  0.00  0.00     0.000 O
ATOM     28  HD  A00 X   2      10.667  68.381  70.0420  0.00  0.00     0.000 HD
BRANCH 21 30
ATOM     28   N  A00 X   2       9.743  65.970  68.4190  0.00  0.00     0.000 N
ATOM     30  HD  A00 X   2       9.746  66.833  68.3510  0.00  0.00     0.000 HD
ATOM     30   O  A00 X   2       8.768  67.716  67.2110  0.00  0.00     0.000 OA
ATOM     31   S  A00 X   2       8.531  66.984  68.4050  0.00  0.00     0.000 S
ATOM     32   O  A00 X   2       7.380  66.136  68.3750  0.00  0.00     0.000 OA
ATOM     33   O  A00 X   2       8.578  67.717  69.6350  0.00  0.00     0.000 OA
ENDBRANCH 21 30
BRANCH 24 34
ATOM     34   C  A00 X   2      13.134  64.304  72.1540  0.00  0.00     0.000 C
ATOM     35   O  A00 X   2      11.075  63.549  75.0600  0.00  0.00     0.000 OA
ATOM     36   O  A00 X   2      12.253  64.467  73.2830  0.00  0.00     0.000 O
ATOM     37   O  A00 X   2      10.463  63.028  72.8360  0.00  0.00     0.000 OA
ATOM     38   S  A00 X   2      11.539  63.153  73.7710  0.00  0.00     0.000 S
ATOM     39   O  A00 X   2      12.538  62.127  73.7750  0.00  0.00     0.000 OA
ENDBRANCH 24 34
BRANCH 20 40
ATOM     40  O4  A00 X   3      12.870  65.083  68.2190  0.00  0.00     0.000 O
BRANCH 40 44
ATOM     41  C1  A00 X   3      16.331  64.012  68.2540  0.00  0.00     0.000 C
ATOM     42  C2  A00 X   3      15.747  65.071  67.2940  0.00  0.00     0.000 C
ATOM     43  C3  A00 X   3      14.472  64.538  66.5900  0.00  0.00     0.000 C
ATOM     44  C4  A00 X   3      13.430  63.945  67.5290  0.00  0.00     0.000 C
ATOM     45  C5  A00 X   3      14.092  62.888  68.4580  0.00  0.00     0.000 C
ATOM     46  O5  A00 X   3      15.295  63.429  69.0930  0.00  0.00     0.000 O
ATOM     47   O  A00 X   3      13.894  65.401  65.6120  0.00  0.00     0.000 O
ATOM     49  HD  A00 X   3      13.155  65.110  65.9560  0.00  0.00     0.000 HD
BRANCH 42 49
ATOM     49   O  A00 X   3      15.462  66.247  68.0830  0.00  0.00     0.000 O
ATOM     50   O  A00 X   3      14.516  68.410  67.6890  0.00  0.00     0.000 OA
ATOM     51   O  A00 X   3      16.017  67.514  66.0970  0.00  0.00     0.000 OA
ATOM     52   O  A00 X   3      16.858  68.130  68.2180  0.00  0.00     0.000 OA
ATOM     53   S  A00 X   3      15.722  67.666  67.5000  0.00  0.00     0.000 S
ENDBRANCH 42 49
BRANCH 45 54
ATOM     54   C  A00 X   3      14.340  61.564  67.7240  0.00  0.00     0.000 C
ATOM     55   O  A00 X   3      14.278  61.507  66.5130  0.00  0.00     0.000 OA
ATOM     56   O  A00 X   3      14.604  60.546  68.3440  0.00  0.00     0.000 OA
ENDBRANCH 45 54
BRANCH 41 57
ATOM     57  O4  A00 X   4      17.134  63.038  67.5500  0.00  0.00     0.000 O
BRANCH 57 61
ATOM     58  C1  A00 X   4      20.608  60.732  68.6700  0.00  0.00     0.000 C
ATOM     59  C2  A00 X   4      19.293  60.524  69.4630  0.00  0.00     0.000 C
ATOM     60  C3  A00 X   4      18.053  61.115  68.7610  0.00  0.00     0.000 C
ATOM     61  C4  A00 X   4      18.301  62.559  68.2760  0.00  0.00     0.000 C
ATOM     62  C5  A00 X   4      19.530  62.497  67.3350  0.00  0.00     0.000 C
ATOM     63  O5  A00 X   4      20.687  62.054  68.0890  0.00  0.00     0.000 O
BRANCH 59 66
ATOM     64   N  A00 X   4      19.380  61.214  70.7630  0.00  0.00     0.000 N
ATOM     66  HD  A00 X   4      19.897  61.907  70.8140  0.00  0.00     0.000 HD
ATOM     66   O  A00 X   4      20.582  59.296  71.5860  0.00  0.00     0.000 OA
ATOM     67   S  A00 X   4      19.733  60.345  72.0590  0.00  0.00     0.000 S
ATOM     68   O  A00 X   4      20.374  61.339  72.8700  0.00  0.00     0.000 OA
ATOM     69   O  A00 X   4      18.412  59.992  72.4940  0.00  0.00     0.000 OA
ENDBRANCH 59 66
BRANCH 62 70
ATOM     70   C  A00 X   4      19.873  63.844  66.6540  0.00  0.00     0.000 C
ATOM     71   O  A00 X   4      21.165  66.873  68.1570  0.00  0.00     0.000 OA
ATOM     72   O  A00 X   4      19.357  66.541  66.6870  0.00  0.00     0.000 OA
ATOM     73   O  A00 X   4      20.585  64.677  67.5830  0.00  0.00     0.000 O
ATOM     74   O  A00 X   4      19.127  65.930  69.0350  0.00  0.00     0.000 OA
ATOM     75   S  A00 X   4      19.988  66.090  67.9070  0.00  0.00     0.000 S
ENDBRANCH 62 70
ENDBRANCH 57 61
ENDBRANCH 41 57
ENDBRANCH 40 44
ENDBRANCH 20 40
ENDBRANCH 19 23
ENDBRANCH 1 19
TORSDOF 14
ENDMDL
MODEL 74
REMARK VINA RESULT:      -1.5     71.986     77.503
ROOT
ATOM      1  C1  A00 X   1      37.250  77.501  68.5440  0.00  0.00     0.000 C
ATOM      2  C2  A00 X   1      38.718  77.179  68.1560  0.00  0.00     0.000 C
ATOM      3  C3  A00 X   1      39.773  77.288  69.3060  0.00  0.00     0.000 C
ATOM      4  C4  A00 X   1      39.302  78.046  70.5750  0.00  0.00     0.000 C
ATOM      5  C5  A00 X   1      38.140  78.995  70.2830  0.00  0.00     0.000 C
ATOM      6  O5  A00 X   1      37.068  78.136  69.8340  0.00  0.00     0.000 O
ATOM      7   O  A00 X   1      40.913  77.989  68.8160  0.00  0.00     0.000 O
ATOM      9  HD  A00 X   1      40.760  78.280  69.6170  0.00  0.00     0.000 HD
ATOM      9   O  A00 X   1      38.937  77.142  71.6170  0.00  0.00     0.000 O
ATOM     11  HD  A00 X   1      38.784  77.432  72.4180  0.00  0.00     0.000 HD
ENDROOT
BRANCH 2 11
ATOM     11   O  A00 X   1      38.747  75.843  67.6190  0.00  0.00     0.000 O
ATOM     12   O  A00 X   1      40.809  74.729  67.0930  0.00  0.00     0.000 OA
ATOM     13   O  A00 X   1      40.192  76.735  65.8640  0.00  0.00     0.000 OA
ATOM     14   O  A00 X   1      38.957  74.722  65.5810  0.00  0.00     0.000 OA
ATOM     15   S  A00 X   1      39.765  75.507  66.4750  0.00  0.00     0.000 S
ENDBRANCH 2 11
BRANCH 5 16
ATOM     16   C  A00 X   1      38.462  80.133  69.3080  0.00  0.00     0.000 C
ATOM     17   O  A00 X   1      37.547  80.800  68.8720  0.00  0.00     0.000 OA
ATOM     18   O  A00 X   1      39.598  80.394  68.9640  0.00  0.00     0.000 OA
ENDBRANCH 5 16
BRANCH 1 19
ATOM     19  O4  A00 X   2      36.536  78.209  67.5020  0.00  0.00     0.000 O
BRANCH 19 23
ATOM     20  C1  A00 X   2      32.877  76.069  68.1340  0.00  0.00     0.000 C
ATOM     21  C2  A00 X   2      33.790  75.597  66.9770  0.00  0.00     0.000 C
ATOM     22  C3  A00 X   2      35.220  76.153  67.1430  0.00  0.00     0.000 C
ATOM     23  C4  A00 X   2      35.191  77.691  67.2950  0.00  0.00     0.000 C
ATOM     24  C5  A00 X   2      34.232  78.033  68.4680  0.00  0.00     0.000 C
ATOM     25  O5  A00 X   2      32.911  77.521  68.1570  0.00  0.00     0.000 O
ATOM     26   O  A00 X   2      36.043  75.633  66.0850  0.00  0.00     0.000 O
ATOM     28  HD  A00 X   2      35.479  75.858  65.4670  0.00  0.00     0.000 HD
BRANCH 21 30
ATOM     28   N  A00 X   2      32.599  75.282  66.1820  0.00  0.00     0.000 N
ATOM     30  HD  A00 X   2      33.262  74.862  65.8170  0.00  0.00     0.000 HD
ATOM     30   O  A00 X   2      33.082  73.421  64.8550  0.00  0.00     0.000 OA
ATOM     31   S  A00 X   2      32.789  74.800  64.6890  0.00  0.00     0.000 S
ATOM     32   O  A00 X   2      31.526  75.080  64.0790  0.00  0.00     0.000 OA
ATOM     33   O  A00 X   2      33.813  75.616  64.1080  0.00  0.00     0.000 OA
ENDBRANCH 21 30
BRANCH 24 34
ATOM     34   C  A00 X   2      34.202  79.494  68.9780  0.00  0.00     0.000 C
ATOM     35   O  A00 X   2      33.397  82.367  66.8910  0.00  0.00     0.000 OA
ATOM     36   O  A00 X   2      34.206  80.430  67.8820  0.00  0.00     0.000 O
ATOM     37   O  A00 X   2      31.983  80.490  67.1590  0.00  0.00     0.000 OA
ATOM     38   S  A00 X   2      32.937  81.354  67.7830  0.00  0.00     0.000 S
ATOM     39   O  A00 X   2      32.657  81.800  69.1150  0.00  0.00     0.000 OA
ENDBRANCH 24 34
BRANCH 20 40
ATOM     40  O4  A00 X   3      33.475  75.557  69.3340  0.00  0.00     0.000 O
BRANCH 40 44
ATOM     41  C1  A00 X   3      34.464  76.190  72.7610  0.00  0.00     0.000 C
ATOM     42  C2  A00 X   3      34.707  74.865  72.0050  0.00  0.00     0.000 C
ATOM     43  C3  A00 X   3      33.399  74.352  71.3490  0.00  0.00     0.000 C
ATOM     44  C4  A00 X   3      32.660  75.390  70.5140  0.00  0.00     0.000 C
ATOM     45  C5  A00 X   3      32.449  76.688  71.3420  0.00  0.00     0.000 C
ATOM     46  O5  A00 X   3      33.706  77.130  71.9510  0.00  0.00     0.000 O
ATOM     47   O  A00 X   3      33.485  73.088  70.6950  0.00  0.00     0.000 O
ATOM     49  HD  A00 X   3      32.967  73.476  70.1200  0.00  0.00     0.000 HD
BRANCH 42 49
ATOM     49   O  A00 X   3      35.727  75.124  71.0160  0.00  0.00     0.000 O
ATOM     50   O  A00 X   3      36.825  73.878  69.2910  0.00  0.00     0.000 OA
ATOM     51   O  A00 X   3      36.427  72.835  71.3760  0.00  0.00     0.000 OA
ATOM     52   O  A00 X   3      38.000  74.596  71.2780  0.00  0.00     0.000 OA
ATOM     53   S  A00 X   3      36.815  74.054  70.7100  0.00  0.00     0.000 S
ENDBRANCH 42 49
BRANCH 45 54
ATOM     54   C  A00 X   3      31.309  76.535  72.3560  0.00  0.00     0.000 C
ATOM     55   O  A00 X   3      30.908  77.493  72.9860  0.00  0.00     0.000 OA
ATOM     56   O  A00 X   3      30.786  75.449  72.5490  0.00  0.00     0.000 OA
ENDBRANCH 45 54
BRANCH 41 57
ATOM     57  O4  A00 X   4      33.903  75.960  74.0730  0.00  0.00     0.000 O
BRANCH 57 61
ATOM     58  C1  A00 X   4      34.331  78.007  77.8500  0.00  0.00     0.000 C
ATOM     59  C2  A00 X   4      33.736  78.784  76.6490  0.00  0.00     0.000 C
ATOM     60  C3  A00 X   4      33.301  77.873  75.4830  0.00  0.00     0.000 C
ATOM     61  C4  A00 X   4      34.394  76.846  75.1190  0.00  0.00     0.000 C
ATOM     62  C5  A00 X   4      34.684  76.042  76.4100  0.00  0.00     0.000 C
ATOM     63  O5  A00 X   4      35.207  76.938  77.4230  0.00  0.00     0.000 O
BRANCH 59 66
ATOM     64   N  A00 X   4      34.749  79.692  76.0830  0.00  0.00     0.000 N
ATOM     66  HD  A00 X   4      35.581  79.470  76.1740  0.00  0.00     0.000 HD
ATOM     66   O  A00 X   4      34.177  81.254  77.8250  0.00  0.00     0.000 OA
ATOM     67   S  A00 X   4      34.694  81.238  76.4930  0.00  0.00     0.000 S
ATOM     68   O  A00 X   4      36.078  81.589  76.3640  0.00  0.00     0.000 OA
ATOM     69   O  A00 X   4      33.857  81.747  75.4430  0.00  0.00     0.000 OA
ENDBRANCH 59 66
BRANCH 62 70
ATOM     70   C  A00 X   4      35.686  74.878  76.2190  0.00  0.00     0.000 C
ATOM     71   O  A00 X   4      39.237  75.042  75.5310  0.00  0.00     0.000 OA
ATOM     72   O  A00 X   4      37.528  73.799  74.4910  0.00  0.00     0.000 OA
ATOM     73   O  A00 X   4      37.025  75.400  76.2140  0.00  0.00     0.000 O
ATOM     74   O  A00 X   4      37.721  76.187  74.0450  0.00  0.00     0.000 OA
ATOM     75   S  A00 X   4      37.921  75.109  74.9600  0.00  0.00     0.000 S
ENDBRANCH 62 70
ENDBRANCH 57 61
ENDBRANCH 41 57
ENDBRANCH 40 44
ENDBRANCH 20 40
ENDBRANCH 19 23
ENDBRANCH 1 19
TORSDOF 14
ENDMDL
MODEL 75
REMARK VINA RESULT:      -1.5     83.100     87.474
ROOT
ATOM      1  C1  A00 X   1      54.866  59.892  88.0940  0.00  0.00     0.000 C
ATOM      2  C2  A00 X   1      53.352  59.703  88.3780  0.00  0.00     0.000 C
ATOM      3  C3  A00 X   1      52.596  58.708  87.4370  0.00  0.00     0.000 C
ATOM      4  C4  A00 X   1      53.342  58.322  86.1340  0.00  0.00     0.000 C
ATOM      5  C5  A00 X   1      54.392  59.361  85.7410  0.00  0.00     0.000 C
ATOM      6  O5  A00 X   1      55.339  59.358  86.8330  0.00  0.00     0.000 O
ATOM      7   O  A00 X   1      51.364  59.304  87.0370  0.00  0.00     0.000 O
ATOM      9  HD  A00 X   1      51.697  58.914  86.3390  0.00  0.00     0.000 HD
ATOM      9   O  A00 X   1      53.953  57.037  86.2430  0.00  0.00     0.000 O
ATOM     11  HD  A00 X   1      54.286  56.647  85.5460  0.00  0.00     0.000 HD
ENDROOT
BRANCH 2 11
ATOM     11   O  A00 X   1      53.213  59.257  89.7410  0.00  0.00     0.000 O
ATOM     12   O  A00 X   1      51.065  59.032  90.7910  0.00  0.00     0.000 OA
ATOM     13   O  A00 X   1      51.824  61.235  90.0940  0.00  0.00     0.000 OA
ATOM     14   O  A00 X   1      52.894  60.106  91.8930  0.00  0.00     0.000 OA
ATOM     15   S  A00 X   1      52.160  59.960  90.6650  0.00  0.00     0.000 S
ENDBRANCH 2 11
BRANCH 5 16
ATOM     16   C  A00 X   1      53.837  60.751  85.4140  0.00  0.00     0.000 C
ATOM     17   O  A00 X   1      54.618  61.670  85.2710  0.00  0.00     0.000 OA
ATOM     18   O  A00 X   1      52.648  60.965  85.2870  0.00  0.00     0.000 OA
ENDBRANCH 5 16
BRANCH 1 19
ATOM     19  O4  A00 X   2      55.307  61.258  88.2880  0.00  0.00     0.000 O
BRANCH 19 23
ATOM     20  C1  A00 X   2      59.126  60.123  89.8680  0.00  0.00     0.000 C
ATOM     21  C2  A00 X   2      58.017  60.499  90.8800  0.00  0.00     0.000 C
ATOM     22  C3  A00 X   2      56.626  60.457  90.2130  0.00  0.00     0.000 C
ATOM     23  C4  A00 X   2      56.605  61.339  88.9440  0.00  0.00     0.000 C
ATOM     24  C5  A00 X   2      57.768  60.877  88.0250  0.00  0.00     0.000 C
ATOM     25  O5  A00 X   2      59.021  61.034  88.7410  0.00  0.00     0.000 O
ATOM     26   O  A00 X   2      55.628  60.745  91.2070  0.00  0.00     0.000 O
ATOM     28  HD  A00 X   2      56.037  61.457  91.4830  0.00  0.00     0.000 HD
BRANCH 21 30
ATOM     28   N  A00 X   2      59.052  61.074  91.7440  0.00  0.00     0.000 N
ATOM     30  HD  A00 X   2      58.343  60.980  92.2320  0.00  0.00     0.000 HD
ATOM     30   O  A00 X   2      58.378  60.807  93.9650  0.00  0.00     0.000 OA
ATOM     31   S  A00 X   2      58.608  61.860  93.0410  0.00  0.00     0.000 S
ATOM     32   O  A00 X   2      59.735  62.689  93.3380  0.00  0.00     0.000 OA
ATOM     33   O  A00 X   2      57.479  62.666  92.6820  0.00  0.00     0.000 OA
ENDBRANCH 21 30
BRANCH 24 34
ATOM     34   C  A00 X   2      57.827  61.445  86.5870  0.00  0.00     0.000 C
ATOM     35   O  A00 X   2      58.072  64.993  85.8050  0.00  0.00     0.000 OA
ATOM     36   O  A00 X   2      57.565  62.863  86.5750  0.00  0.00     0.000 O
ATOM     37   O  A00 X   2      59.599  63.837  87.1920  0.00  0.00     0.000 OA
ATOM     38   S  A00 X   2      58.744  63.759  86.0470  0.00  0.00     0.000 S
ATOM     39   O  A00 X   2      59.257  63.107  84.8790  0.00  0.00     0.000 OA
ENDBRANCH 24 34
BRANCH 20 40
ATOM     40  O4  A00 X   3      58.820  58.789  89.4360  0.00  0.00     0.000 O
BRANCH 40 44
ATOM     41  C1  A00 X   3      58.561  56.431  86.6980  0.00  0.00     0.000 C
ATOM     42  C2  A00 X   3      58.224  56.111  88.1700  0.00  0.00     0.000 C
ATOM     43  C3  A00 X   3      59.384  56.532  89.1090  0.00  0.00     0.000 C
ATOM     44  C4  A00 X   3      59.876  57.959  88.9070  0.00  0.00     0.000 C
ATOM     45  C5  A00 X   3      60.199  58.203  87.4050  0.00  0.00     0.000 C
ATOM     46  O5  A00 X   3      59.082  57.782  86.5560  0.00  0.00     0.000 O
ATOM     47   O  A00 X   3      59.219  56.204  90.4880  0.00  0.00     0.000 O
ATOM     49  HD  A00 X   3      59.584  56.981  90.6000  0.00  0.00     0.000 HD
BRANCH 42 49
ATOM     49   O  A00 X   3      57.005  56.816  88.4880  0.00  0.00     0.000 O
ATOM     50   O  A00 X   3      55.631  57.114  90.4260  0.00  0.00     0.000 OA
ATOM     51   O  A00 X   3      56.517  54.969  89.9750  0.00  0.00     0.000 OA
ATOM     52   O  A00 X   3      54.870  55.837  88.5190  0.00  0.00     0.000 OA
ATOM     53   S  A00 X   3      55.933  56.159  89.4070  0.00  0.00     0.000 S
ENDBRANCH 42 49
BRANCH 45 54
ATOM     54   C  A00 X   3      61.536  57.569  87.0020  0.00  0.00     0.000 C
ATOM     55   O  A00 X   3      62.116  56.816  87.7560  0.00  0.00     0.000 OA
ATOM     56   O  A00 X   3      62.040  57.812  85.9160  0.00  0.00     0.000 OA
ENDBRANCH 45 54
BRANCH 41 57
ATOM     57  O4  A00 X   4      59.401  55.413  86.1080  0.00  0.00     0.000 O
BRANCH 57 61
ATOM     58  C1  A00 X   4      59.735  53.840  82.1020  0.00  0.00     0.000 C
ATOM     59  C2  A00 X   4      60.023  55.344  82.3340  0.00  0.00     0.000 C
ATOM     60  C3  A00 X   4      60.226  55.709  83.8190  0.00  0.00     0.000 C
ATOM     61  C4  A00 X   4      59.118  55.111  84.7120  0.00  0.00     0.000 C
ATOM     62  C5  A00 X   4      59.149  53.580  84.4780  0.00  0.00     0.000 C
ATOM     63  O5  A00 X   4      58.828  53.303  83.0910  0.00  0.00     0.000 O
BRANCH 59 66
ATOM     64   N  A00 X   4      58.873  56.147  81.8800  0.00  0.00     0.000 N
ATOM     66  HD  A00 X   4      58.092  55.773  81.8980  0.00  0.00     0.000 HD
ATOM     66   O  A00 X   4      59.759  55.971  79.6480  0.00  0.00     0.000 OA
ATOM     67   S  A00 X   4      58.958  56.847  80.4450  0.00  0.00     0.000 S
ATOM     68   O  A00 X   4      57.567  56.896  80.0990  0.00  0.00     0.000 OA
ATOM     69   O  A00 X   4      59.517  58.116  80.8140  0.00  0.00     0.000 OA
ENDBRANCH 59 66
BRANCH 62 70
ATOM     70   C  A00 X   4      58.173  52.784  85.3780  0.00  0.00     0.000 C
ATOM     71   O  A00 X   4      54.554  52.722  85.2890  0.00  0.00     0.000 OA
ATOM     72   O  A00 X   4      56.040  53.021  87.0910  0.00  0.00     0.000 OA
ATOM     73   O  A00 X   4      56.847  52.868  84.8310  0.00  0.00     0.000 O
ATOM     74   O  A00 X   4      55.665  54.849  85.5240  0.00  0.00     0.000 OA
ATOM     75   S  A00 X   4      55.711  53.440  85.7470  0.00  0.00     0.000 S
ENDBRANCH 62 70
ENDBRANCH 57 61
ENDBRANCH 41 57
ENDBRANCH 40 44
ENDBRANCH 20 40
ENDBRANCH 19 23
ENDBRANCH 1 19
TORSDOF 14
ENDMDL
MODEL 76
REMARK VINA RESULT:      -1.5     77.947     83.378
ROOT
ATOM      1  C1  A00 X   1      85.052  77.881  49.5830  0.00  0.00     0.000 C
ATOM      2  C2  A00 X   1      85.211  77.765  48.0430  0.00  0.00     0.000 C
ATOM      3  C3  A00 X   1      84.937  76.352  47.4280  0.00  0.00     0.000 C
ATOM      4  C4  A00 X   1      84.905  75.178  48.4400  0.00  0.00     0.000 C
ATOM      5  C5  A00 X   1      85.664  75.503  49.7260  0.00  0.00     0.000 C
ATOM      6  O5  A00 X   1      84.953  76.624  50.2980  0.00  0.00     0.000 O
ATOM      7   O  A00 X   1      85.971  76.053  46.4930  0.00  0.00     0.000 O
ATOM      9  HD  A00 X   1      85.813  75.328  46.9400  0.00  0.00     0.000 HD
ATOM      9   O  A00 X   1      83.566  74.795  48.7530  0.00  0.00     0.000 O
ATOM     11  HD  A00 X   1      83.408  74.071  49.2000  0.00  0.00     0.000 HD
ENDROOT
BRANCH 2 11
ATOM     11   O  A00 X   1      84.320  78.721  47.4370  0.00  0.00     0.000 O
ATOM     12   O  A00 X   1      84.290  79.103  45.0660  0.00  0.00     0.000 OA
ATOM     13   O  A00 X   1      86.294  79.643  46.3330  0.00  0.00     0.000 OA
ATOM     14   O  A00 X   1      84.304  80.912  46.6290  0.00  0.00     0.000 OA
ATOM     15   S  A00 X   1      84.859  79.631  46.2800  0.00  0.00     0.000 S
ENDBRANCH 2 11
BRANCH 5 16
ATOM     16   C  A00 X   1      87.164  75.755  49.5480  0.00  0.00     0.000 C
ATOM     17   O  A00 X   1      87.793  76.204  50.4840  0.00  0.00     0.000 OA
ATOM     18   O  A00 X   1      87.746  75.516  48.5080  0.00  0.00     0.000 OA
ENDBRANCH 5 16
BRANCH 1 19
ATOM     19  O4  A00 X   2      86.037  78.755  50.1840  0.00  0.00     0.000 O
BRANCH 19 23
ATOM     20  C1  A00 X   2      83.317  80.316  53.1050  0.00  0.00     0.000 C
ATOM     21  C2  A00 X   2      83.556  81.159  51.8280  0.00  0.00     0.000 C
ATOM     22  C3  A00 X   2      84.188  80.300  50.7130  0.00  0.00     0.000 C
ATOM     23  C4  A00 X   2      85.471  79.605  51.2230  0.00  0.00     0.000 C
ATOM     24  C5  A00 X   2      85.103  78.813  52.5070  0.00  0.00     0.000 C
ATOM     25  O5  A00 X   2      84.592  79.742  53.4980  0.00  0.00     0.000 O
ATOM     26   O  A00 X   2      84.326  81.107  49.5310  0.00  0.00     0.000 O
ATOM     28  HD  A00 X   2      84.716  81.752  49.9570  0.00  0.00     0.000 HD
BRANCH 21 30
ATOM     28   N  A00 X   2      83.404  82.366  52.6470  0.00  0.00     0.000 N
ATOM     30  HD  A00 X   2      83.335  82.613  51.8200  0.00  0.00     0.000 HD
ATOM     30   O  A00 X   2      82.480  84.042  51.3070  0.00  0.00     0.000 OA
ATOM     31   S  A00 X   2      83.697  83.772  51.9860  0.00  0.00     0.000 S
ATOM     32   O  A00 X   2      83.965  84.622  53.1050  0.00  0.00     0.000 OA
ATOM     33   O  A00 X   2      84.872  83.625  51.1800  0.00  0.00     0.000 OA
ENDBRANCH 21 30
BRANCH 24 34
ATOM     34   C  A00 X   2      86.158  77.842  53.0880  0.00  0.00     0.000 C
ATOM     35   O  A00 X   2      87.611  78.157  56.4120  0.00  0.00     0.000 OA
ATOM     36   O  A00 X   2      86.800  78.402  54.2510  0.00  0.00     0.000 O
ATOM     37   O  A00 X   2      85.288  78.019  55.9930  0.00  0.00     0.000 OA
ATOM     38   S  A00 X   2      86.593  77.597  55.5850  0.00  0.00     0.000 S
ATOM     39   O  A00 X   2      86.770  76.215  55.2560  0.00  0.00     0.000 OA
ENDBRANCH 24 34
BRANCH 20 40
ATOM     40  O4  A00 X   3      82.419  79.268  52.7140  0.00  0.00     0.000 O
BRANCH 40 44
ATOM     41  C1  A00 X   3      81.485  75.771  52.8770  0.00  0.00     0.000 C
ATOM     42  C2  A00 X   3      80.735  76.845  52.0600  0.00  0.00     0.000 C
ATOM     43  C3  A00 X   3      80.404  78.080  52.9370  0.00  0.00     0.000 C
ATOM     44  C4  A00 X   3      81.588  78.640  53.7150  0.00  0.00     0.000 C
ATOM     45  C5  A00 X   3      82.286  77.503  54.5130  0.00  0.00     0.000 C
ATOM     46  O5  A00 X   3      82.570  76.355  53.6490  0.00  0.00     0.000 O
ATOM     47   O  A00 X   3      79.633  79.102  52.3090  0.00  0.00     0.000 O
ATOM     49  HD  A00 X   3      80.165  79.621  52.7550  0.00  0.00     0.000 HD
BRANCH 42 49
ATOM     49   O  A00 X   3      81.585  77.200  50.9470  0.00  0.00     0.000 O
ATOM     50   O  A00 X   3      81.495  78.749  49.1240  0.00  0.00     0.000 OA
ATOM     51   O  A00 X   3      79.537  77.560  49.7080  0.00  0.00     0.000 OA
ATOM     52   O  A00 X   3      81.344  76.362  48.7670  0.00  0.00     0.000 OA
ATOM     53   S  A00 X   3      80.968  77.490  49.5480  0.00  0.00     0.000 S
ENDBRANCH 42 49
BRANCH 45 54
ATOM     54   C  A00 X   3      81.498  77.129  55.7740  0.00  0.00     0.000 C
ATOM     55   O  A00 X   3      81.974  76.379  56.6020  0.00  0.00     0.000 OA
ATOM     56   O  A00 X   3      80.378  77.576  55.9670  0.00  0.00     0.000 OA
ENDBRANCH 45 54
BRANCH 41 57
ATOM     57  O4  A00 X   4      80.576  74.964  53.6600  0.00  0.00     0.000 O
BRANCH 57 61
ATOM     58  C1  A00 X   4      80.615  70.817  54.8590  0.00  0.00     0.000 C
ATOM     59  C2  A00 X   4      81.760  71.740  55.3460  0.00  0.00     0.000 C
ATOM     60  C3  A00 X   4      81.457  73.242  55.1650  0.00  0.00     0.000 C
ATOM     61  C4  A00 X   4      80.924  73.553  53.7510  0.00  0.00     0.000 C
ATOM     62  C5  A00 X   4      79.662  72.677  53.5580  0.00  0.00     0.000 C
ATOM     63  O5  A00 X   4      80.040  71.277  53.6150  0.00  0.00     0.000 O
BRANCH 59 66
ATOM     64   N  A00 X   4      82.988  71.494  54.5680  0.00  0.00     0.000 N
ATOM     66  HD  A00 X   4      82.896  71.205  53.7570  0.00  0.00     0.000 HD
ATOM     66   O  A00 X   4      83.406  69.613  56.0120  0.00  0.00     0.000 OA
ATOM     67   S  A00 X   4      84.116  70.559  55.2090  0.00  0.00     0.000 S
ATOM     68   O  A00 X   4      84.719  70.029  54.0210  0.00  0.00     0.000 OA
ATOM     69   O  A00 X   4      84.910  71.546  55.8820  0.00  0.00     0.000 OA
ENDBRANCH 59 66
BRANCH 62 70
ATOM     70   C  A00 X   4      78.913  72.930  52.2270  0.00  0.00     0.000 C
ATOM     71   O  A00 X   4      79.958  72.123  48.8560  0.00  0.00     0.000 OA
ATOM     72   O  A00 X   4      79.113  74.125  49.7630  0.00  0.00     0.000 OA
ATOM     73   O  A00 X   4      79.581  72.229  51.1660  0.00  0.00     0.000 O
ATOM     74   O  A00 X   4      81.415  73.474  50.2220  0.00  0.00     0.000 OA
ATOM     75   S  A00 X   4      80.079  73.063  49.9350  0.00  0.00     0.000 S
ENDBRANCH 62 70
ENDBRANCH 57 61
ENDBRANCH 41 57
ENDBRANCH 40 44
ENDBRANCH 20 40
ENDBRANCH 19 23
ENDBRANCH 1 19
TORSDOF 14
ENDMDL
MODEL 77
REMARK VINA RESULT:      -1.5     60.926     65.596
ROOT
ATOM      1  C1  A00 X   1      55.319  44.349  66.9630  0.00  0.00     0.000 C
ATOM      2  C2  A00 X   1      56.665  43.773  67.4760  0.00  0.00     0.000 C
ATOM      3  C3  A00 X   1      57.768  44.821  67.8370  0.00  0.00     0.000 C
ATOM      4  C4  A00 X   1      57.528  46.256  67.3010  0.00  0.00     0.000 C
ATOM      5  C5  A00 X   1      56.584  46.273  66.0990  0.00  0.00     0.000 C
ATOM      6  O5  A00 X   1      55.334  45.754  66.6070  0.00  0.00     0.000 O
ATOM      7   O  A00 X   1      59.010  44.386  67.2870  0.00  0.00     0.000 O
ATOM      9  HD  A00 X   1      58.958  45.241  67.1570  0.00  0.00     0.000 HD
ATOM      9   O  A00 X   1      57.024  47.117  68.3230  0.00  0.00     0.000 O
ATOM     11  HD  A00 X   1      56.972  47.971  68.1930  0.00  0.00     0.000 HD
ENDROOT
BRANCH 2 11
ATOM     11   O  A00 X   1      56.383  42.969  68.6380  0.00  0.00     0.000 O
ATOM     12   O  A00 X   1      58.104  41.752  69.7890  0.00  0.00     0.000 OA
ATOM     13   O  A00 X   1      57.558  41.160  67.4930  0.00  0.00     0.000 OA
ATOM     14   O  A00 X   1      56.005  40.747  69.2460  0.00  0.00     0.000 OA
ATOM     15   S  A00 X   1      57.085  41.576  68.7850  0.00  0.00     0.000 S
ENDBRANCH 2 11
BRANCH 5 16
ATOM     16   C  A00 X   1      57.099  45.531  64.8610  0.00  0.00     0.000 C
ATOM     17   O  A00 X   1      56.333  45.339  63.9390  0.00  0.00     0.000 OA
ATOM     18   O  A00 X   1      58.244  45.136  64.7670  0.00  0.00     0.000 OA
ENDBRANCH 5 16
BRANCH 1 19
ATOM     19  O4  A00 X   2      54.727  43.545  65.9130  0.00  0.00     0.000 O
BRANCH 19 23
ATOM     20  C1  A00 X   2      50.711  44.187  67.2620  0.00  0.00     0.000 C
ATOM     21  C2  A00 X   2      51.406  42.872  67.6880  0.00  0.00     0.000 C
ATOM     22  C3  A00 X   2      52.935  42.975  67.5100  0.00  0.00     0.000 C
ATOM     23  C4  A00 X   2      53.286  43.399  66.0660  0.00  0.00     0.000 C
ATOM     24  C5  A00 X   2      52.517  44.712  65.7560  0.00  0.00     0.000 C
ATOM     25  O5  A00 X   2      51.094  44.462  65.8880  0.00  0.00     0.000 O
ATOM     26   O  A00 X   2      53.538  41.759  67.9820  0.00  0.00     0.000 O
ATOM     28  HD  A00 X   2      53.006  41.256  67.5200  0.00  0.00     0.000 HD
BRANCH 21 30
ATOM     28   N  A00 X   2      50.105  42.200  67.5980  0.00  0.00     0.000 N
ATOM     30  HD  A00 X   2      50.628  41.676  68.0470  0.00  0.00     0.000 HD
ATOM     30   O  A00 X   2      50.058  40.490  69.1890  0.00  0.00     0.000 OA
ATOM     31   S  A00 X   2      50.048  40.631  67.7760  0.00  0.00     0.000 S
ATOM     32   O  A00 X   2      48.821  40.262  67.1410  0.00  0.00     0.000 OA
ATOM     33   O  A00 X   2      51.162  40.083  67.0610  0.00  0.00     0.000 OA
ENDBRANCH 21 30
BRANCH 24 34
ATOM     34   C  A00 X   2      52.872  45.471  64.4550  0.00  0.00     0.000 C
ATOM     35   O  A00 X   2      50.521  46.082  61.7430  0.00  0.00     0.000 OA
ATOM     36   O  A00 X   2      51.877  45.254  63.4350  0.00  0.00     0.000 O
ATOM     37   O  A00 X   2      50.147  46.728  63.9870  0.00  0.00     0.000 OA
ATOM     38   S  A00 X   2      51.118  46.544  62.9530  0.00  0.00     0.000 S
ATOM     39   O  A00 X   2      52.113  47.561  62.7890  0.00  0.00     0.000 OA
ENDBRANCH 24 34
BRANCH 20 40
ATOM     40  O4  A00 X   3      51.245  45.205  68.1210  0.00  0.00     0.000 O
BRANCH 40 44
ATOM     41  C1  A00 X   3      52.542  48.569  68.4710  0.00  0.00     0.000 C
ATOM     42  C2  A00 X   3      52.422  47.548  69.6220  0.00  0.00     0.000 C
ATOM     43  C3  A00 X   3      50.996  46.943  69.6820  0.00  0.00     0.000 C
ATOM     44  C4  A00 X   3      50.479  46.407  68.3530  0.00  0.00     0.000 C
ATOM     45  C5  A00 X   3      50.628  47.491  67.2480  0.00  0.00     0.000 C
ATOM     46  O5  A00 X   3      51.985  48.041  67.2350  0.00  0.00     0.000 O
ATOM     47   O  A00 X   3      50.744  46.048  70.7640  0.00  0.00     0.000 O
ATOM     49  HD  A00 X   3      50.302  45.618  70.1570  0.00  0.00     0.000 HD
BRANCH 42 49
ATOM     49   O  A00 X   3      53.419  46.529  69.3890  0.00  0.00     0.000 O
ATOM     50   O  A00 X   3      54.082  44.481  70.4380  0.00  0.00     0.000 OA
ATOM     51   O  A00 X   3      53.557  46.342  71.7980  0.00  0.00     0.000 OA
ATOM     52   O  A00 X   3      55.505  46.436  70.4640  0.00  0.00     0.000 OA
ATOM     53   S  A00 X   3      54.194  45.899  70.5840  0.00  0.00     0.000 S
ENDBRANCH 42 49
BRANCH 45 54
ATOM     54   C  A00 X   3      49.542  48.567  67.3600  0.00  0.00     0.000 C
ATOM     55   O  A00 X   3      49.412  49.408  66.4930  0.00  0.00     0.000 OA
ATOM     56   O  A00 X   3      48.789  48.599  68.3210  0.00  0.00     0.000 OA
ENDBRANCH 45 54
BRANCH 41 57
ATOM     57  O4  A00 X   4      52.016  49.862  68.8460  0.00  0.00     0.000 O
BRANCH 57 61
ATOM     58  C1  A00 X   4      53.111  53.901  67.7880  0.00  0.00     0.000 C
ATOM     59  C2  A00 X   4      52.638  52.943  66.6660  0.00  0.00     0.000 C
ATOM     60  C3  A00 X   4      51.942  51.673  67.1950  0.00  0.00     0.000 C
ATOM     61  C4  A00 X   4      52.753  51.004  68.3260  0.00  0.00     0.000 C
ATOM     62  C5  A00 X   4      52.927  52.077  69.4300  0.00  0.00     0.000 C
ATOM     63  O5  A00 X   4      53.697  53.187  68.9000  0.00  0.00     0.000 O
BRANCH 59 66
ATOM     64   N  A00 X   4      53.790  52.460  65.8830  0.00  0.00     0.000 N
ATOM     66  HD  A00 X   4      54.555  52.414  66.2850  0.00  0.00     0.000 HD
ATOM     66   O  A00 X   4      53.692  54.528  64.6520  0.00  0.00     0.000 OA
ATOM     67   S  A00 X   4      54.105  53.170  64.4840  0.00  0.00     0.000 S
ATOM     68   O  A00 X   4      55.522  52.962  64.4030  0.00  0.00     0.000 OA
ATOM     69   O  A00 X   4      53.337  52.340  63.6000  0.00  0.00     0.000 OA
ENDBRANCH 59 66
BRANCH 62 70
ATOM     70   C  A00 X   4      53.628  51.560  70.7090  0.00  0.00     0.000 C
ATOM     71   O  A00 X   4      57.084  50.576  71.1530  0.00  0.00     0.000 OA
ATOM     72   O  A00 X   4      55.088  49.480  71.7520  0.00  0.00     0.000 OA
ATOM     73   O  A00 X   4      55.048  51.529  70.4930  0.00  0.00     0.000 O
ATOM     74   O  A00 X   4      55.794  49.504  69.4200  0.00  0.00     0.000 OA
ATOM     75   S  A00 X   4      55.790  50.161  70.6880  0.00  0.00     0.000 S
ENDBRANCH 62 70
ENDBRANCH 57 61
ENDBRANCH 41 57
ENDBRANCH 40 44
ENDBRANCH 20 40
ENDBRANCH 19 23
ENDBRANCH 1 19
TORSDOF 14
ENDMDL
MODEL 78
REMARK VINA RESULT:      -1.5     38.941     43.859
ROOT
ATOM      1  C1  A00 X   1      62.688  23.520  37.4530  0.00  0.00     0.000 C
ATOM      2  C2  A00 X   1      63.992  24.229  37.9090  0.00  0.00     0.000 C
ATOM      3  C3  A00 X   1      63.813  25.427  38.8980  0.00  0.00     0.000 C
ATOM      4  C4  A00 X   1      62.373  25.990  39.0140  0.00  0.00     0.000 C
ATOM      5  C5  A00 X   1      61.525  25.662  37.7850  0.00  0.00     0.000 C
ATOM      6  O5  A00 X   1      61.456  24.218  37.7620  0.00  0.00     0.000 O
ATOM      7   O  A00 X   1      64.636  26.506  38.4630  0.00  0.00     0.000 O
ATOM      9  HD  A00 X   1      63.881  26.847  38.7150  0.00  0.00     0.000 HD
ATOM      9   O  A00 X   1      61.720  25.516  40.1910  0.00  0.00     0.000 O
ATOM     11  HD  A00 X   1      60.965  25.857  40.4430  0.00  0.00     0.000 HD
ENDROOT
BRANCH 2 11
ATOM     11   O  A00 X   1      64.839  23.237  38.5210  0.00  0.00     0.000 O
ATOM     12   O  A00 X   1      67.056  23.756  39.2830  0.00  0.00     0.000 OA
ATOM     13   O  A00 X   1      66.547  23.911  36.9100  0.00  0.00     0.000 OA
ATOM     14   O  A00 X   1      66.598  21.795  37.9950  0.00  0.00     0.000 OA
ATOM     15   S  A00 X   1      66.361  23.205  38.1480  0.00  0.00     0.000 S
ENDBRANCH 2 11
BRANCH 5 16
ATOM     16   C  A00 X   1      62.024  26.273  36.4710  0.00  0.00     0.000 C
ATOM     17   O  A00 X   1      61.521  25.903  35.4310  0.00  0.00     0.000 OA
ATOM     18   O  A00 X   1      62.897  27.117  36.4350  0.00  0.00     0.000 OA
ENDBRANCH 5 16
BRANCH 1 19
ATOM     19  O4  A00 X   2      62.728  23.108  36.0650  0.00  0.00     0.000 O
BRANCH 19 23
ATOM     20  C1  A00 X   2      60.558  19.479  36.7590  0.00  0.00     0.000 C
ATOM     21  C2  A00 X   2      62.102  19.386  36.6910  0.00  0.00     0.000 C
ATOM     22  C3  A00 X   2      62.744  20.777  36.8730  0.00  0.00     0.000 C
ATOM     23  C4  A00 X   2      62.158  21.784  35.8580  0.00  0.00     0.000 C
ATOM     24  C5  A00 X   2      60.612  21.770  36.0140  0.00  0.00     0.000 C
ATOM     25  O5  A00 X   2      60.129  20.428  35.7470  0.00  0.00     0.000 O
ATOM     26   O  A00 X   2      64.174  20.629  36.8710  0.00  0.00     0.000 O
ATOM     28  HD  A00 X   2      64.175  20.161  36.1420  0.00  0.00     0.000 HD
BRANCH 21 30
ATOM     28   N  A00 X   2      61.957  18.067  36.0680  0.00  0.00     0.000 N
ATOM     30  HD  A00 X   2      62.779  18.131  36.3320  0.00  0.00     0.000 HD
ATOM     30   O  A00 X   2      63.783  16.757  36.7060  0.00  0.00     0.000 OA
ATOM     31   S  A00 X   2      63.250  17.338  35.5250  0.00  0.00     0.000 S
ATOM     32   O  A00 X   2      62.738  16.405  34.5700  0.00  0.00     0.000 OA
ATOM     33   O  A00 X   2      64.052  18.330  34.8710  0.00  0.00     0.000 OA
ENDBRANCH 21 30
BRANCH 24 34
ATOM     34   C  A00 X   2      59.798  22.856  35.2730  0.00  0.00     0.000 C
ATOM     35   O  A00 X   2      57.398  22.157  32.6250  0.00  0.00     0.000 OA
ATOM     36   O  A00 X   2      59.212  22.336  34.0630  0.00  0.00     0.000 O
ATOM     37   O  A00 X   2      57.299  21.200  34.7850  0.00  0.00     0.000 OA
ATOM     38   S  A00 X   2      57.640  22.357  34.0160  0.00  0.00     0.000 S
ATOM     39   O  A00 X   2      57.237  23.634  34.5250  0.00  0.00     0.000 OA
ENDBRANCH 24 34
BRANCH 20 40
ATOM     40  O4  A00 X   3      60.258  19.999  38.0620  0.00  0.00     0.000 O
BRANCH 40 44
ATOM     41  C1  A00 X   3      58.303  22.276  40.0920  0.00  0.00     0.000 C
ATOM     42  C2  A00 X   3      59.401  21.336  40.6340  0.00  0.00     0.000 C
ATOM     43  C3  A00 X   3      59.178  19.881  40.1450  0.00  0.00     0.000 C
ATOM     44  C4  A00 X   3      58.961  19.743  38.6440  0.00  0.00     0.000 C
ATOM     45  C5  A00 X   3      57.841  20.714  38.1760  0.00  0.00     0.000 C
ATOM     46  O5  A00 X   3      58.087  22.072  38.6680  0.00  0.00     0.000 O
ATOM     47   O  A00 X   3      60.086  18.907  40.6560  0.00  0.00     0.000 O
ATOM     49  HD  A00 X   3      60.032  18.598  39.8490  0.00  0.00     0.000 HD
BRANCH 42 49
ATOM     49   O  A00 X   3      60.668  21.858  40.1760  0.00  0.00     0.000 O
ATOM     50   O  A00 X   3      62.968  21.211  40.3360  0.00  0.00     0.000 OA
ATOM     51   O  A00 X   3      61.585  20.992  42.2420  0.00  0.00     0.000 OA
ATOM     52   O  A00 X   3      62.118  23.165  41.4800  0.00  0.00     0.000 OA
ATOM     53   S  A00 X   3      61.919  21.809  41.1010  0.00  0.00     0.000 S
ENDBRANCH 42 49
BRANCH 45 54
ATOM     54   C  A00 X   3      56.447  20.186  38.5350  0.00  0.00     0.000 C
ATOM     55   O  A00 X   3      55.449  20.757  38.1430  0.00  0.00     0.000 OA
ATOM     56   O  A00 X   3      56.314  19.184  39.2200  0.00  0.00     0.000 OA
ENDBRANCH 45 54
BRANCH 41 57
ATOM     57  O4  A00 X   4      57.097  22.201  40.8850  0.00  0.00     0.000 O
BRANCH 57 61
ATOM     58  C1  A00 X   4      54.095  25.116  41.9480  0.00  0.00     0.000 C
ATOM     59  C2  A00 X   4      54.311  24.787  40.4500  0.00  0.00     0.000 C
ATOM     60  C3  A00 X   4      55.130  23.501  40.2150  0.00  0.00     0.000 C
ATOM     61  C4  A00 X   4      56.407  23.468  41.0810  0.00  0.00     0.000 C
ATOM     62  C5  A00 X   4      55.939  23.601  42.5520  0.00  0.00     0.000 C
ATOM     63  O5  A00 X   4      55.288  24.885  42.7310  0.00  0.00     0.000 O
BRANCH 59 66
ATOM     64   N  A00 X   4      55.078  25.866  39.8010  0.00  0.00     0.000 N
ATOM     66  HD  A00 X   4      55.619  26.326  40.2970  0.00  0.00     0.000 HD
ATOM     66   O  A00 X   4      53.006  27.077  39.5960  0.00  0.00     0.000 OA
ATOM     67   S  A00 X   4      54.276  26.959  38.9510  0.00  0.00     0.000 S
ATOM     68   O  A00 X   4      55.149  28.088  39.0930  0.00  0.00     0.000 OA
ATOM     69   O  A00 X   4      54.314  26.346  37.6530  0.00  0.00     0.000 OA
ENDBRANCH 59 66
BRANCH 62 70
ATOM     70   C  A00 X   4      57.078  23.477  43.5910  0.00  0.00     0.000 C
ATOM     71   O  A00 X   4      59.785  25.786  44.2650  0.00  0.00     0.000 OA
ATOM     72   O  A00 X   4      59.807  23.460  43.9000  0.00  0.00     0.000 OA
ATOM     73   O  A00 X   4      57.776  24.730  43.6820  0.00  0.00     0.000 O
ATOM     74   O  A00 X   4      59.498  24.971  42.0130  0.00  0.00     0.000 OA
ATOM     75   S  A00 X   4      59.321  24.730  43.4090  0.00  0.00     0.000 S
ENDBRANCH 62 70
ENDBRANCH 57 61
ENDBRANCH 41 57
ENDBRANCH 40 44
ENDBRANCH 20 40
ENDBRANCH 19 23
ENDBRANCH 1 19
TORSDOF 14
ENDMDL
MODEL 79
REMARK VINA RESULT:      -1.5     43.634     49.986
ROOT
ATOM      1  C1  A00 X   1      64.941  17.101  44.8450  0.00  0.00     0.000 C
ATOM      2  C2  A00 X   1      66.054  18.070  45.3260  0.00  0.00     0.000 C
ATOM      3  C3  A00 X   1      66.544  19.127  44.2820  0.00  0.00     0.000 C
ATOM      4  C4  A00 X   1      66.139  18.851  42.8110  0.00  0.00     0.000 C
ATOM      5  C5  A00 X   1      65.825  17.375  42.5660  0.00  0.00     0.000 C
ATOM      6  O5  A00 X   1      64.691  17.095  43.4170  0.00  0.00     0.000 O
ATOM      7   O  A00 X   1      67.969  19.169  44.3090  0.00  0.00     0.000 O
ATOM      9  HD  A00 X   1      67.728  19.210  43.4780  0.00  0.00     0.000 HD
ATOM      9   O  A00 X   1      65.026  19.653  42.4170  0.00  0.00     0.000 O
ATOM     11  HD  A00 X   1      64.785  19.694  41.5860  0.00  0.00     0.000 HD
ENDROOT
BRANCH 2 11
ATOM     11   O  A00 X   1      65.563  18.756  46.4940  0.00  0.00     0.000 O
ATOM     12   O  A00 X   1      66.940  20.269  47.7510  0.00  0.00     0.000 OA
ATOM     13   O  A00 X   1      67.547  17.916  47.6450  0.00  0.00     0.000 OA
ATOM     14   O  A00 X   1      65.599  18.606  48.8230  0.00  0.00     0.000 OA
ATOM     15   S  A00 X   1      66.501  18.897  47.7420  0.00  0.00     0.000 S
ENDBRANCH 2 11
BRANCH 5 16
ATOM     16   C  A00 X   1      67.002  16.418  42.7790  0.00  0.00     0.000 C
ATOM     17   O  A00 X   1      66.785  15.224  42.7940  0.00  0.00     0.000 OA
ATOM     18   O  A00 X   1      68.143  16.810  42.9240  0.00  0.00     0.000 OA
ENDBRANCH 5 16
BRANCH 1 19
ATOM     19  O4  A00 X   2      65.108  15.756  45.3570  0.00  0.00     0.000 O
BRANCH 19 23
ATOM     20  C1  A00 X   2      60.903  15.108  45.8690  0.00  0.00     0.000 C
ATOM     21  C2  A00 X   2      61.721  15.511  47.1200  0.00  0.00     0.000 C
ATOM     22  C3  A00 X   2      63.080  16.120  46.7140  0.00  0.00     0.000 C
ATOM     23  C4  A00 X   2      63.848  15.159  45.7790  0.00  0.00     0.000 C
ATOM     24  C5  A00 X   2      62.919  14.818  44.5820  0.00  0.00     0.000 C
ATOM     25  O5  A00 X   2      61.714  14.189  45.0900  0.00  0.00     0.000 O
ATOM     26   O  A00 X   2      63.770  16.540  47.9030  0.00  0.00     0.000 O
ATOM     28  HD  A00 X   2      63.653  15.779  48.3010  0.00  0.00     0.000 HD
BRANCH 21 30
ATOM     28   N  A00 X   2      60.841  14.659  47.9250  0.00  0.00     0.000 N
ATOM     30  HD  A00 X   2      61.264  15.175  48.4770  0.00  0.00     0.000 HD
ATOM     30   O  A00 X   2      60.659  15.605  50.0530  0.00  0.00     0.000 OA
ATOM     31   S  A00 X   2      61.190  14.434  49.4500  0.00  0.00     0.000 S
ATOM     32   O  A00 X   2      60.506  13.222  49.7790  0.00  0.00     0.000 OA
ATOM     33   O  A00 X   2      62.607  14.244  49.5360  0.00  0.00     0.000 OA
ENDBRANCH 21 30
BRANCH 24 34
ATOM     34   C  A00 X   2      63.530  14.056  43.3830  0.00  0.00     0.000 C
ATOM     35   O  A00 X   2      65.125  10.793  43.6380  0.00  0.00     0.000 OA
ATOM     36   O  A00 X   2      64.388  12.986  43.8260  0.00  0.00     0.000 O
ATOM     37   O  A00 X   2      62.919  11.246  44.3610  0.00  0.00     0.000 OA
ATOM     38   S  A00 X   2      63.936  11.542  43.3980  0.00  0.00     0.000 S
ATOM     39   O  A00 X   2      63.542  11.632  42.0240  0.00  0.00     0.000 OA
ENDBRANCH 24 34
BRANCH 20 40
ATOM     40  O4  A00 X   3      60.705  16.320  45.1280  0.00  0.00     0.000 O
BRANCH 40 44
ATOM     41  C1  A00 X   3      60.706  17.974  41.9040  0.00  0.00     0.000 C
ATOM     42  C2  A00 X   3      60.418  18.672  43.2520  0.00  0.00     0.000 C
ATOM     43  C3  A00 X   3      59.338  17.902  44.0550  0.00  0.00     0.000 C
ATOM     44  C4  A00 X   3      59.602  16.409  44.2000  0.00  0.00     0.000 C
ATOM     45  C5  A00 X   3      59.877  15.779  42.8060  0.00  0.00     0.000 C
ATOM     46  O5  A00 X   3      60.894  16.543  42.0790  0.00  0.00     0.000 O
ATOM     47   O  A00 X   3      58.928  18.504  45.2820  0.00  0.00     0.000 O
ATOM     49  HD  A00 X   3      58.924  17.682  45.5530  0.00  0.00     0.000 HD
BRANCH 42 49
ATOM     49   O  A00 X   3      61.668  18.734  43.9720  0.00  0.00     0.000 O
ATOM     50   O  A00 X   3      62.395  19.505  46.1190  0.00  0.00     0.000 OA
ATOM     51   O  A00 X   3      60.841  20.809  44.9030  0.00  0.00     0.000 OA
ATOM     52   O  A00 X   3      63.050  20.630  44.0810  0.00  0.00     0.000 OA
ATOM     53   S  A00 X   3      62.023  19.986  44.8250  0.00  0.00     0.000 S
ENDBRANCH 42 49
BRANCH 45 54
ATOM     54   C  A00 X   3      58.584  15.583  42.0060  0.00  0.00     0.000 C
ATOM     55   O  A00 X   3      58.581  14.924  40.9870  0.00  0.00     0.000 OA
ATOM     56   O  A00 X   3      57.535  16.086  42.3790  0.00  0.00     0.000 OA
ENDBRANCH 45 54
BRANCH 41 57
ATOM     57  O4  A00 X   4      59.723  18.320  40.9030  0.00  0.00     0.000 O
BRANCH 57 61
ATOM     58  C1  A00 X   4      59.945  18.832  36.6220  0.00  0.00     0.000 C
ATOM     59  C2  A00 X   4      60.288  17.446  37.2220  0.00  0.00     0.000 C
ATOM     60  C3  A00 X   4      59.834  17.279  38.6860  0.00  0.00     0.000 C
ATOM     61  C4  A00 X   4      60.246  18.487  39.5550  0.00  0.00     0.000 C
ATOM     62  C5  A00 X   4      59.621  19.737  38.8880  0.00  0.00     0.000 C
ATOM     63  O5  A00 X   4      60.185  19.904  37.5620  0.00  0.00     0.000 O
BRANCH 59 66
ATOM     64   N  A00 X   4      61.751  17.268  37.2320  0.00  0.00     0.000 N
ATOM     66  HD  A00 X   4      62.240  17.981  37.2780  0.00  0.00     0.000 HD
ATOM     66   O  A00 X   4      61.586  16.598  34.9250  0.00  0.00     0.000 OA
ATOM     67   S  A00 X   4      62.416  16.392  36.0700  0.00  0.00     0.000 S
ATOM     68   O  A00 X   4      63.716  16.993  36.0050  0.00  0.00     0.000 OA
ATOM     69   O  A00 X   4      62.397  15.096  36.6870  0.00  0.00     0.000 OA
ENDBRANCH 59 66
BRANCH 62 70
ATOM     70   C  A00 X   4      59.833  21.049  39.6810  0.00  0.00     0.000 C
ATOM     71   O  A00 X   4      62.901  22.894  40.2210  0.00  0.00     0.000 OA
ATOM     72   O  A00 X   4      61.245  22.192  41.7410  0.00  0.00     0.000 OA
ATOM     73   O  A00 X   4      61.155  21.550  39.4240  0.00  0.00     0.000 O
ATOM     74   O  A00 X   4      62.829  20.568  40.8520  0.00  0.00     0.000 OA
ATOM     75   S  A00 X   4      62.104  21.781  40.6520  0.00  0.00     0.000 S
ENDBRANCH 62 70
ENDBRANCH 57 61
ENDBRANCH 41 57
ENDBRANCH 40 44
ENDBRANCH 20 40
ENDBRANCH 19 23
ENDBRANCH 1 19
TORSDOF 14
ENDMDL
MODEL 80
REMARK VINA RESULT:      -1.5     90.321     94.880
ROOT
ATOM      1  C1  A00 X   1      52.103  76.396  91.2250  0.00  0.00     0.000 C
ATOM      2  C2  A00 X   1      51.742  76.489  92.7310  0.00  0.00     0.000 C
ATOM      3  C3  A00 X   1      51.119  77.843  93.2060  0.00  0.00     0.000 C
ATOM      4  C4  A00 X   1      51.275  79.032  92.2240  0.00  0.00     0.000 C
ATOM      5  C5  A00 X   1      52.441  78.832  91.2560  0.00  0.00     0.000 C
ATOM      6  O5  A00 X   1      52.091  77.651  90.5000  0.00  0.00     0.000 O
ATOM      7   O  A00 X   1      51.752  78.237  94.4220  0.00  0.00     0.000 O
ATOM      9  HD  A00 X   1      51.661  78.950  93.9390  0.00  0.00     0.000 HD
ATOM      9   O  A00 X   1      50.073  79.263  91.4900  0.00  0.00     0.000 O
ATOM     11  HD  A00 X   1      49.982  79.976  91.0060  0.00  0.00     0.000 HD
ENDROOT
BRANCH 2 11
ATOM     11   O  A00 X   1      50.824  75.420  93.0290  0.00  0.00     0.000 O
ATOM     12   O  A00 X   1      49.702  75.262  95.1470  0.00  0.00     0.000 OA
ATOM     13   O  A00 X   1      52.125  75.064  95.0660  0.00  0.00     0.000 OA
ATOM     14   O  A00 X   1      50.746  73.365  94.1350  0.00  0.00     0.000 OA
ATOM     15   S  A00 X   1      50.862  74.762  94.4520  0.00  0.00     0.000 S
ENDBRANCH 2 11
BRANCH 5 16
ATOM     16   C  A00 X   1      53.822  78.752  91.9130  0.00  0.00     0.000 C
ATOM     17   O  A00 X   1      54.766  78.389  91.2410  0.00  0.00     0.000 OA
ATOM     18   O  A00 X   1      54.008  79.046  93.0780  0.00  0.00     0.000 OA
ENDBRANCH 5 16
BRANCH 1 19
ATOM     19  O4  A00 X   2      53.327  75.659  90.9850  0.00  0.00     0.000 O
BRANCH 19 23
ATOM     20  C1  A00 X   2      51.821  73.694  87.4880  0.00  0.00     0.000 C
ATOM     21  C2  A00 X   2      51.775  72.911  88.8230  0.00  0.00     0.000 C
ATOM     22  C3  A00 X   2      51.931  73.866  90.0250  0.00  0.00     0.000 C
ATOM     23  C4  A00 X   2      53.208  74.724  89.8750  0.00  0.00     0.000 C
ATOM     24  C5  A00 X   2      53.142  75.438  88.4980  0.00  0.00     0.000 C
ATOM     25  O5  A00 X   2      53.071  74.432  87.4530  0.00  0.00     0.000 O
ATOM     26   O  A00 X   2      51.813  73.103  91.2380  0.00  0.00     0.000 O
ATOM     28  HD  A00 X   2      52.391  72.512  90.9810  0.00  0.00     0.000 HD
BRANCH 21 30
ATOM     28   N  A00 X   2      52.037  71.681  88.0690  0.00  0.00     0.000 N
ATOM     30  HD  A00 X   2      51.750  71.441  88.8500  0.00  0.00     0.000 HD
ATOM     30   O  A00 X   2      50.969  69.916  89.1650  0.00  0.00     0.000 OA
ATOM     31   S  A00 X   2      52.291  70.341  88.8690  0.00  0.00     0.000 S
ATOM     32   O  A00 X   2      52.996  69.518  87.9350  0.00  0.00     0.000 OA
ATOM     33   O  A00 X   2      53.133  70.665  89.9810  0.00  0.00     0.000 OA
ENDBRANCH 21 30
BRANCH 24 34
ATOM     34   C  A00 X   2      54.189  76.537  88.1990  0.00  0.00     0.000 C
ATOM     35   O  A00 X   2      56.631  76.349  85.5050  0.00  0.00     0.000 OA
ATOM     36   O  A00 X   2      55.228  76.045  87.3290  0.00  0.00     0.000 O
ATOM     37   O  A00 X   2      54.295  76.158  85.1870  0.00  0.00     0.000 OA
ATOM     38   S  A00 X   2      55.342  76.776  85.9410  0.00  0.00     0.000 S
ATOM     39   O  A00 X   2      55.227  78.178  86.2110  0.00  0.00     0.000 OA
ENDBRANCH 24 34
BRANCH 20 40
ATOM     40  O4  A00 X   3      50.721  74.614  87.5400  0.00  0.00     0.000 O
BRANCH 40 44
ATOM     41  C1  A00 X   3      49.485  77.968  86.9480  0.00  0.00     0.000 C
ATOM     42  C2  A00 X   3      48.650  76.814  87.5440  0.00  0.00     0.000 C
ATOM     43  C3  A00 X   3      48.749  75.543  86.6620  0.00  0.00     0.000 C
ATOM     44  C4  A00 X   3      50.172  75.128  86.3070  0.00  0.00     0.000 C
ATOM     45  C5  A00 X   3      50.945  76.338  85.7110  0.00  0.00     0.000 C
ATOM     46  O5  A00 X   3      50.815  77.517  86.5690  0.00  0.00     0.000 O
ATOM     47   O  A00 X   3      47.947  74.437  87.0710  0.00  0.00     0.000 O
ATOM     49  HD  A00 X   3      48.645  73.986  86.8300  0.00  0.00     0.000 HD
BRANCH 42 49
ATOM     49   O  A00 X   3      49.152  76.573  88.8770  0.00  0.00     0.000 O
ATOM     50   O  A00 X   3      48.677  75.044  90.6560  0.00  0.00     0.000 OA
ATOM     51   O  A00 X   3      46.875  75.988  89.4520  0.00  0.00     0.000 OA
ATOM     52   O  A00 X   3      48.165  77.400  90.8410  0.00  0.00     0.000 OA
ATOM     53   S  A00 X   3      48.171  76.227  90.0360  0.00  0.00     0.000 S
ENDBRANCH 42 49
BRANCH 45 54
ATOM     54   C  A00 X   3      50.545  76.605  84.2550  0.00  0.00     0.000 C
ATOM     55   O  A00 X   3      51.212  77.338  83.5540  0.00  0.00     0.000 OA
ATOM     56   O  A00 X   3      49.549  76.086  83.7750  0.00  0.00     0.000 OA
ENDBRANCH 45 54
BRANCH 41 57
ATOM     57  O4  A00 X   4      48.774  78.651  85.8920  0.00  0.00     0.000 O
BRANCH 57 61
ATOM     58  C1  A00 X   4      48.749  82.752  84.5410  0.00  0.00     0.000 C
ATOM     59  C2  A00 X   4      50.073  81.952  84.4580  0.00  0.00     0.000 C
ATOM     60  C3  A00 X   4      49.883  80.430  84.6200  0.00  0.00     0.000 C
ATOM     61  C4  A00 X   4      48.990  80.090  85.8330  0.00  0.00     0.000 C
ATOM     62  C5  A00 X   4      47.646  80.825  85.6030  0.00  0.00     0.000 C
ATOM     63  O5  A00 X   4      47.881  82.256  85.5850  0.00  0.00     0.000 O
BRANCH 59 66
ATOM     64   N  A00 X   4      50.929  82.391  85.5750  0.00  0.00     0.000 N
ATOM     66  HD  A00 X   4      50.536  82.707  86.2800  0.00  0.00     0.000 HD
ATOM     66   O  A00 X   4      51.620  84.236  84.1900  0.00  0.00     0.000 OA
ATOM     67   S  A00 X   4      52.106  83.429  85.2650  0.00  0.00     0.000 S
ATOM     68   O  A00 X   4      52.208  84.090  86.5340  0.00  0.00     0.000 OA
ATOM     69   O  A00 X   4      53.180  82.519  84.9870  0.00  0.00     0.000 OA
ENDBRANCH 59 66
BRANCH 62 70
ATOM     70   C  A00 X   4      46.567  80.517  86.6690  0.00  0.00     0.000 C
ATOM     71   O  A00 X   4      46.498  81.476  90.1590  0.00  0.00     0.000 OA
ATOM     72   O  A00 X   4      46.145  79.385  89.1350  0.00  0.00     0.000 OA
ATOM     73   O  A00 X   4      46.826  81.298  87.8460  0.00  0.00     0.000 O
ATOM     74   O  A00 X   4      48.411  80.260  89.3360  0.00  0.00     0.000 OA
ATOM     75   S  A00 X   4      47.016  80.537  89.2040  0.00  0.00     0.000 S
ENDBRANCH 62 70
ENDBRANCH 57 61
ENDBRANCH 41 57
ENDBRANCH 40 44
ENDBRANCH 20 40
ENDBRANCH 19 23
ENDBRANCH 1 19
TORSDOF 14
ENDMDL
MODEL 81
REMARK VINA RESULT:      -1.5    110.328    115.411
ROOT
ATOM      1  C1  A00 X   1     109.059  29.900  95.9350  0.00  0.00     0.000 C
ATOM      2  C2  A00 X   1     109.776  28.791  96.7520  0.00  0.00     0.000 C
ATOM      3  C3  A00 X   1     109.303  27.325  96.4820  0.00  0.00     0.000 C
ATOM      4  C4  A00 X   1     107.956  27.185  95.7270  0.00  0.00     0.000 C
ATOM      5  C5  A00 X   1     107.086  28.434  95.8630  0.00  0.00     0.000 C
ATOM      6  O5  A00 X   1     107.856  29.487  95.2410  0.00  0.00     0.000 O
ATOM      7   O  A00 X   1     109.138  26.660  97.7320  0.00  0.00     0.000 O
ATOM      9  HD  A00 X   1     108.473  26.427  97.2290  0.00  0.00     0.000 HD
ATOM      9   O  A00 X   1     108.160  26.887  94.3460  0.00  0.00     0.000 O
ATOM     11  HD  A00 X   1     107.495  26.654  93.8430  0.00  0.00     0.000 HD
ENDROOT
BRANCH 2 11
ATOM     11   O  A00 X   1     111.187  28.888  96.4780  0.00  0.00     0.000 O
ATOM     12   O  A00 X   1     112.750  27.248  97.2730  0.00  0.00     0.000 OA
ATOM     13   O  A00 X   1     111.526  28.603  98.8800  0.00  0.00     0.000 OA
ATOM     14   O  A00 X   1     113.175  29.591  97.4790  0.00  0.00     0.000 OA
ATOM     15   S  A00 X   1     112.206  28.537  97.6160  0.00  0.00     0.000 S
ENDBRANCH 2 11
BRANCH 5 16
ATOM     16   C  A00 X   1     106.641  28.762  97.2920  0.00  0.00     0.000 C
ATOM     17   O  A00 X   1     106.135  29.843  97.5090  0.00  0.00     0.000 OA
ATOM     18   O  A00 X   1     106.771  27.978  98.2110  0.00  0.00     0.000 OA
ENDBRANCH 5 16
BRANCH 1 19
ATOM     19  O4  A00 X   2     108.838  31.108  96.7030  0.00  0.00     0.000 O
BRANCH 19 23
ATOM     20  C1  A00 X   2     109.755  33.720  93.4320  0.00  0.00     0.000 C
ATOM     21  C2  A00 X   2     110.877  33.445  94.4630  0.00  0.00     0.000 C
ATOM     22  C3  A00 X   2     110.556  32.190  95.3020  0.00  0.00     0.000 C
ATOM     23  C4  A00 X   2     109.160  32.314  95.9530  0.00  0.00     0.000 C
ATOM     24  C5  A00 X   2     108.134  32.606  94.8240  0.00  0.00     0.000 C
ATOM     25  O5  A00 X   2     108.506  33.844  94.1630  0.00  0.00     0.000 O
ATOM     26   O  A00 X   2     111.655  31.938  96.1930  0.00  0.00     0.000 O
ATOM     28  HD  A00 X   2     111.671  32.753  96.4850  0.00  0.00     0.000 HD
BRANCH 21 30
ATOM     28   N  A00 X   2     111.344  34.820  94.2660  0.00  0.00     0.000 N
ATOM     30  HD  A00 X   2     111.984  34.393  94.6630  0.00  0.00     0.000 HD
ATOM     30   O  A00 X   2     113.661  34.851  94.5600  0.00  0.00     0.000 OA
ATOM     31   S  A00 X   2     112.500  35.368  95.1940  0.00  0.00     0.000 S
ATOM     32   O  A00 X   2     112.353  36.789  95.1160  0.00  0.00     0.000 OA
ATOM     33   O  A00 X   2     112.229  34.912  96.5240  0.00  0.00     0.000 OA
ENDBRANCH 21 30
BRANCH 24 34
ATOM     34   C  A00 X   2     106.629  32.548  95.1780  0.00  0.00     0.000 C
ATOM     35   O  A00 X   2     105.059  34.583  97.7570  0.00  0.00     0.000 OA
ATOM     36   O  A00 X   2     106.365  33.183  96.4450  0.00  0.00     0.000 O
ATOM     37   O  A00 X   2     106.301  35.468  95.9490  0.00  0.00     0.000 OA
ATOM     38   S  A00 X   2     105.413  34.433  96.3830  0.00  0.00     0.000 S
ATOM     39   O  A00 X   2     104.333  34.077  95.5130  0.00  0.00     0.000 OA
ENDBRANCH 24 34
BRANCH 20 40
ATOM     40  O4  A00 X   3     109.706  32.558  92.5920  0.00  0.00     0.000 O
BRANCH 40 44
ATOM     41  C1  A00 X   3     107.641  30.091  90.9260  0.00  0.00     0.000 C
ATOM     42  C2  A00 X   3     109.184  30.103  90.9080  0.00  0.00     0.000 C
ATOM     43  C3  A00 X   3     109.724  31.497  90.4960  0.00  0.00     0.000 C
ATOM     44  C4  A00 X   3     109.127  32.663  91.2740  0.00  0.00     0.000 C
ATOM     45  C5  A00 X   3     107.575  32.584  91.2410  0.00  0.00     0.000 C
ATOM     46  O5  A00 X   3     107.110  31.250  91.6270  0.00  0.00     0.000 O
ATOM     47   O  A00 X   3     111.140  31.601  90.3610  0.00  0.00     0.000 O
ATOM     49  HD  A00 X   3     111.005  32.375  90.7250  0.00  0.00     0.000 HD
BRANCH 42 49
ATOM     49   O  A00 X   3     109.626  29.737  92.2340  0.00  0.00     0.000 O
ATOM     50   O  A00 X   3     111.726  29.504  93.3580  0.00  0.00     0.000 OA
ATOM     51   O  A00 X   3     111.524  28.707  91.1410  0.00  0.00     0.000 OA
ATOM     52   O  A00 X   3     110.340  27.588  92.8530  0.00  0.00     0.000 OA
ATOM     53   S  A00 X   3     110.878  28.832  92.4240  0.00  0.00     0.000 S
ENDBRANCH 42 49
BRANCH 45 54
ATOM     54   C  A00 X   3     107.011  33.054  89.8950  0.00  0.00     0.000 C
ATOM     55   O  A00 X   3     105.826  33.288  89.7680  0.00  0.00     0.000 OA
ATOM     56   O  A00 X   3     107.741  33.198  88.9270  0.00  0.00     0.000 OA
ENDBRANCH 45 54
BRANCH 41 57
ATOM     57  O4  A00 X   4     107.093  29.905  89.6020  0.00  0.00     0.000 O
BRANCH 57 61
ATOM     58  C1  A00 X   4     103.550  27.915  88.1430  0.00  0.00     0.000 C
ATOM     59  C2  A00 X   4     103.383  29.104  89.1220  0.00  0.00     0.000 C
ATOM     60  C3  A00 X   4     104.662  29.949  89.2870  0.00  0.00     0.000 C
ATOM     61  C4  A00 X   4     105.904  29.067  89.5370  0.00  0.00     0.000 C
ATOM     62  C5  A00 X   4     105.998  28.096  88.3340  0.00  0.00     0.000 C
ATOM     63  O5  A00 X   4     104.821  27.247  88.3130  0.00  0.00     0.000 O
BRANCH 59 66
ATOM     64   N  A00 X   4     103.072  28.552  90.4530  0.00  0.00     0.000 N
ATOM     66  HD  A00 X   4     103.353  27.752  90.6300  0.00  0.00     0.000 HD
ATOM     66   O  A00 X   4     100.772  28.421  89.7520  0.00  0.00     0.000 OA
ATOM     67   S  A00 X   4     101.549  28.567  90.9430  0.00  0.00     0.000 S
ATOM     68   O  A00 X   4     101.549  27.434  91.8220  0.00  0.00     0.000 OA
ATOM     69   O  A00 X   4     101.512  29.834  91.6160  0.00  0.00     0.000 OA
ENDBRANCH 59 66
BRANCH 62 70
ATOM     70   C  A00 X   4     107.254  27.193  88.3470  0.00  0.00     0.000 C
ATOM     71   O  A00 X   4     108.048  24.453  90.5760  0.00  0.00     0.000 OA
ATOM     72   O  A00 X   4     109.334  26.309  89.9070  0.00  0.00     0.000 OA
ATOM     73   O  A00 X   4     107.035  26.087  89.2370  0.00  0.00     0.000 O
ATOM     74   O  A00 X   4     107.544  26.608  91.5330  0.00  0.00     0.000 OA
ATOM     75   S  A00 X   4     108.050  25.880  90.4150  0.00  0.00     0.000 S
ENDBRANCH 62 70
ENDBRANCH 57 61
ENDBRANCH 41 57
ENDBRANCH 40 44
ENDBRANCH 20 40
ENDBRANCH 19 23
ENDBRANCH 1 19
TORSDOF 14
ENDMDL
MODEL 82
REMARK VINA RESULT:      -1.5     86.053     89.677
ROOT
ATOM      1  C1  A00 X   1      88.487  91.245  40.5680  0.00  0.00     0.000 C
ATOM      2  C2  A00 X   1      89.805  90.488  40.2570  0.00  0.00     0.000 C
ATOM      3  C3  A00 X   1      90.331  89.534  41.3790  0.00  0.00     0.000 C
ATOM      4  C4  A00 X   1      89.695  89.734  42.7790  0.00  0.00     0.000 C
ATOM      5  C5  A00 X   1      89.098  91.131  42.9470  0.00  0.00     0.000 C
ATOM      6  O5  A00 X   1      88.054  91.206  41.9510  0.00  0.00     0.000 O
ATOM      7   O  A00 X   1      91.733  89.744  41.5380  0.00  0.00     0.000 O
ATOM      9  HD  A00 X   1      91.395  89.661  42.3320  0.00  0.00     0.000 HD
ATOM      9   O  A00 X   1      88.698  88.748  43.0440  0.00  0.00     0.000 O
ATOM     11  HD  A00 X   1      88.360  88.665  43.8370  0.00  0.00     0.000 HD
ENDROOT
BRANCH 2 11
ATOM     11   O  A00 X   1      89.599  89.726  39.0520  0.00  0.00     0.000 O
ATOM     12   O  A00 X   1      91.367  88.462  38.0300  0.00  0.00     0.000 OA
ATOM     13   O  A00 X   1      91.556  90.883  38.1570  0.00  0.00     0.000 OA
ATOM     14   O  A00 X   1      89.930  89.874  36.7450  0.00  0.00     0.000 OA
ATOM     15   S  A00 X   1      90.710  89.741  37.9460  0.00  0.00     0.000 S
ENDBRANCH 2 11
BRANCH 5 16
ATOM     16   C  A00 X   1      90.107  92.281  42.8670  0.00  0.00     0.000 C
ATOM     17   O  A00 X   1      89.688  93.417  42.7920  0.00  0.00     0.000 OA
ATOM     18   O  A00 X   1      91.308  92.096  42.8830  0.00  0.00     0.000 OA
ENDBRANCH 5 16
BRANCH 1 19
ATOM     19  O4  A00 X   2      88.481  92.599  40.0510  0.00  0.00     0.000 O
BRANCH 19 23
ATOM     20  C1  A00 X   2      84.335  92.492  38.9730  0.00  0.00     0.000 C
ATOM     21  C2  A00 X   2      85.371  92.231  37.8530  0.00  0.00     0.000 C
ATOM     22  C3  A00 X   2      86.748  91.875  38.4510  0.00  0.00     0.000 C
ATOM     23  C4  A00 X   2      87.205  92.962  39.4500  0.00  0.00     0.000 C
ATOM     24  C5  A00 X   2      86.079  93.141  40.5040  0.00  0.00     0.000 C
ATOM     25  O5  A00 X   2      84.862  93.545  39.8230  0.00  0.00     0.000 O
ATOM     26   O  A00 X   2      87.655  91.575  37.3760  0.00  0.00     0.000 O
ATOM     28  HD  A00 X   2      87.461  92.300  36.9440  0.00  0.00     0.000 HD
BRANCH 21 30
ATOM     28   N  A00 X   2      84.473  92.911  36.9140  0.00  0.00     0.000 N
ATOM     30  HD  A00 X   2      85.049  92.473  36.4380  0.00  0.00     0.000 HD
ATOM     30   O  A00 X   2      84.746  91.934  34.8100  0.00  0.00     0.000 OA
ATOM     31   S  A00 X   2      84.979  93.183  35.4420  0.00  0.00     0.000 S
ATOM     32   O  A00 X   2      84.146  94.254  34.9900  0.00  0.00     0.000 OA
ATOM     33   O  A00 X   2      86.341  93.619  35.5360  0.00  0.00     0.000 OA
ENDBRANCH 21 30
BRANCH 24 34
ATOM     34   C  A00 X   2      86.382  94.007  41.7490  0.00  0.00     0.000 C
ATOM     35   O  A00 X   2      87.405  97.498  41.6080  0.00  0.00     0.000 OA
ATOM     36   O  A00 X   2      87.092  95.209  41.3900  0.00  0.00     0.000 O
ATOM     37   O  A00 X   2      85.429  96.659  40.6160  0.00  0.00     0.000 OA
ATOM     38   S  A00 X   2      86.343  96.553  41.7120  0.00  0.00     0.000 S
ATOM     39   O  A00 X   2      85.790  96.404  43.0250  0.00  0.00     0.000 OA
ENDBRANCH 24 34
BRANCH 20 40
ATOM     40  O4  A00 X   3      84.253  91.269  39.7180  0.00  0.00     0.000 O
BRANCH 40 44
ATOM     41  C1  A00 X   3      84.110  89.672  42.9670  0.00  0.00     0.000 C
ATOM     42  C2  A00 X   3      84.133  88.922  41.6170  0.00  0.00     0.000 C
ATOM     43  C3  A00 X   3      83.054  89.479  40.6540  0.00  0.00     0.000 C
ATOM     44  C4  A00 X   3      83.067  90.994  40.4950  0.00  0.00     0.000 C
ATOM     45  C5  A00 X   3      83.038  91.676  41.8920  0.00  0.00     0.000 C
ATOM     46  O5  A00 X   3      84.065  91.113  42.7700  0.00  0.00     0.000 O
ATOM     47   O  A00 X   3      82.925  88.802  39.4050  0.00  0.00     0.000 O
ATOM     49  HD  A00 X   3      82.813  89.607  39.1080  0.00  0.00     0.000 HD
BRANCH 42 49
ATOM     49   O  A00 X   3      85.461  89.077  41.0700  0.00  0.00     0.000 O
ATOM     50   O  A00 X   3      86.593  88.431  39.0620  0.00  0.00     0.000 OA
ATOM     51   O  A00 X   3      85.142  86.882  40.1030  0.00  0.00     0.000 OA
ATOM     52   O  A00 X   3      87.154  87.456  41.2020  0.00  0.00     0.000 OA
ATOM     53   S  A00 X   3      86.140  87.901  40.3100  0.00  0.00     0.000 S
ENDBRANCH 42 49
BRANCH 45 54
ATOM     54   C  A00 X   3      81.634  91.645  42.5080  0.00  0.00     0.000 C
ATOM     55   O  A00 X   3      80.755  90.969  42.0140  0.00  0.00     0.000 OA
ATOM     56   O  A00 X   3      81.374  92.301  43.5050  0.00  0.00     0.000 OA
ENDBRANCH 45 54
BRANCH 41 57
ATOM     57  O4  A00 X   4      83.077  89.166  43.8410  0.00  0.00     0.000 O
BRANCH 57 61
ATOM     58  C1  A00 X   4      82.789  88.784  48.1320  0.00  0.00     0.000 C
ATOM     59  C2  A00 X   4      82.955  90.198  47.5240  0.00  0.00     0.000 C
ATOM     60  C3  A00 X   4      82.687  90.250  46.0060  0.00  0.00     0.000 C
ATOM     61  C4  A00 X   4      83.429  89.124  45.2540  0.00  0.00     0.000 C
ATOM     62  C5  A00 X   4      82.954  87.792  45.8850  0.00  0.00     0.000 C
ATOM     63  O5  A00 X   4      83.348  87.758  47.2800  0.00  0.00     0.000 O
BRANCH 59 66
ATOM     64   N  A00 X   4      84.346  90.655  47.6970  0.00  0.00     0.000 N
ATOM     66  HD  A00 X   4      84.963  90.049  47.7440  0.00  0.00     0.000 HD
ATOM     66   O  A00 X   4      83.745  91.314  49.9340  0.00  0.00     0.000 OA
ATOM     67   S  A00 X   4      84.669  91.660  48.8990  0.00  0.00     0.000 S
ATOM     68   O  A00 X   4      86.038  91.322  49.1570  0.00  0.00     0.000 OA
ATOM     69   O  A00 X   4      84.489  92.918  48.2330  0.00  0.00     0.000 OA
ENDBRANCH 59 66
BRANCH 62 70
ATOM     70   C  A00 X   4      83.508  86.528  45.1860  0.00  0.00     0.000 C
ATOM     71   O  A00 X   4      86.904  85.274  45.1430  0.00  0.00     0.000 OA
ATOM     72   O  A00 X   4      85.378  85.628  43.3860  0.00  0.00     0.000 OA
ATOM     73   O  A00 X   4      84.850  86.285  45.6390  0.00  0.00     0.000 O
ATOM     74   O  A00 X   4      86.501  87.534  44.4070  0.00  0.00     0.000 OA
ATOM     75   S  A00 X   4      85.986  86.212  44.5610  0.00  0.00     0.000 S
ENDBRANCH 62 70
ENDBRANCH 57 61
ENDBRANCH 41 57
ENDBRANCH 40 44
ENDBRANCH 20 40
ENDBRANCH 19 23
ENDBRANCH 1 19
TORSDOF 14
ENDMDL
MODEL 83
REMARK VINA RESULT:      -1.5     99.795    105.045
ROOT
ATOM      1  C1  A00 X   1      81.854  73.391  88.4460  0.00  0.00     0.000 C
ATOM      2  C2  A00 X   1      82.361  72.000  88.9130  0.00  0.00     0.000 C
ATOM      3  C3  A00 X   1      82.406  71.769  90.4590  0.00  0.00     0.000 C
ATOM      4  C4  A00 X   1      82.299  73.048  91.3300  0.00  0.00     0.000 C
ATOM      5  C5  A00 X   1      82.709  74.304  90.5630  0.00  0.00     0.000 C
ATOM      6  O5  A00 X   1      81.757  74.401  89.4800  0.00  0.00     0.000 O
ATOM      7   O  A00 X   1      83.649  71.155  90.7940  0.00  0.00     0.000 O
ATOM      9  HD  A00 X   1      83.488  71.753  91.4000  0.00  0.00     0.000 HD
ATOM      9   O  A00 X   1      80.981  73.212  91.8550  0.00  0.00     0.000 O
ATOM     11  HD  A00 X   1      80.820  73.809  92.4610  0.00  0.00     0.000 HD
ENDROOT
BRANCH 2 11
ATOM     11   O  A00 X   1      81.514  71.001  88.3140  0.00  0.00     0.000 O
ATOM     12   O  A00 X   1      81.914  68.652  88.6110  0.00  0.00     0.000 OA
ATOM     13   O  A00 X   1      83.561  70.000  87.4340  0.00  0.00     0.000 OA
ATOM     14   O  A00 X   1      81.431  69.580  86.4630  0.00  0.00     0.000 OA
ATOM     15   S  A00 X   1      82.173  69.725  87.6860  0.00  0.00     0.000 S
ENDBRANCH 2 11
BRANCH 5 16
ATOM     16   C  A00 X   1      84.169  74.332  90.1000  0.00  0.00     0.000 C
ATOM     17   O  A00 X   1      84.515  75.195  89.3190  0.00  0.00     0.000 OA
ATOM     18   O  A00 X   1      84.993  73.529  90.4900  0.00  0.00     0.000 OA
ENDBRANCH 5 16
BRANCH 1 19
ATOM     19  O4  A00 X   2      82.567  73.888  87.2870  0.00  0.00     0.000 O
BRANCH 19 23
ATOM     20  C1  A00 X   2      79.094  75.690  85.5400  0.00  0.00     0.000 C
ATOM     21  C2  A00 X   2      79.507  74.290  85.0260  0.00  0.00     0.000 C
ATOM     22  C3  A00 X   2      80.472  73.604  86.0160  0.00  0.00     0.000 C
ATOM     23  C4  A00 X   2      81.684  74.516  86.3140  0.00  0.00     0.000 C
ATOM     24  C5  A00 X   2      81.138  75.886  86.8000  0.00  0.00     0.000 C
ATOM     25  O5  A00 X   2      80.309  76.456  85.7540  0.00  0.00     0.000 O
ATOM     26   O  A00 X   2      80.771  72.284  85.5300  0.00  0.00     0.000 O
ATOM     28  HD  A00 X   2      80.974  72.568  84.7370  0.00  0.00     0.000 HD
BRANCH 21 30
ATOM     28   N  A00 X   2      79.037  74.681  83.6940  0.00  0.00     0.000 N
ATOM     30  HD  A00 X   2      79.120  73.819  83.6870  0.00  0.00     0.000 HD
ATOM     30   O  A00 X   2      78.231  72.771  82.6170  0.00  0.00     0.000 OA
ATOM     31   S  A00 X   2      79.295  73.701  82.4800  0.00  0.00     0.000 S
ATOM     32   O  A00 X   2      79.210  74.552  81.3340  0.00  0.00     0.000 OA
ATOM     33   O  A00 X   2      80.626  73.190  82.6240  0.00  0.00     0.000 OA
ENDBRANCH 21 30
BRANCH 24 34
ATOM     34   C  A00 X   2      82.147  76.903  87.3830  0.00  0.00     0.000 C
ATOM     35   O  A00 X   2      85.023  78.198  85.5620  0.00  0.00     0.000 OA
ATOM     36   O  A00 X   2      83.350  76.959  86.5900  0.00  0.00     0.000 O
ATOM     37   O  A00 X   2      82.794  78.338  84.7840  0.00  0.00     0.000 OA
ATOM     38   S  A00 X   2      83.653  78.353  85.9280  0.00  0.00     0.000 S
ATOM     39   O  A00 X   2      83.402  79.342  86.9340  0.00  0.00     0.000 OA
ENDBRANCH 24 34
BRANCH 20 40
ATOM     40  O4  A00 X   3      78.440  75.465  86.7970  0.00  0.00     0.000 O
BRANCH 40 44
ATOM     41  C1  A00 X   3      78.019  76.473  90.2510  0.00  0.00     0.000 C
ATOM     42  C2  A00 X   3      77.307  75.272  89.5920  0.00  0.00     0.000 C
ATOM     43  C3  A00 X   3      76.621  75.692  88.2660  0.00  0.00     0.000 C
ATOM     44  C4  A00 X   3      77.520  76.456  87.3020  0.00  0.00     0.000 C
ATOM     45  C5  A00 X   3      78.195  77.649  88.0360  0.00  0.00     0.000 C
ATOM     46  O5  A00 X   3      78.820  77.209  89.2850  0.00  0.00     0.000 O
ATOM     47   O  A00 X   3      75.858  74.681  87.6120  0.00  0.00     0.000 O
ATOM     49  HD  A00 X   3      76.201  75.039  86.9020  0.00  0.00     0.000 HD
BRANCH 42 49
ATOM     49   O  A00 X   3      78.310  74.256  89.3680  0.00  0.00     0.000 O
ATOM     50   O  A00 X   3      78.381  72.082  88.3680  0.00  0.00     0.000 OA
ATOM     51   O  A00 X   3      76.532  72.653  89.7260  0.00  0.00     0.000 OA
ATOM     52   O  A00 X   3      78.645  72.389  90.7520  0.00  0.00     0.000 OA
ATOM     53   S  A00 X   3      77.961  72.751  89.5590  0.00  0.00     0.000 S
ENDBRANCH 42 49
BRANCH 45 54
ATOM     54   C  A00 X   3      77.224  78.820  88.2280  0.00  0.00     0.000 C
ATOM     55   O  A00 X   3      76.050  78.704  87.9390  0.00  0.00     0.000 OA
ATOM     56   O  A00 X   3      77.613  79.889  88.6730  0.00  0.00     0.000 OA
ENDBRANCH 45 54
BRANCH 41 57
ATOM     57  O4  A00 X   4      77.095  77.297  90.9970  0.00  0.00     0.000 O
BRANCH 57 61
ATOM     58  C1  A00 X   4      77.491  79.617  94.6160  0.00  0.00     0.000 C
ATOM     59  C2  A00 X   4      78.368  79.993  93.3950  0.00  0.00     0.000 C
ATOM     60  C3  A00 X   4      77.894  79.348  92.0770  0.00  0.00     0.000 C
ATOM     61  C4  A00 X   4      77.618  77.838  92.2440  0.00  0.00     0.000 C
ATOM     62  C5  A00 X   4      76.562  77.710  93.3690  0.00  0.00     0.000 C
ATOM     63  O5  A00 X   4      77.119  78.220  94.6070  0.00  0.00     0.000 O
BRANCH 59 66
ATOM     64   N  A00 X   4      79.742  79.503  93.6110  0.00  0.00     0.000 N
ATOM     66  HD  A00 X   4      79.844  78.810  94.1190  0.00  0.00     0.000 HD
ATOM     66   O  A00 X   4      80.135  81.483  94.9230  0.00  0.00     0.000 OA
ATOM     67   S  A00 X   4      80.847  80.544  94.1140  0.00  0.00     0.000 S
ATOM     68   O  A00 X   4      81.729  79.663  94.8220  0.00  0.00     0.000 OA
ATOM     69   O  A00 X   4      81.358  80.999  92.8520  0.00  0.00     0.000 OA
ENDBRANCH 59 66
BRANCH 62 70
ATOM     70   C  A00 X   4      76.069  76.263  93.6110  0.00  0.00     0.000 C
ATOM     71   O  A00 X   4      77.883  73.461  95.0130  0.00  0.00     0.000 OA
ATOM     72   O  A00 X   4      76.583  73.623  93.0570  0.00  0.00     0.000 OA
ATOM     73   O  A00 X   4      77.035  75.560  94.4090  0.00  0.00     0.000 O
ATOM     74   O  A00 X   4      78.816  74.598  93.1010  0.00  0.00     0.000 OA
ATOM     75   S  A00 X   4      77.642  74.235  93.8280  0.00  0.00     0.000 S
ENDBRANCH 62 70
ENDBRANCH 57 61
ENDBRANCH 41 57
ENDBRANCH 40 44
ENDBRANCH 20 40
ENDBRANCH 19 23
ENDBRANCH 1 19
TORSDOF 14
ENDMDL
MODEL 84
REMARK VINA RESULT:      -1.5    108.191    114.111
ROOT
ATOM      1  C1  A00 X   1      71.505  99.774  90.0830  0.00  0.00     0.000 C
ATOM      2  C2  A00 X   1      70.119 100.471  90.1250  0.00  0.00     0.000 C
ATOM      3  C3  A00 X   1      68.899  99.604  89.6720  0.00  0.00     0.000 C
ATOM      4  C4  A00 X   1      69.252  98.306  88.9000  0.00  0.00     0.000 C
ATOM      5  C5  A00 X   1      70.636  98.375  88.2560  0.00  0.00     0.000 C
ATOM      6  O5  A00 X   1      71.551  98.515  89.3670  0.00  0.00     0.000 O
ATOM      7   O  A00 X   1      68.082 100.383  88.8010  0.00  0.00     0.000 O
ATOM      9  HD  A00 X   1      68.124  99.586  88.4660  0.00  0.00     0.000 HD
ATOM      9   O  A00 X   1      69.169  97.158  89.7450  0.00  0.00     0.000 O
ATOM     11  HD  A00 X   1      69.211  96.361  89.4090  0.00  0.00     0.000 HD
ENDROOT
BRANCH 2 11
ATOM     11   O  A00 X   1      69.897 100.925  91.4750  0.00  0.00     0.000 O
ATOM     12   O  A00 X   1      67.785 101.822  92.1820  0.00  0.00     0.000 OA
ATOM     13   O  A00 X   1      69.072 103.001  90.4870  0.00  0.00     0.000 OA
ATOM     14   O  A00 X   1      69.850 102.891  92.7320  0.00  0.00     0.000 OA
ATOM     15   S  A00 X   1      69.079 102.241  91.7070  0.00  0.00     0.000 S
ENDBRANCH 2 11
BRANCH 5 16
ATOM     16   C  A00 X   1      70.800  99.460  87.1870  0.00  0.00     0.000 C
ATOM     17   O  A00 X   1      71.918  99.729  86.7980  0.00  0.00     0.000 OA
ATOM     18   O  A00 X   1      69.853 100.054  86.7110  0.00  0.00     0.000 OA
ENDBRANCH 5 16
BRANCH 1 19
ATOM     19  O4  A00 X   2      72.568 100.662  89.6580  0.00  0.00     0.000 O
BRANCH 19 23
ATOM     20  C1  A00 X   2      75.425  99.072  92.4280  0.00  0.00     0.000 C
ATOM     21  C2  A00 X   2      74.678 100.365  92.8350  0.00  0.00     0.000 C
ATOM     22  C3  A00 X   2      73.414 100.564  91.9740  0.00  0.00     0.000 C
ATOM     23  C4  A00 X   2      73.769 100.524  90.4700  0.00  0.00     0.000 C
ATOM     24  C5  A00 X   2      74.525  99.196  90.1960  0.00  0.00     0.000 C
ATOM     25  O5  A00 X   2      75.726  99.165  91.0110  0.00  0.00     0.000 O
ATOM     26   O  A00 X   2      72.722 101.737  92.4340  0.00  0.00     0.000 O
ATOM     28  HD  A00 X   2      73.434 102.228  92.4110  0.00  0.00     0.000 HD
BRANCH 21 30
ATOM     28   N  A00 X   2      75.898 100.809  93.5180  0.00  0.00     0.000 N
ATOM     30  HD  A00 X   2      75.252 101.307  93.8090  0.00  0.00     0.000 HD
ATOM     30   O  A00 X   2      75.271 102.107  95.3560  0.00  0.00     0.000 OA
ATOM     31   S  A00 X   2      75.942 102.272  94.1160  0.00  0.00     0.000 S
ATOM     32   O  A00 X   2      77.341 102.553  94.2190  0.00  0.00     0.000 OA
ATOM     33   O  A00 X   2      75.330 103.141  93.1560  0.00  0.00     0.000 OA
ENDBRANCH 21 30
BRANCH 24 34
ATOM     34   C  A00 X   2      74.792  98.803  88.7240  0.00  0.00     0.000 C
ATOM     35   O  A00 X   2      78.114  98.409  87.2870  0.00  0.00     0.000 OA
ATOM     36   O  A00 X   2      76.160  99.067  88.3520  0.00  0.00     0.000 O
ATOM     37   O  A00 X   2      77.356  97.244  89.2000  0.00  0.00     0.000 OA
ATOM     38   S  A00 X   2      76.997  97.803  87.9320  0.00  0.00     0.000 S
ATOM     39   O  A00 X   2      76.152  97.023  87.0780  0.00  0.00     0.000 OA
ENDBRANCH 24 34
BRANCH 20 40
ATOM     40  O4  A00 X   3      74.496  98.001  92.6520  0.00  0.00     0.000 O
BRANCH 40 44
ATOM     41  C1  A00 X   3      73.002  94.901  91.5190  0.00  0.00     0.000 C
ATOM     42  C2  A00 X   3      72.628  95.633  92.8260  0.00  0.00     0.000 C
ATOM     43  C3  A00 X   3      73.893  95.966  93.6580  0.00  0.00     0.000 C
ATOM     44  C4  A00 X   3      74.998  96.666  92.8770  0.00  0.00     0.000 C
ATOM     45  C5  A00 X   3      75.321  95.870  91.5820  0.00  0.00     0.000 C
ATOM     46  O5  A00 X   3      74.098  95.569  90.8340  0.00  0.00     0.000 O
ATOM     47   O  A00 X   3      73.661  96.566  94.9310  0.00  0.00     0.000 O
ATOM     49  HD  A00 X   3      74.358  97.031  94.7120  0.00  0.00     0.000 HD
BRANCH 42 49
ATOM     49   O  A00 X   3      71.912  96.830  92.4510  0.00  0.00     0.000 O
ATOM     50   O  A00 X   3      70.934  98.693  93.5930  0.00  0.00     0.000 OA
ATOM     51   O  A00 X   3      70.660  96.527  94.5000  0.00  0.00     0.000 OA
ATOM     52   O  A00 X   3      69.573  97.043  92.4650  0.00  0.00     0.000 OA
ATOM     53   S  A00 X   3      70.697  97.316  93.2940  0.00  0.00     0.000 S
ENDBRANCH 42 49
BRANCH 45 54
ATOM     54   C  A00 X   3      76.169  94.627  91.8760  0.00  0.00     0.000 C
ATOM     55   O  A00 X   3      76.356  94.262  93.0190  0.00  0.00     0.000 OA
ATOM     56   O  A00 X   3      76.673  93.985  90.9680  0.00  0.00     0.000 OA
ENDBRANCH 45 54
BRANCH 41 57
ATOM     57  O4  A00 X   4      73.221  93.490  91.7400  0.00  0.00     0.000 O
BRANCH 57 61
ATOM     58  C1  A00 X   4      72.533  89.989  89.3090  0.00  0.00     0.000 C
ATOM     59  C2  A00 X   4      73.548  91.048  88.8130  0.00  0.00     0.000 C
ATOM     60  C3  A00 X   4      73.975  92.050  89.9050  0.00  0.00     0.000 C
ATOM     61  C4  A00 X   4      72.760  92.618  90.6690  0.00  0.00     0.000 C
ATOM     62  C5  A00 X   4      72.007  91.399  91.2570  0.00  0.00     0.000 C
ATOM     63  O5  A00 X   4      71.526  90.566  90.1720  0.00  0.00     0.000 O
BRANCH 59 66
ATOM     64   N  A00 X   4      72.967  91.875  87.7400  0.00  0.00     0.000 N
ATOM     66  HD  A00 X   4      72.108  91.985  87.7410  0.00  0.00     0.000 HD
ATOM     66   O  A00 X   4      73.511  90.095  86.2110  0.00  0.00     0.000 OA
ATOM     67   S  A00 X   4      73.329  91.513  86.2250  0.00  0.00     0.000 S
ATOM     68   O  A00 X   4      72.154  91.990  85.5570  0.00  0.00     0.000 OA
ATOM     69   O  A00 X   4      74.488  92.338  86.0370  0.00  0.00     0.000 OA
ENDBRANCH 59 66
BRANCH 62 70
ATOM     70   C  A00 X   4      70.806  91.773  92.1590  0.00  0.00     0.000 C
ATOM     71   O  A00 X   4      67.632  93.232  91.2080  0.00  0.00     0.000 OA
ATOM     72   O  A00 X   4      69.149  93.832  92.9060  0.00  0.00     0.000 OA
ATOM     73   O  A00 X   4      69.673  92.088  91.3340  0.00  0.00     0.000 O
ATOM     74   O  A00 X   4      69.660  94.379  90.5860  0.00  0.00     0.000 OA
ATOM     75   S  A00 X   4      69.011  93.500  91.5050  0.00  0.00     0.000 S
ENDBRANCH 62 70
ENDBRANCH 57 61
ENDBRANCH 41 57
ENDBRANCH 40 44
ENDBRANCH 20 40
ENDBRANCH 19 23
ENDBRANCH 1 19
TORSDOF 14
ENDMDL
MODEL 85
REMARK VINA RESULT:      -1.5     44.534     50.640
ROOT
ATOM      1  C1  A00 X   1      64.920  19.578  46.9320  0.00  0.00     0.000 C
ATOM      2  C2  A00 X   1      66.032  20.547  47.4130  0.00  0.00     0.000 C
ATOM      3  C3  A00 X   1      66.522  21.604  46.3690  0.00  0.00     0.000 C
ATOM      4  C4  A00 X   1      66.117  21.328  44.8980  0.00  0.00     0.000 C
ATOM      5  C5  A00 X   1      65.803  19.853  44.6530  0.00  0.00     0.000 C
ATOM      6  O5  A00 X   1      64.669  19.573  45.5040  0.00  0.00     0.000 O
ATOM      7   O  A00 X   1      67.947  21.647  46.3960  0.00  0.00     0.000 O
ATOM      9  HD  A00 X   1      67.706  21.687  45.5650  0.00  0.00     0.000 HD
ATOM      9   O  A00 X   1      65.004  22.131  44.5040  0.00  0.00     0.000 O
ATOM     11  HD  A00 X   1      64.763  22.171  43.6740  0.00  0.00     0.000 HD
ENDROOT
BRANCH 2 11
ATOM     11   O  A00 X   1      65.541  21.234  48.5810  0.00  0.00     0.000 O
ATOM     12   O  A00 X   1      66.958  22.636  49.9200  0.00  0.00     0.000 OA
ATOM     13   O  A00 X   1      67.434  20.255  49.7750  0.00  0.00     0.000 OA
ATOM     14   O  A00 X   1      65.489  21.028  50.9060  0.00  0.00     0.000 OA
ATOM     15   S  A00 X   1      66.442  21.291  49.8620  0.00  0.00     0.000 S
ENDBRANCH 2 11
BRANCH 5 16
ATOM     16   C  A00 X   1      66.980  18.896  44.8660  0.00  0.00     0.000 C
ATOM     17   O  A00 X   1      66.765  17.701  44.8680  0.00  0.00     0.000 OA
ATOM     18   O  A00 X   1      68.119  19.288  45.0240  0.00  0.00     0.000 OA
ENDBRANCH 5 16
BRANCH 1 19
ATOM     19  O4  A00 X   2      65.086  18.234  47.4440  0.00  0.00     0.000 O
BRANCH 19 23
ATOM     20  C1  A00 X   2      60.877  17.549  47.8670  0.00  0.00     0.000 C
ATOM     21  C2  A00 X   2      61.664  17.964  49.1340  0.00  0.00     0.000 C
ATOM     22  C3  A00 X   2      63.026  18.583  48.7560  0.00  0.00     0.000 C
ATOM     23  C4  A00 X   2      63.823  17.626  47.8410  0.00  0.00     0.000 C
ATOM     24  C5  A00 X   2      62.923  17.273  46.6250  0.00  0.00     0.000 C
ATOM     25  O5  A00 X   2      61.713  16.635  47.1090  0.00  0.00     0.000 O
ATOM     26   O  A00 X   2      63.687  19.013  49.9580  0.00  0.00     0.000 O
ATOM     28  HD  A00 X   2      63.567  18.253  50.3560  0.00  0.00     0.000 HD
BRANCH 21 30
ATOM     28   N  A00 X   2      60.772  17.107  49.9210  0.00  0.00     0.000 N
ATOM     30  HD  A00 X   2      61.179  17.627  50.4810  0.00  0.00     0.000 HD
ATOM     30   O  A00 X   2      60.538  18.057  52.0430  0.00  0.00     0.000 OA
ATOM     31   S  A00 X   2      61.089  16.888  51.4540  0.00  0.00     0.000 S
ATOM     32   O  A00 X   2      60.406  15.672  51.7710  0.00  0.00     0.000 OA
ATOM     33   O  A00 X   2      62.505  16.707  51.5720  0.00  0.00     0.000 OA
ENDBRANCH 21 30
BRANCH 24 34
ATOM     34   C  A00 X   2      63.567  16.512  45.4420  0.00  0.00     0.000 C
ATOM     35   O  A00 X   2      62.511  13.214  44.3190  0.00  0.00     0.000 OA
ATOM     36   O  A00 X   2      63.198  15.119  45.4530  0.00  0.00     0.000 O
ATOM     37   O  A00 X   2      61.063  15.075  44.4990  0.00  0.00     0.000 OA
ATOM     38   S  A00 X   2      62.389  14.629  44.1970  0.00  0.00     0.000 S
ATOM     39   O  A00 X   2      63.036  15.197  43.0520  0.00  0.00     0.000 OA
ENDBRANCH 24 34
BRANCH 20 40
ATOM     40  O4  A00 X   3      60.684  18.757  47.1170  0.00  0.00     0.000 O
BRANCH 40 44
ATOM     41  C1  A00 X   3      60.657  20.462  43.9210  0.00  0.00     0.000 C
ATOM     42  C2  A00 X   3      60.363  21.134  45.2800  0.00  0.00     0.000 C
ATOM     43  C3  A00 X   3      59.295  20.338  46.0730  0.00  0.00     0.000 C
ATOM     44  C4  A00 X   3      59.578  18.846  46.1940  0.00  0.00     0.000 C
ATOM     45  C5  A00 X   3      59.858  18.242  44.7890  0.00  0.00     0.000 C
ATOM     46  O5  A00 X   3      60.863  19.030  44.0720  0.00  0.00     0.000 O
ATOM     47   O  A00 X   3      58.880  20.914  47.3100  0.00  0.00     0.000 O
ATOM     49  HD  A00 X   3      58.887  20.088  47.5680  0.00  0.00     0.000 HD
BRANCH 42 49
ATOM     49   O  A00 X   3      61.614  21.201  45.9980  0.00  0.00     0.000 O
ATOM     50   O  A00 X   3      62.338  21.963  48.1490  0.00  0.00     0.000 OA
ATOM     51   O  A00 X   3      60.772  23.263  46.9460  0.00  0.00     0.000 OA
ATOM     52   O  A00 X   3      62.981  23.106  46.1180  0.00  0.00     0.000 OA
ATOM     53   S  A00 X   3      61.960  22.450  46.8600  0.00  0.00     0.000 S
ENDBRANCH 42 49
BRANCH 45 54
ATOM     54   C  A00 X   3      58.566  18.042  43.9890  0.00  0.00     0.000 C
ATOM     55   O  A00 X   3      58.567  17.391  42.9640  0.00  0.00     0.000 OA
ATOM     56   O  A00 X   3      57.514  18.534  44.3670  0.00  0.00     0.000 OA
ENDBRANCH 45 54
BRANCH 41 57
ATOM     57  O4  A00 X   4      59.667  20.811  42.9270  0.00  0.00     0.000 O
BRANCH 57 61
ATOM     58  C1  A00 X   4      59.860  21.338  38.6470  0.00  0.00     0.000 C
ATOM     59  C2  A00 X   4      60.207  19.950  39.2390  0.00  0.00     0.000 C
ATOM     60  C3  A00 X   4      59.763  19.778  40.7060  0.00  0.00     0.000 C
ATOM     61  C4  A00 X   4      60.181  20.983  41.5760  0.00  0.00     0.000 C
ATOM     62  C5  A00 X   4      59.552  22.235  40.9180  0.00  0.00     0.000 C
ATOM     63  O5  A00 X   4      60.107  22.406  39.5890  0.00  0.00     0.000 O
BRANCH 59 66
ATOM     64   N  A00 X   4      61.669  19.755  39.2440  0.00  0.00     0.000 N
ATOM     66  HD  A00 X   4      62.166  20.463  39.2960  0.00  0.00     0.000 HD
ATOM     66   O  A00 X   4      61.490  19.110  36.9310  0.00  0.00     0.000 OA
ATOM     67   S  A00 X   4      62.321  18.884  38.0720  0.00  0.00     0.000 S
ATOM     68   O  A00 X   4      63.627  19.471  38.0090  0.00  0.00     0.000 OA
ATOM     69   O  A00 X   4      62.289  17.582  38.6760  0.00  0.00     0.000 OA
ENDBRANCH 59 66
BRANCH 62 70
ATOM     70   C  A00 X   4      59.769  23.544  41.7140  0.00  0.00     0.000 C
ATOM     71   O  A00 X   4      62.845  25.374  42.2600  0.00  0.00     0.000 OA
ATOM     72   O  A00 X   4      61.185  24.677  43.7770  0.00  0.00     0.000 OA
ATOM     73   O  A00 X   4      61.093  24.040  41.4600  0.00  0.00     0.000 O
ATOM     74   O  A00 X   4      62.763  23.047  42.8850  0.00  0.00     0.000 OA
ATOM     75   S  A00 X   4      62.042  24.264  42.6880  0.00  0.00     0.000 S
ENDBRANCH 62 70
ENDBRANCH 57 61
ENDBRANCH 41 57
ENDBRANCH 40 44
ENDBRANCH 20 40
ENDBRANCH 19 23
ENDBRANCH 1 19
TORSDOF 14
ENDMDL
MODEL 86
REMARK VINA RESULT:      -1.5     80.599     85.763
ROOT
ATOM      1  C1  A00 X   1      79.936  95.342  28.6520  0.00  0.00     0.000 C
ATOM      2  C2  A00 X   1      80.015  93.834  29.0110  0.00  0.00     0.000 C
ATOM      3  C3  A00 X   1      78.660  93.053  29.0040  0.00  0.00     0.000 C
ATOM      4  C4  A00 X   1      77.382  93.932  29.0050  0.00  0.00     0.000 C
ATOM      5  C5  A00 X   1      77.647  95.335  29.5520  0.00  0.00     0.000 C
ATOM      6  O5  A00 X   1      78.604  95.912  28.6350  0.00  0.00     0.000 O
ATOM      7   O  A00 X   1      78.593  92.241  30.1730  0.00  0.00     0.000 O
ATOM      9  HD  A00 X   1      77.809  92.590  30.0600  0.00  0.00     0.000 HD
ATOM      9   O  A00 X   1      76.810  94.023  27.7010  0.00  0.00     0.000 O
ATOM     11  HD  A00 X   1      76.026  94.372  27.5870  0.00  0.00     0.000 HD
ENDROOT
BRANCH 2 11
ATOM     11   O  A00 X   1      80.921  93.209  28.0810  0.00  0.00     0.000 O
ATOM     12   O  A00 X   1      81.225  90.828  28.0090  0.00  0.00     0.000 OA
ATOM     13   O  A00 X   1      81.873  92.051  30.0100  0.00  0.00     0.000 OA
ATOM     14   O  A00 X   1      83.083  92.332  27.9820  0.00  0.00     0.000 OA
ATOM     15   S  A00 X   1      81.811  92.017  28.5740  0.00  0.00     0.000 S
ENDBRANCH 2 11
BRANCH 5 16
ATOM     16   C  A00 X   1      78.095  95.385  31.0160  0.00  0.00     0.000 C
ATOM     17   O  A00 X   1      78.530  96.430  31.4550  0.00  0.00     0.000 OA
ATOM     18   O  A00 X   1      78.024  94.422  31.7530  0.00  0.00     0.000 OA
ENDBRANCH 5 16
BRANCH 1 19
ATOM     19  O4  A00 X   2      80.847  96.153  29.4320  0.00  0.00     0.000 O
BRANCH 19 23
ATOM     20  C1  A00 X   2      81.883  98.698  26.1440  0.00  0.00     0.000 C
ATOM     21  C2  A00 X   2      82.850  97.538  26.4810  0.00  0.00     0.000 C
ATOM     22  C3  A00 X   2      82.154  96.482  27.3660  0.00  0.00     0.000 C
ATOM     23  C4  A00 X   2      81.547  97.142  28.6240  0.00  0.00     0.000 C
ATOM     24  C5  A00 X   2      80.617  98.294  28.1540  0.00  0.00     0.000 C
ATOM     25  O5  A00 X   2      81.404  99.251  27.3980  0.00  0.00     0.000 O
ATOM     26   O  A00 X   2      83.069  95.396  27.5940  0.00  0.00     0.000 O
ATOM     28  HD  A00 X   2      83.711  95.922  27.8410  0.00  0.00     0.000 HD
BRANCH 21 30
ATOM     28   N  A00 X   2      83.966  98.401  26.0820  0.00  0.00     0.000 N
ATOM     30  HD  A00 X   2      84.272  97.592  26.1080  0.00  0.00     0.000 HD
ATOM     30   O  A00 X   2      85.648  97.049  25.1890  0.00  0.00     0.000 OA
ATOM     31   S  A00 X   2      85.443  97.889  26.3150  0.00  0.00     0.000 S
ATOM     32   O  A00 X   2      86.220  99.089  26.3240  0.00  0.00     0.000 OA
ATOM     33   O  A00 X   2      85.476  97.265  27.6040  0.00  0.00     0.000 OA
ENDBRANCH 21 30
BRANCH 24 34
ATOM     34   C  A00 X   2      79.707  98.968  29.2070  0.00  0.00     0.000 C
ATOM     35   O  A00 X   2      80.935 100.583  32.2310  0.00  0.00     0.000 OA
ATOM     36   O  A00 X   2      80.417  99.200  30.4400  0.00  0.00     0.000 O
ATOM     37   O  A00 X   2      81.643 101.152  30.0470  0.00  0.00     0.000 OA
ATOM     38   S  A00 X   2      80.554 100.708  30.8620  0.00  0.00     0.000 S
ATOM     39   O  A00 X   2      79.273 101.308  30.6420  0.00  0.00     0.000 OA
ENDBRANCH 24 34
BRANCH 20 40
ATOM     40  O4  A00 X   3      80.789  98.097  25.4350  0.00  0.00     0.000 O
BRANCH 40 44
ATOM     41  C1  A00 X   3      77.200  97.876  24.9910  0.00  0.00     0.000 C
ATOM     42  C2  A00 X   3      78.236  97.031  24.2190  0.00  0.00     0.000 C
ATOM     43  C3  A00 X   3      79.335  97.932  23.5980  0.00  0.00     0.000 C
ATOM     44  C4  A00 X   3      79.972  98.916  24.5710  0.00  0.00     0.000 C
ATOM     45  C5  A00 X   3      78.869  99.730  25.3040  0.00  0.00     0.000 C
ATOM     46  O5  A00 X   3      77.849  98.841  25.8650  0.00  0.00     0.000 O
ATOM     47   O  A00 X   3      80.300  97.267  22.7860  0.00  0.00     0.000 O
ATOM     49  HD  A00 X   3      80.841  97.822  23.1710  0.00  0.00     0.000 HD
BRANCH 42 49
ATOM     49   O  A00 X   3      78.796  96.087  25.1570  0.00  0.00     0.000 O
ATOM     50   O  A00 X   3      80.483  94.389  25.1080  0.00  0.00     0.000 OA
ATOM     51   O  A00 X   3      79.010  94.587  23.2690  0.00  0.00     0.000 OA
ATOM     52   O  A00 X   3      78.139  93.839  25.3350  0.00  0.00     0.000 OA
ATOM     53   S  A00 X   3      79.134  94.636  24.7050  0.00  0.00     0.000 S
ENDBRANCH 42 49
BRANCH 45 54
ATOM     54   C  A00 X   3      78.285 100.829  24.4080  0.00  0.00     0.000 C
ATOM     55   O  A00 X   3      78.578 100.889  23.2320  0.00  0.00     0.000 OA
ATOM     56   O  A00 X   3      77.517 101.663  24.8620  0.00  0.00     0.000 OA
ENDBRANCH 45 54
BRANCH 41 57
ATOM     57  O4  A00 X   4      76.216  98.455  24.1060  0.00  0.00     0.000 O
BRANCH 57 61
ATOM     58  C1  A00 X   4      72.015  99.341  24.5580  0.00  0.00     0.000 C
ATOM     59  C2  A00 X   4      73.027 100.052  25.4910  0.00  0.00     0.000 C
ATOM     60  C3  A00 X   4      74.488  99.941  25.0110  0.00  0.00     0.000 C
ATOM     61  C4  A00 X   4      74.858  98.491  24.6300  0.00  0.00     0.000 C
ATOM     62  C5  A00 X   4      73.850  98.058  23.5360  0.00  0.00     0.000 C
ATOM     63  O5  A00 X   4      72.510  98.065  24.0930  0.00  0.00     0.000 O
BRANCH 59 66
ATOM     64   N  A00 X   4      73.175  99.684  26.9110  0.00  0.00     0.000 N
ATOM     66  HD  A00 X   4      73.092  98.847  27.1180  0.00  0.00     0.000 HD
ATOM     66   O  A00 X   4      71.073 100.788  27.3120  0.00  0.00     0.000 OA
ATOM     67   S  A00 X   4      72.288 100.462  27.9910  0.00  0.00     0.000 S
ATOM     68   O  A00 X   4      72.176  99.455  29.0060  0.00  0.00     0.000 OA
ATOM     69   O  A00 X   4      73.178 101.537  28.3240  0.00  0.00     0.000 OA
ENDBRANCH 59 66
BRANCH 62 70
ATOM     70   C  A00 X   4      74.127  96.657  22.9410  0.00  0.00     0.000 C
ATOM     71   O  A00 X   4      73.785  93.419  24.5240  0.00  0.00     0.000 OA
ATOM     72   O  A00 X   4      75.565  94.343  23.2900  0.00  0.00     0.000 OA
ATOM     73   O  A00 X   4      73.623  95.652  23.8360  0.00  0.00     0.000 O
ATOM     74   O  A00 X   4      75.180  95.077  25.5810  0.00  0.00     0.000 OA
ATOM     75   S  A00 X   4      74.627  94.571  24.3660  0.00  0.00     0.000 S
ENDBRANCH 62 70
ENDBRANCH 57 61
ENDBRANCH 41 57
ENDBRANCH 40 44
ENDBRANCH 20 40
ENDBRANCH 19 23
ENDBRANCH 1 19
TORSDOF 14
ENDMDL
MODEL 87
REMARK VINA RESULT:      -1.5    114.815    120.032
ROOT
ATOM      1  C1  A00 X   1      96.992 108.643  63.2690  0.00  0.00     0.000 C
ATOM      2  C2  A00 X   1      95.553 108.336  63.7620  0.00  0.00     0.000 C
ATOM      3  C3  A00 X   1      95.254 108.668  65.2610  0.00  0.00     0.000 C
ATOM      4  C4  A00 X   1      96.499 108.909  66.1530  0.00  0.00     0.000 C
ATOM      5  C5  A00 X   1      97.757 108.262  65.5750  0.00  0.00     0.000 C
ATOM      6  O5  A00 X   1      97.962 108.926  64.3080  0.00  0.00     0.000 O
ATOM      7   O  A00 X   1      94.546 107.574  65.8400  0.00  0.00     0.000 O
ATOM      9  HD  A00 X   1      95.127 107.841  66.4240  0.00  0.00     0.000 HD
ATOM      9   O  A00 X   1      96.727 110.302  66.3660  0.00  0.00     0.000 O
ATOM     11  HD  A00 X   1      97.307 110.568  66.9510  0.00  0.00     0.000 HD
ENDROOT
BRANCH 2 11
ATOM     11   O  A00 X   1      94.637 109.071  62.9270  0.00  0.00     0.000 O
ATOM     12   O  A00 X   1      92.256 108.873  63.1700  0.00  0.00     0.000 OA
ATOM     13   O  A00 X   1      93.549 106.930  62.4830  0.00  0.00     0.000 OA
ATOM     14   O  A00 X   1      93.309 108.795  61.0260  0.00  0.00     0.000 OA
ATOM     15   S  A00 X   1      93.351 108.350  62.3930  0.00  0.00     0.000 S
ENDBRANCH 2 11
BRANCH 5 16
ATOM     16   C  A00 X   1      97.709 106.735  65.4650  0.00  0.00     0.000 C
ATOM     17   O  A00 X   1      98.582 106.169  64.8410  0.00  0.00     0.000 OA
ATOM     18   O  A00 X   1      96.834 106.071  65.9860  0.00  0.00     0.000 OA
ENDBRANCH 5 16
BRANCH 1 19
ATOM     19  O4  A00 X   2      97.490 107.652  62.3370  0.00  0.00     0.000 O
BRANCH 19 23
ATOM     20  C1  A00 X   2      99.573 110.518  59.9270  0.00  0.00     0.000 C
ATOM     21  C2  A00 X   2      98.174 110.062  59.4460  0.00  0.00     0.000 C
ATOM     22  C3  A00 X   2      97.389 109.395  60.5940  0.00  0.00     0.000 C
ATOM     23  C4  A00 X   2      98.212 108.247  61.2210  0.00  0.00     0.000 C
ATOM     24  C5  A00 X   2      99.590 108.826  61.6420  0.00  0.00     0.000 C
ATOM     25  O5  A00 X   2     100.255 109.353  60.4650  0.00  0.00     0.000 O
ATOM     26   O  A00 X   2      96.076 109.053  60.1180  0.00  0.00     0.000 O
ATOM     28  HD  A00 X   2      96.382 108.653  59.4130  0.00  0.00     0.000 HD
BRANCH 21 30
ATOM     28   N  A00 X   2      98.651 110.178  58.0640  0.00  0.00     0.000 N
ATOM     30  HD  A00 X   2      97.786 110.140  58.0290  0.00  0.00     0.000 HD
ATOM     30   O  A00 X   2      96.843 110.799  56.7210  0.00  0.00     0.000 OA
ATOM     31   S  A00 X   2      97.709 109.687  56.8930  0.00  0.00     0.000 S
ATOM     32   O  A00 X   2      98.611 109.451  55.8090  0.00  0.00     0.000 OA
ATOM     33   O  A00 X   2      97.110 108.457  57.3190  0.00  0.00     0.000 OA
ENDBRANCH 21 30
BRANCH 24 34
ATOM     34   C  A00 X   2     100.518 107.937  62.5040  0.00  0.00     0.000 C
ATOM     35   O  A00 X   2     101.721 104.654  61.4850  0.00  0.00     0.000 OA
ATOM     36   O  A00 X   2     100.538 106.579  62.0190  0.00  0.00     0.000 O
ATOM     37   O  A00 X   2     102.028 106.627  60.2170  0.00  0.00     0.000 OA
ATOM     38   S  A00 X   2     101.940 106.063  61.5290  0.00  0.00     0.000 S
ATOM     39   O  A00 X   2     102.895 106.498  62.5040  0.00  0.00     0.000 OA
ENDBRANCH 24 34
BRANCH 20 40
ATOM     40  O4  A00 X   3      99.332 111.462  60.9800  0.00  0.00     0.000 O
BRANCH 40 44
ATOM     41  C1  A00 X   3     100.215 112.689  64.2720  0.00  0.00     0.000 C
ATOM     42  C2  A00 X   3      99.078 113.259  63.3960  0.00  0.00     0.000 C
ATOM     43  C3  A00 X   3      99.586 113.579  61.9670  0.00  0.00     0.000 C
ATOM     44  C4  A00 X   3     100.345 112.442  61.2950  0.00  0.00     0.000 C
ATOM     45  C5  A00 X   3     101.473 111.927  62.2340  0.00  0.00     0.000 C
ATOM     46  O5  A00 X   3     100.951 111.648  63.5730  0.00  0.00     0.000 O
ATOM     47   O  A00 X   3      98.641 114.193  61.0930  0.00  0.00     0.000 O
ATOM     49  HD  A00 X   3      99.011 113.671  60.5090  0.00  0.00     0.000 HD
BRANCH 42 49
ATOM     49   O  A00 X   3      98.025 112.270  63.3730  0.00  0.00     0.000 O
ATOM     50   O  A00 X   3      95.888 112.039  62.3210  0.00  0.00     0.000 OA
ATOM     51   O  A00 X   3      96.496 114.139  63.2210  0.00  0.00     0.000 OA
ATOM     52   O  A00 X   3      96.096 112.348  64.7100  0.00  0.00     0.000 OA
ATOM     53   S  A00 X   3      96.533 112.710  63.4060  0.00  0.00     0.000 S
ENDBRANCH 42 49
BRANCH 45 54
ATOM     54   C  A00 X   3     102.680 112.872  62.2420  0.00  0.00     0.000 C
ATOM     55   O  A00 X   3     102.609 113.972  61.7320  0.00  0.00     0.000 OA
ATOM     56   O  A00 X   3     103.734 112.535  62.7580  0.00  0.00     0.000 OA
ENDBRANCH 45 54
BRANCH 41 57
ATOM     57  O4  A00 X   4     101.051 113.738  64.8110  0.00  0.00     0.000 O
BRANCH 57 61
ATOM     58  C1  A00 X   4     103.255 114.139  68.5010  0.00  0.00     0.000 C
ATOM     59  C2  A00 X   4     103.640 112.998  67.5280  0.00  0.00     0.000 C
ATOM     60  C3  A00 X   4     103.047 113.168  66.1140  0.00  0.00     0.000 C
ATOM     61  C4  A00 X   4     101.541 113.505  66.1620  0.00  0.00     0.000 C
ATOM     62  C5  A00 X   4     101.410 114.795  67.0090  0.00  0.00     0.000 C
ATOM     63  O5  A00 X   4     101.869 114.528  68.3590  0.00  0.00     0.000 O
BRANCH 59 66
ATOM     64   N  A00 X   4     103.132 111.697  68.0000  0.00  0.00     0.000 N
ATOM     66  HD  A00 X   4     102.412 111.700  68.4810  0.00  0.00     0.000 HD
ATOM     66   O  A00 X   4     105.038 111.600  69.4700  0.00  0.00     0.000 OA
ATOM     67   S  A00 X   4     104.139 110.728  68.7790  0.00  0.00     0.000 S
ATOM     68   O  A00 X   4     103.217 110.010  69.6090  0.00  0.00     0.000 OA
ATOM     69   O  A00 X   4     104.659 109.966  67.6790  0.00  0.00     0.000 OA
ENDBRANCH 59 66
BRANCH 62 70
ATOM     70   C  A00 X   4      99.971 115.359  67.0830  0.00  0.00     0.000 C
ATOM     71   O  A00 X   4      97.087 113.985  68.7860  0.00  0.00     0.000 OA
ATOM     72   O  A00 X   4      97.333 114.780  66.5830  0.00  0.00     0.000 OA
ATOM     73   O  A00 X   4      99.222 114.624  68.0640  0.00  0.00     0.000 O
ATOM     74   O  A00 X   4      98.247 112.603  67.1860  0.00  0.00     0.000 OA
ATOM     75   S  A00 X   4      97.897 113.923  67.6020  0.00  0.00     0.000 S
ENDBRANCH 62 70
ENDBRANCH 57 61
ENDBRANCH 41 57
ENDBRANCH 40 44
ENDBRANCH 20 40
ENDBRANCH 19 23
ENDBRANCH 1 19
TORSDOF 14
ENDMDL
MODEL 88
REMARK VINA RESULT:      -1.5    102.219    107.338
ROOT
ATOM      1  C1  A00 X   1      79.645  77.513  88.8490  0.00  0.00     0.000 C
ATOM      2  C2  A00 X   1      79.238  76.161  88.2060  0.00  0.00     0.000 C
ATOM      3  C3  A00 X   1      78.572  75.118  89.1620  0.00  0.00     0.000 C
ATOM      4  C4  A00 X   1      78.730  75.404  90.6780  0.00  0.00     0.000 C
ATOM      5  C5  A00 X   1      79.928  76.306  90.9730  0.00  0.00     0.000 C
ATOM      6  O5  A00 X   1      79.626  77.548  90.2980  0.00  0.00     0.000 O
ATOM      7   O  A00 X   1      79.161  73.840  88.9280  0.00  0.00     0.000 O
ATOM      9  HD  A00 X   1      79.069  73.926  89.7840  0.00  0.00     0.000 HD
ATOM      9   O  A00 X   1      77.545  75.979  91.2270  0.00  0.00     0.000 O
ATOM     11  HD  A00 X   1      77.453  76.065  92.0840  0.00  0.00     0.000 HD
ENDROOT
BRANCH 2 11
ATOM     11   O  A00 X   1      78.336  76.445  87.1190  0.00  0.00     0.000 O
ATOM     12   O  A00 X   1      77.180  74.702  85.9380  0.00  0.00     0.000 OA
ATOM     13   O  A00 X   1      79.608  74.810  85.8250  0.00  0.00     0.000 OA
ATOM     14   O  A00 X   1      78.277  76.486  84.7860  0.00  0.00     0.000 OA
ATOM     15   S  A00 X   1      78.361  75.524  85.8510  0.00  0.00     0.000 S
ENDBRANCH 2 11
BRANCH 5 16
ATOM     16   C  A00 X   1      81.291  75.718  90.5950  0.00  0.00     0.000 C
ATOM     17   O  A00 X   1      82.260  76.449  90.5970  0.00  0.00     0.000 OA
ATOM     18   O  A00 X   1      81.438  74.549  90.3010  0.00  0.00     0.000 OA
ENDBRANCH 5 16
BRANCH 1 19
ATOM     19  O4  A00 X   2      80.891  78.033  88.3240  0.00  0.00     0.000 O
BRANCH 19 23
ATOM     20  C1  A00 X   2      79.539  82.099  88.2980  0.00  0.00     0.000 C
ATOM     21  C2  A00 X   2      79.469  81.315  86.9660  0.00  0.00     0.000 C
ATOM     22  C3  A00 X   2      79.566  79.796  87.2170  0.00  0.00     0.000 C
ATOM     23  C4  A00 X   2      80.827  79.461  88.0450  0.00  0.00     0.000 C
ATOM     24  C5  A00 X   2      80.788  80.320  89.3380  0.00  0.00     0.000 C
ATOM     25  O5  A00 X   2      80.773  81.723  88.9660  0.00  0.00     0.000 O
ATOM     26   O  A00 X   2      79.427  79.110  85.9610  0.00  0.00     0.000 O
ATOM     28  HD  A00 X   2      80.026  79.599  85.5700  0.00  0.00     0.000 HD
BRANCH 21 30
ATOM     28   N  A00 X   2      79.780  82.561  86.2590  0.00  0.00     0.000 N
ATOM     30  HD  A00 X   2      79.476  82.006  85.6670  0.00  0.00     0.000 HD
ATOM     30   O  A00 X   2      78.720  82.501  84.1780  0.00  0.00     0.000 OA
ATOM     31   S  A00 X   2      80.040  82.505  84.7010  0.00  0.00     0.000 S
ATOM     32   O  A00 X   2      80.789  83.694  84.4390  0.00  0.00     0.000 OA
ATOM     33   O  A00 X   2      80.842  81.345  84.4470  0.00  0.00     0.000 OA
ENDBRANCH 21 30
BRANCH 24 34
ATOM     34   C  A00 X   2      81.820  80.008  90.4480  0.00  0.00     0.000 C
ATOM     35   O  A00 X   2      85.427  80.087  89.9630  0.00  0.00     0.000 OA
ATOM     36   O  A00 X   2      83.129  79.771  89.8930  0.00  0.00     0.000 O
ATOM     37   O  A00 X   2      83.992  81.909  89.5010  0.00  0.00     0.000 OA
ATOM     38   S  A00 X   2      84.244  80.783  90.3470  0.00  0.00     0.000 S
ATOM     39   O  A00 X   2      84.077  80.962  91.7580  0.00  0.00     0.000 OA
ENDBRANCH 24 34
BRANCH 20 40
ATOM     40  O4  A00 X   3      78.418  81.650  89.0730  0.00  0.00     0.000 O
BRANCH 40 44
ATOM     41  C1  A00 X   3      77.125  80.584  92.2850  0.00  0.00     0.000 C
ATOM     42  C2  A00 X   3      76.297  80.658  90.9830  0.00  0.00     0.000 C
ATOM     43  C3  A00 X   3      76.455  82.042  90.3020  0.00  0.00     0.000 C
ATOM     44  C4  A00 X   3      77.897  82.497  90.1190  0.00  0.00     0.000 C
ATOM     45  C5  A00 X   3      78.662  82.399  91.4700  0.00  0.00     0.000 C
ATOM     46  O5  A00 X   3      78.476  81.081  92.0810  0.00  0.00     0.000 O
ATOM     47   O  A00 X   3      75.665  82.255  89.1340  0.00  0.00     0.000 O
ATOM     49  HD  A00 X   3      76.382  82.657  88.8600  0.00  0.00     0.000 HD
BRANCH 42 49
ATOM     49   O  A00 X   3      76.761  79.592  90.1260  0.00  0.00     0.000 O
ATOM     50   O  A00 X   3      76.268  78.804  87.9200  0.00  0.00     0.000 OA
ATOM     51   O  A00 X   3      74.482  79.469  89.3200  0.00  0.00     0.000 OA
ATOM     52   O  A00 X   3      75.689  77.517  89.8830  0.00  0.00     0.000 OA
ATOM     53   S  A00 X   3      75.752  78.790  89.2530  0.00  0.00     0.000 S
ENDBRANCH 42 49
BRANCH 45 54
ATOM     54   C  A00 X   3      78.303  83.556  92.4100  0.00  0.00     0.000 C
ATOM     55   O  A00 X   3      78.924  83.733  93.4380  0.00  0.00     0.000 OA
ATOM     56   O  A00 X   3      77.387  84.318  92.1430  0.00  0.00     0.000 OA
ENDBRANCH 45 54
BRANCH 41 57
ATOM     57  O4  A00 X   4      76.433  81.202  93.3930  0.00  0.00     0.000 O
BRANCH 57 61
ATOM     58  C1  A00 X   4      76.304  80.343  97.6220  0.00  0.00     0.000 C
ATOM     59  C2  A00 X   4      77.663  80.725  96.9840  0.00  0.00     0.000 C
ATOM     60  C3  A00 X   4      77.529  81.350  95.5810  0.00  0.00     0.000 C
ATOM     61  C4  A00 X   4      76.591  80.527  94.6730  0.00  0.00     0.000 C
ATOM     62  C5  A00 X   4      75.230  80.449  95.4100  0.00  0.00     0.000 C
ATOM     63  O5  A00 X   4      75.405  79.740  96.6630  0.00  0.00     0.000 O
BRANCH 59 66
ATOM     64   N  A00 X   4      78.495  79.523  96.8010  0.00  0.00     0.000 N
ATOM     66  HD  A00 X   4      78.087  78.767  96.6910  0.00  0.00     0.000 HD
ATOM     66   O  A00 X   4      79.123  79.726  99.1170  0.00  0.00     0.000 OA
ATOM     67   S  A00 X   4      79.634  79.217  97.8820  0.00  0.00     0.000 S
ATOM     68   O  A00 X   4      79.705  77.789  97.7860  0.00  0.00     0.000 OA
ATOM     69   O  A00 X   4      80.743  79.903  97.2820  0.00  0.00     0.000 OA
ENDBRANCH 59 66
BRANCH 62 70
ATOM     70   C  A00 X   4      74.113  79.748  94.6000  0.00  0.00     0.000 C
ATOM     71   O  A00 X   4      73.817  76.251  93.7140  0.00  0.00     0.000 OA
ATOM     72   O  A00 X   4      73.615  78.190  92.3940  0.00  0.00     0.000 OA
ATOM     73   O  A00 X   4      74.273  78.324  94.7040  0.00  0.00     0.000 O
ATOM     74   O  A00 X   4      75.824  77.432  93.0900  0.00  0.00     0.000 OA
ATOM     75   S  A00 X   4      74.427  77.505  93.3750  0.00  0.00     0.000 S
ENDBRANCH 62 70
ENDBRANCH 57 61
ENDBRANCH 41 57
ENDBRANCH 40 44
ENDBRANCH 20 40
ENDBRANCH 19 23
ENDBRANCH 1 19
TORSDOF 14
ENDMDL
MODEL 89
REMARK VINA RESULT:      -1.5     50.715     55.627
ROOT
ATOM      1  C1  A00 X   1      77.664  33.132  31.1350  0.00  0.00     0.000 C
ATOM      2  C2  A00 X   1      77.678  33.847  29.7570  0.00  0.00     0.000 C
ATOM      3  C3  A00 X   1      76.910  35.208  29.6820  0.00  0.00     0.000 C
ATOM      4  C4  A00 X   1      75.938  35.493  30.8550  0.00  0.00     0.000 C
ATOM      5  C5  A00 X   1      75.496  34.212  31.5630  0.00  0.00     0.000 C
ATOM      6  O5  A00 X   1      76.715  33.651  32.1000  0.00  0.00     0.000 O
ATOM      7   O  A00 X   1      76.125  35.225  28.4920  0.00  0.00     0.000 O
ATOM      9  HD  A00 X   1      75.641  35.569  29.1220  0.00  0.00     0.000 HD
ATOM      9   O  A00 X   1      76.511  36.394  31.8020  0.00  0.00     0.000 O
ATOM     11  HD  A00 X   1      76.027  36.738  32.4320  0.00  0.00     0.000 HD
ENDROOT
BRANCH 2 11
ATOM     11   O  A00 X   1      79.054  34.064  29.3900  0.00  0.00     0.000 O
ATOM     12   O  A00 X   1      79.666  35.373  27.4720  0.00  0.00     0.000 OA
ATOM     13   O  A00 X   1      78.427  33.304  27.1550  0.00  0.00     0.000 OA
ATOM     14   O  A00 X   1      80.678  33.255  27.9200  0.00  0.00     0.000 OA
ATOM     15   S  A00 X   1      79.453  34.006  27.8750  0.00  0.00     0.000 S
ENDBRANCH 2 11
BRANCH 5 16
ATOM     16   C  A00 X   1      74.701  33.233  30.6940  0.00  0.00     0.000 C
ATOM     17   O  A00 X   1      74.498  32.113  31.1170  0.00  0.00     0.000 OA
ATOM     18   O  A00 X   1      74.262  33.538  29.6030  0.00  0.00     0.000 OA
ENDBRANCH 5 16
BRANCH 1 19
ATOM     19  O4  A00 X   2      77.564  31.692  31.0180  0.00  0.00     0.000 O
BRANCH 19 23
ATOM     20  C1  A00 X   2      80.278  30.931  34.2460  0.00  0.00     0.000 C
ATOM     21  C2  A00 X   2      80.847  30.881  32.8070  0.00  0.00     0.000 C
ATOM     22  C3  A00 X   2      79.896  31.583  31.8150  0.00  0.00     0.000 C
ATOM     23  C4  A00 X   2      78.471  30.994  31.9180  0.00  0.00     0.000 C
ATOM     24  C5  A00 X   2      78.026  31.085  33.4030  0.00  0.00     0.000 C
ATOM     25  O5  A00 X   2      78.957  30.327  34.2180  0.00  0.00     0.000 O
ATOM     26   O  A00 X   2      80.499  31.570  30.5100  0.00  0.00     0.000 O
ATOM     28  HD  A00 X   2      80.664  30.721  30.5400  0.00  0.00     0.000 HD
BRANCH 21 30
ATOM     28   N  A00 X   2      81.750  29.811  33.2420  0.00  0.00     0.000 N
ATOM     30  HD  A00 X   2      82.056  30.106  32.4870  0.00  0.00     0.000 HD
ATOM     30   O  A00 X   2      83.724  29.978  32.0040  0.00  0.00     0.000 OA
ATOM     31   S  A00 X   2      82.636  29.079  32.1570  0.00  0.00     0.000 S
ATOM     32   O  A00 X   2      82.965  27.831  32.7750  0.00  0.00     0.000 OA
ATOM     33   O  A00 X   2      81.807  28.862  31.0090  0.00  0.00     0.000 OA
ENDBRANCH 21 30
BRANCH 24 34
ATOM     34   C  A00 X   2      76.548  30.772  33.7380  0.00  0.00     0.000 C
ATOM     35   O  A00 X   2      75.481  28.070  35.9330  0.00  0.00     0.000 OA
ATOM     36   O  A00 X   2      76.411  29.463  34.3260  0.00  0.00     0.000 O
ATOM     37   O  A00 X   2      76.999  29.769  36.5700  0.00  0.00     0.000 OA
ATOM     38   S  A00 X   2      75.843  29.443  35.7920  0.00  0.00     0.000 S
ATOM     39   O  A00 X   2      74.747  30.364  35.8150  0.00  0.00     0.000 OA
ENDBRANCH 24 34
BRANCH 20 40
ATOM     40  O4  A00 X   3      80.162  32.325  34.5680  0.00  0.00     0.000 O
BRANCH 40 44
ATOM     41  C1  A00 X   3      78.217  35.005  36.0380  0.00  0.00     0.000 C
ATOM     42  C2  A00 X   3      79.594  35.184  35.3620  0.00  0.00     0.000 C
ATOM     43  C3  A00 X   3      80.627  34.179  35.9330  0.00  0.00     0.000 C
ATOM     44  C4  A00 X   3      80.157  32.731  35.9540  0.00  0.00     0.000 C
ATOM     45  C5  A00 X   3      78.772  32.631  36.6520  0.00  0.00     0.000 C
ATOM     46  O5  A00 X   3      77.832  33.603  36.0900  0.00  0.00     0.000 O
ATOM     47   O  A00 X   3      81.960  34.312  35.4430  0.00  0.00     0.000 O
ATOM     49  HD  A00 X   3      81.934  33.446  35.4660  0.00  0.00     0.000 HD
BRANCH 42 49
ATOM     49   O  A00 X   3      79.398  34.992  33.9440  0.00  0.00     0.000 O
ATOM     50   O  A00 X   3      80.783  34.961  31.9920  0.00  0.00     0.000 OA
ATOM     51   O  A00 X   3      81.177  36.605  33.6450  0.00  0.00     0.000 OA
ATOM     52   O  A00 X   3      79.183  36.732  32.3820  0.00  0.00     0.000 OA
ATOM     53   S  A00 X   3      80.176  35.865  32.9180  0.00  0.00     0.000 S
ENDBRANCH 42 49
BRANCH 45 54
ATOM     54   C  A00 X   3      78.896  32.725  38.1770  0.00  0.00     0.000 C
ATOM     55   O  A00 X   3      79.957  33.009  38.6950  0.00  0.00     0.000 OA
ATOM     56   O  A00 X   3      77.933  32.515  38.8980  0.00  0.00     0.000 OA
ENDBRANCH 45 54
BRANCH 41 57
ATOM     57  O4  A00 X   4      78.157  35.677  37.3150  0.00  0.00     0.000 O
BRANCH 57 61
ATOM     58  C1  A00 X   4      74.979  37.692  39.4320  0.00  0.00     0.000 C
ATOM     59  C2  A00 X   4      74.825  36.181  39.1270  0.00  0.00     0.000 C
ATOM     60  C3  A00 X   4      76.144  35.502  38.7030  0.00  0.00     0.000 C
ATOM     61  C4  A00 X   4      76.884  36.315  37.6190  0.00  0.00     0.000 C
ATOM     62  C5  A00 X   4      77.119  37.725  38.2160  0.00  0.00     0.000 C
ATOM     63  O5  A00 X   4      75.837  38.353  38.4750  0.00  0.00     0.000 O
BRANCH 59 66
ATOM     64   N  A00 X   4      73.900  35.932  38.0070  0.00  0.00     0.000 N
ATOM     66  HD  A00 X   4      73.835  36.544  37.3980  0.00  0.00     0.000 HD
ATOM     66   O  A00 X   4      72.090  36.208  39.5710  0.00  0.00     0.000 OA
ATOM     67   S  A00 X   4      72.389  35.533  38.3470  0.00  0.00     0.000 S
ATOM     68   O  A00 X   4      71.720  36.039  37.1840  0.00  0.00     0.000 OA
ATOM     69   O  A00 X   4      72.506  34.103  38.3820  0.00  0.00     0.000 OA
ENDBRANCH 59 66
BRANCH 62 70
ATOM     70   C  A00 X   4      77.953  38.663  37.3120  0.00  0.00     0.000 C
ATOM     71   O  A00 X   4      77.017  40.192  34.1670  0.00  0.00     0.000 OA
ATOM     72   O  A00 X   4      78.949  38.989  34.7730  0.00  0.00     0.000 OA
ATOM     73   O  A00 X   4      77.104  39.224  36.2980  0.00  0.00     0.000 O
ATOM     74   O  A00 X   4      76.862  37.795  34.3740  0.00  0.00     0.000 OA
ATOM     75   S  A00 X   4      77.503  38.998  34.7990  0.00  0.00     0.000 S
ENDBRANCH 62 70
ENDBRANCH 57 61
ENDBRANCH 41 57
ENDBRANCH 40 44
ENDBRANCH 20 40
ENDBRANCH 19 23
ENDBRANCH 1 19
TORSDOF 14
ENDMDL
MODEL 90
REMARK VINA RESULT:      -1.5    122.037    127.130
ROOT
ATOM      1  C1  A00 X   1      37.011 108.363 109.7250  0.00  0.00     0.000 C
ATOM      2  C2  A00 X   1      36.415 108.511 111.1500  0.00  0.00     0.000 C
ATOM      3  C3  A00 X   1      37.434 108.430 112.3330  0.00  0.00     0.000 C
ATOM      4  C4  A00 X   1      38.829 107.854 111.9760  0.00  0.00     0.000 C
ATOM      5  C5  A00 X   1      38.790 106.986 110.7190  0.00  0.00     0.000 C
ATOM      6  O5  A00 X   1      38.378 107.885 109.6650  0.00  0.00     0.000 O
ATOM      7   O  A00 X   1      36.894 107.584 113.3460  0.00  0.00     0.000 O
ATOM      9  HD  A00 X   1      37.736 107.393 113.2760  0.00  0.00     0.000 HD
ATOM      9   O  A00 X   1      39.797 108.891 111.8170  0.00  0.00     0.000 O
ATOM     11  HD  A00 X   1      40.639 108.700 111.7480  0.00  0.00     0.000 HD
ENDROOT
BRANCH 2 11
ATOM     11   O  A00 X   1      35.728 109.776 111.2080  0.00  0.00     0.000 O
ATOM     12   O  A00 X   1      34.859 110.656 113.2670  0.00  0.00     0.000 OA
ATOM     13   O  A00 X   1      33.941 108.588 112.3740  0.00  0.00     0.000 OA
ATOM     14   O  A00 X   1      33.565 110.654 111.2570  0.00  0.00     0.000 OA
ATOM     15   S  A00 X   1      34.450 109.904 112.1070  0.00  0.00     0.000 S
ENDBRANCH 2 11
BRANCH 5 16
ATOM     16   C  A00 X   1      37.921 105.728 110.8260  0.00  0.00     0.000 C
ATOM     17   O  A00 X   1      37.677 105.103 109.8150  0.00  0.00     0.000 OA
ATOM     18   O  A00 X   1      37.475 105.333 111.8850  0.00  0.00     0.000 OA
ENDBRANCH 5 16
BRANCH 1 19
ATOM     19  O4  A00 X   2      36.151 107.615 108.8310  0.00  0.00     0.000 O
BRANCH 19 23
ATOM     20  C1  A00 X   2      36.951 110.147 105.4670  0.00  0.00     0.000 C
ATOM     21  C2  A00 X   2      35.628 110.378 106.2370  0.00  0.00     0.000 C
ATOM     22  C3  A00 X   2      35.681 109.719 107.6310  0.00  0.00     0.000 C
ATOM     23  C4  A00 X   2      36.052 108.224 107.5110  0.00  0.00     0.000 C
ATOM     24  C5  A00 X   2      37.379 108.127 106.7090  0.00  0.00     0.000 C
ATOM     25  O5  A00 X   2      37.175 108.714 105.3970  0.00  0.00     0.000 O
ATOM     26   O  A00 X   2      34.461 110.019 108.3300  0.00  0.00     0.000 O
ATOM     28  HD  A00 X   2      33.961 109.769 107.6680  0.00  0.00     0.000 HD
BRANCH 21 30
ATOM     28   N  A00 X   2      34.996 110.733 104.9630  0.00  0.00     0.000 N
ATOM     30  HD  A00 X   2      34.467 111.010 105.5910  0.00  0.00     0.000 HD
ATOM     30   O  A00 X   2      33.332 112.316 105.3930  0.00  0.00     0.000 OA
ATOM     31   S  A00 X   2      33.434 110.977 104.9330  0.00  0.00     0.000 S
ATOM     32   O  A00 X   2      33.087 110.781 103.5600  0.00  0.00     0.000 OA
ATOM     33   O  A00 X   2      32.832 109.963 105.7470  0.00  0.00     0.000 OA
ENDBRANCH 21 30
BRANCH 24 34
ATOM     34   C  A00 X   2      38.089 106.754 106.6450  0.00  0.00     0.000 C
ATOM     35   O  A00 X   2      38.768 104.949 103.5560  0.00  0.00     0.000 OA
ATOM     36   O  A00 X   2      37.904 106.129 105.3590  0.00  0.00     0.000 O
ATOM     37   O  A00 X   2      39.481 107.165 103.9760  0.00  0.00     0.000 OA
ATOM     38   S  A00 X   2      39.223 105.875 104.5410  0.00  0.00     0.000 S
ATOM     39   O  A00 X   2      40.181 105.353 105.4680  0.00  0.00     0.000 OA
ENDBRANCH 24 34
BRANCH 20 40
ATOM     40  O4  A00 X   3      37.976 110.754 106.2670  0.00  0.00     0.000 O
BRANCH 40 44
ATOM     41  C1  A00 X   3      41.320 110.560 107.6470  0.00  0.00     0.000 C
ATOM     42  C2  A00 X   3      40.329 111.716 107.9030  0.00  0.00     0.000 C
ATOM     43  C3  A00 X   3      39.755 112.260 106.5690  0.00  0.00     0.000 C
ATOM     44  C4  A00 X   3      39.199 111.191 105.6360  0.00  0.00     0.000 C
ATOM     45  C5  A00 X   3      40.254 110.069 105.4240  0.00  0.00     0.000 C
ATOM     46  O5  A00 X   3      40.776 109.593 106.7070  0.00  0.00     0.000 O
ATOM     47   O  A00 X   3      38.891 113.390 106.6770  0.00  0.00     0.000 O
ATOM     49  HD  A00 X   3      38.455 112.975 106.0540  0.00  0.00     0.000 HD
BRANCH 42 49
ATOM     49   O  A00 X   3      39.284 111.196 108.7540  0.00  0.00     0.000 O
ATOM     50   O  A00 X   3      37.265 112.036 109.7280  0.00  0.00     0.000 OA
ATOM     51   O  A00 X   3      39.183 113.418 109.7100  0.00  0.00     0.000 OA
ATOM     52   O  A00 X   3      39.193 111.493 111.0820  0.00  0.00     0.000 OA
ATOM     53   S  A00 X   3      38.684 112.077 109.8890  0.00  0.00     0.000 S
ENDBRANCH 42 49
BRANCH 45 54
ATOM     54   C  A00 X   3      41.355 110.501 104.4490  0.00  0.00     0.000 C
ATOM     55   O  A00 X   3      41.362 111.621 103.9800  0.00  0.00     0.000 OA
ATOM     56   O  A00 X   3      42.242 109.728 104.1240  0.00  0.00     0.000 OA
ENDBRANCH 45 54
BRANCH 41 57
ATOM     57  O4  A00 X   4      42.632 111.052 107.2900  0.00  0.00     0.000 O
BRANCH 57 61
ATOM     58  C1  A00 X   4      46.626 109.590 108.0310  0.00  0.00     0.000 C
ATOM     59  C2  A00 X   4      45.671 108.731 107.1670  0.00  0.00     0.000 C
ATOM     60  C3  A00 X   4      44.427 109.499 106.6760  0.00  0.00     0.000 C
ATOM     61  C4  A00 X   4      43.747 110.280 107.8200  0.00  0.00     0.000 C
ATOM     62  C5  A00 X   4      44.825 111.227 108.4030  0.00  0.00     0.000 C
ATOM     63  O5  A00 X   4      45.906 110.434 108.9580  0.00  0.00     0.000 O
BRANCH 59 66
ATOM     64   N  A00 X   4      45.143 107.595 107.9450  0.00  0.00     0.000 N
ATOM     66  HD  A00 X   4      45.074 107.696 108.8020  0.00  0.00     0.000 HD
ATOM     66   O  A00 X   4      47.202 106.441 107.4690  0.00  0.00     0.000 OA
ATOM     67   S  A00 X   4      45.830 106.163 107.7560  0.00  0.00     0.000 S
ATOM     68   O  A00 X   4      45.573 105.582 109.0420  0.00  0.00     0.000 OA
ATOM     69   O  A00 X   4      45.019 105.631 106.6980  0.00  0.00     0.000 OA
ENDBRANCH 59 66
BRANCH 62 70
ATOM     70   C  A00 X   4      44.301 112.182 109.5020  0.00  0.00     0.000 C
ATOM     71   O  A00 X   4      43.263 111.391 112.8790  0.00  0.00     0.000 OA
ATOM     72   O  A00 X   4      42.201 112.663 111.2060  0.00  0.00     0.000 OA
ATOM     73   O  A00 X   4      44.247 111.480 110.7540  0.00  0.00     0.000 O
ATOM     74   O  A00 X   4      42.207 110.231 111.0480  0.00  0.00     0.000 OA
ATOM     75   S  A00 X   4      42.868 111.413 111.4990  0.00  0.00     0.000 S
ENDBRANCH 62 70
ENDBRANCH 57 61
ENDBRANCH 41 57
ENDBRANCH 40 44
ENDBRANCH 20 40
ENDBRANCH 19 23
ENDBRANCH 1 19
TORSDOF 14
ENDMDL
MODEL 91
REMARK VINA RESULT:      -1.5     42.295     46.603
ROOT
ATOM      1  C1  A00 X   1      37.084  13.450  49.7680  0.00  0.00     0.000 C
ATOM      2  C2  A00 X   1      36.860  14.639  50.7410  0.00  0.00     0.000 C
ATOM      3  C3  A00 X   1      35.859  14.386  51.9170  0.00  0.00     0.000 C
ATOM      4  C4  A00 X   1      34.950  13.139  51.7640  0.00  0.00     0.000 C
ATOM      5  C5  A00 X   1      34.801  12.709  50.3050  0.00  0.00     0.000 C
ATOM      6  O5  A00 X   1      36.140  12.357  49.8880  0.00  0.00     0.000 O
ATOM      7   O  A00 X   1      34.990  15.510  52.0280  0.00  0.00     0.000 O
ATOM      9  HD  A00 X   1      34.505  14.801  52.1360  0.00  0.00     0.000 HD
ATOM      9   O  A00 X   1      35.430  12.044  52.5440  0.00  0.00     0.000 O
ATOM     11  HD  A00 X   1      34.945  11.335  52.6520  0.00  0.00     0.000 HD
ENDROOT
BRANCH 2 11
ATOM     11   O  A00 X   1      38.142  15.007  51.2860  0.00  0.00     0.000 O
ATOM     12   O  A00 X   1      38.357  16.638  53.0360  0.00  0.00     0.000 OA
ATOM     13   O  A00 X   1      37.492  17.324  50.8680  0.00  0.00     0.000 OA
ATOM     14   O  A00 X   1      39.767  16.673  51.1070  0.00  0.00     0.000 OA
ATOM     15   S  A00 X   1      38.426  16.515  51.6020  0.00  0.00     0.000 S
ENDBRANCH 2 11
BRANCH 5 16
ATOM     16   C  A00 X   1      34.124  13.736  49.3920  0.00  0.00     0.000 C
ATOM     17   O  A00 X   1      33.502  14.645  49.9010  0.00  0.00     0.000 OA
ATOM     18   O  A00 X   1      34.194  13.677  48.1800  0.00  0.00     0.000 OA
ENDBRANCH 5 16
BRANCH 1 19
ATOM     19  O4  A00 X   2      37.231  13.872  48.3910  0.00  0.00     0.000 O
BRANCH 19 23
ATOM     20  C1  A00 X   2      40.216  10.936  47.4750  0.00  0.00     0.000 C
ATOM     21  C2  A00 X   2      40.703  12.352  47.8690  0.00  0.00     0.000 C
ATOM     22  C3  A00 X   2      39.581  13.143  48.5730  0.00  0.00     0.000 C
ATOM     23  C4  A00 X   2      38.305  13.168  47.7030  0.00  0.00     0.000 C
ATOM     24  C5  A00 X   2      37.933  11.699  47.3620  0.00  0.00     0.000 C
ATOM     25  O5  A00 X   2      39.037  11.093  46.6410  0.00  0.00     0.000 O
ATOM     26   O  A00 X   2      40.102  14.420  48.9790  0.00  0.00     0.000 O
ATOM     28  HD  A00 X   2      40.429  14.592  48.1960  0.00  0.00     0.000 HD
BRANCH 21 30
ATOM     28   N  A00 X   2      41.830  12.155  46.9520  0.00  0.00     0.000 N
ATOM     30  HD  A00 X   2      42.024  12.841  47.4440  0.00  0.00     0.000 HD
ATOM     30   O  A00 X   2      43.652  13.369  47.7680  0.00  0.00     0.000 OA
ATOM     31   S  A00 X   2      42.782  13.380  46.6460  0.00  0.00     0.000 S
ATOM     32   O  A00 X   2      43.395  13.030  45.4020  0.00  0.00     0.000 OA
ATOM     33   O  A00 X   2      41.948  14.533  46.4830  0.00  0.00     0.000 OA
ENDBRANCH 21 30
BRANCH 24 34
ATOM     34   C  A00 X   2      36.565  11.434  46.6920  0.00  0.00     0.000 C
ATOM     35   O  A00 X   2      34.853   8.221  46.7500  0.00  0.00     0.000 OA
ATOM     36   O  A00 X   2      36.307  10.020  46.5700  0.00  0.00     0.000 O
ATOM     37   O  A00 X   2      35.548   9.383  48.6890  0.00  0.00     0.000 OA
ATOM     38   S  A00 X   2      35.048   9.498  47.3530  0.00  0.00     0.000 S
ATOM     39   O  A00 X   2      34.002  10.447  47.1160  0.00  0.00     0.000 OA
ENDBRANCH 24 34
BRANCH 20 40
ATOM     40  O4  A00 X   3      39.851  10.295  48.7060  0.00  0.00     0.000 O
BRANCH 40 44
ATOM     41  C1  A00 X   3      39.307   8.314  51.6900  0.00  0.00     0.000 C
ATOM     42  C2  A00 X   3      40.609   9.078  51.3660  0.00  0.00     0.000 C
ATOM     43  C3  A00 X   3      41.110   8.741  49.9390  0.00  0.00     0.000 C
ATOM     44  C4  A00 X   3      40.054   8.873  48.8490  0.00  0.00     0.000 C
ATOM     45  C5  A00 X   3      38.779   8.075  49.2440  0.00  0.00     0.000 C
ATOM     46  O5  A00 X   3      38.348   8.417  50.6010  0.00  0.00     0.000 O
ATOM     47   O  A00 X   3      42.356   9.324  49.5620  0.00  0.00     0.000 O
ATOM     49  HD  A00 X   3      41.954   9.416  48.8000  0.00  0.00     0.000 HD
BRANCH 42 49
ATOM     49   O  A00 X   3      40.319  10.486  51.5050  0.00  0.00     0.000 O
ATOM     50   O  A00 X   3      41.526  12.538  51.2460  0.00  0.00     0.000 OA
ATOM     51   O  A00 X   3      42.594  10.710  52.2990  0.00  0.00     0.000 OA
ATOM     52   O  A00 X   3      40.798  11.762  53.4180  0.00  0.00     0.000 OA
ATOM     53   S  A00 X   3      41.362  11.444  52.1520  0.00  0.00     0.000 S
ENDBRANCH 42 49
BRANCH 45 54
ATOM     54   C  A00 X   3      38.965   6.568  49.0320  0.00  0.00     0.000 C
ATOM     55   O  A00 X   3      39.995   6.131  48.5600  0.00  0.00     0.000 OA
ATOM     56   O  A00 X   3      38.080   5.781  49.3310  0.00  0.00     0.000 OA
ENDBRANCH 45 54
BRANCH 41 57
ATOM     57  O4  A00 X   4      39.574   6.958  52.1110  0.00  0.00     0.000 O
BRANCH 57 61
ATOM     58  C1  A00 X   4      37.385   4.529  54.9300  0.00  0.00     0.000 C
ATOM     59  C2  A00 X   4      37.529   4.025  53.4720  0.00  0.00     0.000 C
ATOM     60  C3  A00 X   4      38.611   4.773  52.6670  0.00  0.00     0.000 C
ATOM     61  C4  A00 X   4      38.483   6.304  52.8190  0.00  0.00     0.000 C
ATOM     62  C5  A00 X   4      38.576   6.600  54.3370  0.00  0.00     0.000 C
ATOM     63  O5  A00 X   4      37.459   5.970  55.0150  0.00  0.00     0.000 O
BRANCH 59 66
ATOM     64   N  A00 X   4      37.805   2.582  53.3530  0.00  0.00     0.000 N
ATOM     66  HD  A00 X   4      38.011   2.278  52.5690  0.00  0.00     0.000 HD
ATOM     66   O  A00 X   4      35.456   2.204  53.7300  0.00  0.00     0.000 OA
ATOM     67   S  A00 X   4      36.716   1.554  53.9160  0.00  0.00     0.000 S
ATOM     68   O  A00 X   4      36.960   0.427  53.0630  0.00  0.00     0.000 OA
ATOM     69   O  A00 X   4      37.193   1.390  55.2590  0.00  0.00     0.000 OA
ENDBRANCH 59 66
BRANCH 62 70
ATOM     70   C  A00 X   4      38.578   8.107  54.6880  0.00  0.00     0.000 C
ATOM     71   O  A00 X   4      35.756  10.342  55.0770  0.00  0.00     0.000 OA
ATOM     72   O  A00 X   4      37.745  10.583  53.8400  0.00  0.00     0.000 OA
ATOM     73   O  A00 X   4      37.236   8.528  54.9810  0.00  0.00     0.000 O
ATOM     74   O  A00 X   4      35.982   9.120  53.0110  0.00  0.00     0.000 OA
ATOM     75   S  A00 X   4      36.635   9.705  54.1370  0.00  0.00     0.000 S
ENDBRANCH 62 70
ENDBRANCH 57 61
ENDBRANCH 41 57
ENDBRANCH 40 44
ENDBRANCH 20 40
ENDBRANCH 19 23
ENDBRANCH 1 19
TORSDOF 14
ENDMDL
MODEL 92
REMARK VINA RESULT:      -1.5    120.346    125.363
ROOT
ATOM      1  C1  A00 X   1      33.633 109.232 107.3190  0.00  0.00     0.000 C
ATOM      2  C2  A00 X   1      33.456 110.752 107.5780  0.00  0.00     0.000 C
ATOM      3  C3  A00 X   1      33.437 111.196 109.0780  0.00  0.00     0.000 C
ATOM      4  C4  A00 X   1      33.226 110.058 110.1090  0.00  0.00     0.000 C
ATOM      5  C5  A00 X   1      32.547 108.837 109.4910  0.00  0.00     0.000 C
ATOM      6  O5  A00 X   1      33.471 108.377 108.4780  0.00  0.00     0.000 O
ATOM      7   O  A00 X   1      32.366 112.118 109.2680  0.00  0.00     0.000 O
ATOM      9  HD  A00 X   1      32.372 111.589 109.9530  0.00  0.00     0.000 HD
ATOM      9   O  A00 X   1      34.458 109.670 110.7170  0.00  0.00     0.000 O
ATOM     11  HD  A00 X   1      34.464 109.140 111.4020  0.00  0.00     0.000 HD
ENDROOT
BRANCH 2 11
ATOM     11   O  A00 X   1      34.525 111.439 106.8990  0.00  0.00     0.000 O
ATOM     12   O  A00 X   1      34.908 113.792 107.1860  0.00  0.00     0.000 OA
ATOM     13   O  A00 X   1      32.834 113.039 106.1610  0.00  0.00     0.000 OA
ATOM     14   O  A00 X   1      34.906 112.776 105.0230  0.00  0.00     0.000 OA
ATOM     15   S  A00 X   1      34.253 112.862 106.3010  0.00  0.00     0.000 S
ENDBRANCH 2 11
BRANCH 5 16
ATOM     16   C  A00 X   1      31.130 109.081 108.9620  0.00  0.00     0.000 C
ATOM     17   O  A00 X   1      30.534 110.070 109.3350  0.00  0.00     0.000 OA
ATOM     18   O  A00 X   1      30.588 108.327 108.1790  0.00  0.00     0.000 OA
ENDBRANCH 5 16
BRANCH 1 19
ATOM     19  O4  A00 X   2      32.845 108.758 106.2000  0.00  0.00     0.000 O
BRANCH 19 23
ATOM     20  C1  A00 X   2      35.909 106.130 104.7600  0.00  0.00     0.000 C
ATOM     21  C2  A00 X   2      35.786 107.519 104.0890  0.00  0.00     0.000 C
ATOM     22  C3  A00 X   2      34.967 108.485 104.9700  0.00  0.00     0.000 C
ATOM     23  C4  A00 X   2      33.596 107.866 105.3260  0.00  0.00     0.000 C
ATOM     24  C5  A00 X   2      33.855 106.477 105.9710  0.00  0.00     0.000 C
ATOM     25  O5  A00 X   2      34.564 105.644 105.0180  0.00  0.00     0.000 O
ATOM     26   O  A00 X   2      34.940 109.776 104.3380  0.00  0.00     0.000 O
ATOM     28  HD  A00 X   2      34.692 109.452 103.5740  0.00  0.00     0.000 HD
BRANCH 21 30
ATOM     28   N  A00 X   2      36.182 106.899 102.8200  0.00  0.00     0.000 N
ATOM     30  HD  A00 X   2      36.271 107.754 102.7200  0.00  0.00     0.000 HD
ATOM     30   O  A00 X   2      37.360 108.484 101.5720  0.00  0.00     0.000 OA
ATOM     31   S  A00 X   2      36.134 107.771 101.5030  0.00  0.00     0.000 S
ATOM     32   O  A00 X   2      36.060 106.799 100.4560  0.00  0.00     0.000 OA
ATOM     33   O  A00 X   2      34.929 108.544 101.5500  0.00  0.00     0.000 OA
ENDBRANCH 21 30
BRANCH 24 34
ATOM     34   C  A00 X   2      32.659 105.748 106.6270  0.00  0.00     0.000 C
ATOM     35   O  A00 X   2      31.301 102.583 105.4450  0.00  0.00     0.000 OA
ATOM     36   O  A00 X   2      32.125 104.730 105.7560  0.00  0.00     0.000 O
ATOM     37   O  A00 X   2      33.567 102.910 106.0370  0.00  0.00     0.000 OA
ATOM     38   S  A00 X   2      32.207 103.262 106.3120  0.00  0.00     0.000 S
ATOM     39   O  A00 X   2      31.803 103.324 107.6840  0.00  0.00     0.000 OA
ENDBRANCH 24 34
BRANCH 20 40
ATOM     40  O4  A00 X   3      36.583 106.359 106.0060  0.00  0.00     0.000 O
BRANCH 40 44
ATOM     41  C1  A00 X   3      36.754 105.673 109.5590  0.00  0.00     0.000 C
ATOM     42  C2  A00 X   3      37.699 106.631 108.8010  0.00  0.00     0.000 C
ATOM     43  C3  A00 X   3      38.303 105.941 107.5510  0.00  0.00     0.000 C
ATOM     44  C4  A00 X   3      37.281 105.268 106.6430  0.00  0.00     0.000 C
ATOM     45  C5  A00 X   3      36.374 104.319 107.4750  0.00  0.00     0.000 C
ATOM     46  O5  A00 X   3      35.834 105.007 108.6500  0.00  0.00     0.000 O
ATOM     47   O  A00 X   3      39.260 106.705 106.8190  0.00  0.00     0.000 O
ATOM     49  HD  A00 X   3      38.860 106.346 106.1400  0.00  0.00     0.000 HD
BRANCH 42 49
ATOM     49   O  A00 X   3      36.921 107.793 108.4390  0.00  0.00     0.000 O
ATOM     50   O  A00 X   3      37.298 109.819 107.2220  0.00  0.00     0.000 OA
ATOM     51   O  A00 X   3      38.975 109.046 108.6980  0.00  0.00     0.000 OA
ATOM     52   O  A00 X   3      36.941 109.826 109.6130  0.00  0.00     0.000 OA
ATOM     53   S  A00 X   3      37.558 109.212 108.4890  0.00  0.00     0.000 S
ENDBRANCH 42 49
BRANCH 45 54
ATOM     54   C  A00 X   3      37.090 103.008 107.8210  0.00  0.00     0.000 C
ATOM     55   O  A00 X   3      38.271 102.866 107.5790  0.00  0.00     0.000 OA
ATOM     56   O  A00 X   3      36.486 102.084 108.3440  0.00  0.00     0.000 OA
ENDBRANCH 45 54
BRANCH 41 57
ATOM     57  O4  A00 X   4      37.486 104.770 110.4180  0.00  0.00     0.000 O
BRANCH 57 61
ATOM     58  C1  A00 X   4      36.594 102.980 114.2440  0.00  0.00     0.000 C
ATOM     59  C2  A00 X   4      35.679 102.647 113.0380  0.00  0.00     0.000 C
ATOM     60  C3  A00 X   4      36.289 103.040 111.6770  0.00  0.00     0.000 C
ATOM     61  C4  A00 X   4      36.850 104.479 111.6940  0.00  0.00     0.000 C
ATOM     62  C5  A00 X   4      37.894 104.526 112.8370  0.00  0.00     0.000 C
ATOM     63  O5  A00 X   4      37.230 104.270 114.1010  0.00  0.00     0.000 O
BRANCH 59 66
ATOM     64   N  A00 X   4      34.412 103.394 113.1270  0.00  0.00     0.000 N
ATOM     66  HD  A00 X   4      34.424 104.154 113.5420  0.00  0.00     0.000 HD
ATOM     66   O  A00 X   4      33.634 101.698 114.6490  0.00  0.00     0.000 OA
ATOM     67   S  A00 X   4      33.125 102.637 113.6990  0.00  0.00     0.000 S
ATOM     68   O  A00 X   4      32.399 103.743 114.2520  0.00  0.00     0.000 OA
ATOM     69   O  A00 X   4      32.571 102.122 112.4790  0.00  0.00     0.000 OA
ENDBRANCH 59 66
BRANCH 62 70
ATOM     70   C  A00 X   4      38.654 105.869 112.9440  0.00  0.00     0.000 C
ATOM     71   O  A00 X   4      37.401 109.099 113.9950  0.00  0.00     0.000 OA
ATOM     72   O  A00 X   4      38.665 108.485 112.1060  0.00  0.00     0.000 OA
ATOM     73   O  A00 X   4      37.834 106.825 113.6360  0.00  0.00     0.000 O
ATOM     74   O  A00 X   4      36.286 107.964 112.1830  0.00  0.00     0.000 OA
ATOM     75   S  A00 X   4      37.500 108.171 112.9040  0.00  0.00     0.000 S
ENDBRANCH 62 70
ENDBRANCH 57 61
ENDBRANCH 41 57
ENDBRANCH 40 44
ENDBRANCH 20 40
ENDBRANCH 19 23
ENDBRANCH 1 19
TORSDOF 14
ENDMDL
MODEL 93
REMARK VINA RESULT:      -1.5    108.718    114.924
ROOT
ATOM      1  C1  A00 X   1      97.966 101.849  63.5780  0.00  0.00     0.000 C
ATOM      2  C2  A00 X   1      97.887 100.796  64.7160  0.00  0.00     0.000 C
ATOM      3  C3  A00 X   1      98.175 101.322  66.1600  0.00  0.00     0.000 C
ATOM      4  C4  A00 X   1      98.853 102.714  66.2420  0.00  0.00     0.000 C
ATOM      5  C5  A00 X   1      99.597 103.070  64.9550  0.00  0.00     0.000 C
ATOM      6  O5  A00 X   1      98.571 103.115  63.9390  0.00  0.00     0.000 O
ATOM      7   O  A00 X   1      99.050 100.406  66.8150  0.00  0.00     0.000 O
ATOM      9  HD  A00 X   1      99.317 101.204  67.0190  0.00  0.00     0.000 HD
ATOM      9   O  A00 X   1      97.908 103.738  66.5520  0.00  0.00     0.000 O
ATOM     11  HD  A00 X   1      98.175 104.536  66.7560  0.00  0.00     0.000 HD
ENDROOT
BRANCH 2 11
ATOM     11   O  A00 X   1      96.570 100.213  64.6820  0.00  0.00     0.000 O
ATOM     12   O  A00 X   1      95.952  98.389  66.1180  0.00  0.00     0.000 OA
ATOM     13   O  A00 X   1      97.689  98.054  64.4490  0.00  0.00     0.000 OA
ATOM     14   O  A00 X   1      95.429  98.384  63.7850  0.00  0.00     0.000 OA
ATOM     15   S  A00 X   1      96.428  98.655  64.7840  0.00  0.00     0.000 S
ENDBRANCH 2 11
BRANCH 5 16
ATOM     16   C  A00 X   1     100.766 102.143  64.6050  0.00  0.00     0.000 C
ATOM     17   O  A00 X   1     101.219 101.426  65.4730  0.00  0.00     0.000 OA
ATOM     18   O  A00 X   1     101.250 102.096  63.4920  0.00  0.00     0.000 OA
ENDBRANCH 5 16
BRANCH 1 19
ATOM     19  O4  A00 X   2      98.542 101.316  62.3600  0.00  0.00     0.000 O
BRANCH 19 23
ATOM     20  C1  A00 X   2      95.962 103.578  59.7920  0.00  0.00     0.000 C
ATOM     21  C2  A00 X   2      95.574 102.107  60.0790  0.00  0.00     0.000 C
ATOM     22  C3  A00 X   2      96.319 101.575  61.3200  0.00  0.00     0.000 C
ATOM     23  C4  A00 X   2      97.844 101.774  61.1660  0.00  0.00     0.000 C
ATOM     24  C5  A00 X   2      98.098 103.276  60.8650  0.00  0.00     0.000 C
ATOM     25  O5  A00 X   2      97.405 103.631  59.6400  0.00  0.00     0.000 O
ATOM     26   O  A00 X   2      95.875 100.233  61.5850  0.00  0.00     0.000 O
ATOM     28  HD  A00 X   2      96.002  99.976  60.7680  0.00  0.00     0.000 HD
BRANCH 21 30
ATOM     28   N  A00 X   2      95.046 102.020  58.7140  0.00  0.00     0.000 N
ATOM     30  HD  A00 X   2      94.728 101.342  59.1490  0.00  0.00     0.000 HD
ATOM     30   O  A00 X   2      93.249 100.527  58.7230  0.00  0.00     0.000 OA
ATOM     31   S  A00 X   2      94.557 100.616  58.1780  0.00  0.00     0.000 S
ATOM     32   O  A00 X   2      94.611 100.758  56.7560  0.00  0.00     0.000 OA
ATOM     33   O  A00 X   2      95.511  99.640  58.6160  0.00  0.00     0.000 OA
ENDBRANCH 21 30
BRANCH 24 34
ATOM     34   C  A00 X   2      99.559 103.785  60.8930  0.00  0.00     0.000 C
ATOM     35   O  A00 X   2     101.292 105.175  58.0090  0.00  0.00     0.000 OA
ATOM     36   O  A00 X   2     100.084 103.941  59.5600  0.00  0.00     0.000 O
ATOM     37   O  A00 X   2      99.236 105.998  58.8390  0.00  0.00     0.000 OA
ATOM     38   S  A00 X   2     100.496 105.408  59.1700  0.00  0.00     0.000 S
ATOM     39   O  A00 X   2     101.205 105.942  60.2940  0.00  0.00     0.000 OA
ENDBRANCH 24 34
BRANCH 20 40
ATOM     40  O4  A00 X   3      95.575 104.316  60.9610  0.00  0.00     0.000 O
BRANCH 40 44
ATOM     41  C1  A00 X   3      96.405 106.853  63.4100  0.00  0.00     0.000 C
ATOM     42  C2  A00 X   3      95.105 106.020  63.4120  0.00  0.00     0.000 C
ATOM     43  C3  A00 X   3      94.417 106.062  62.0240  0.00  0.00     0.000 C
ATOM     44  C4  A00 X   3      95.334 105.736  60.8520  0.00  0.00     0.000 C
ATOM     45  C5  A00 X   3      96.614 106.615  60.9160  0.00  0.00     0.000 C
ATOM     46  O5  A00 X   3      97.224 106.553  62.2460  0.00  0.00     0.000 O
ATOM     47   O  A00 X   3      93.159 105.397  61.9310  0.00  0.00     0.000 O
ATOM     49  HD  A00 X   3      93.466 105.164  61.1560  0.00  0.00     0.000 HD
BRANCH 42 49
ATOM     49   O  A00 X   3      95.468 104.671  63.7810  0.00  0.00     0.000 O
ATOM     50   O  A00 X   3      94.334 102.576  64.0190  0.00  0.00     0.000 OA
ATOM     51   O  A00 X   3      93.282 104.539  64.8120  0.00  0.00     0.000 OA
ATOM     52   O  A00 X   3      95.214 103.765  65.9320  0.00  0.00     0.000 OA
ATOM     53   S  A00 X   3      94.528 103.824  64.6880  0.00  0.00     0.000 S
ENDBRANCH 42 49
BRANCH 45 54
ATOM     54   C  A00 X   3      96.342 108.048  60.4440  0.00  0.00     0.000 C
ATOM     55   O  A00 X   3      95.206 108.436  60.2640  0.00  0.00     0.000 OA
ATOM     56   O  A00 X   3      97.263 108.824  60.2380  0.00  0.00     0.000 OA
ENDBRANCH 45 54
BRANCH 41 57
ATOM     57  O4  A00 X   4      96.137 108.261  63.5930  0.00  0.00     0.000 O
BRANCH 57 61
ATOM     58  C1  A00 X   4      98.317 111.437  65.5430  0.00  0.00     0.000 C
ATOM     59  C2  A00 X   4      98.981 110.706  64.3500  0.00  0.00     0.000 C
ATOM     60  C3  A00 X   4      97.993 109.861  63.5190  0.00  0.00     0.000 C
ATOM     61  C4  A00 X   4      97.104 108.973  64.4160  0.00  0.00     0.000 C
ATOM     62  C5  A00 X   4      96.376 109.929  65.3930  0.00  0.00     0.000 C
ATOM     63  O5  A00 X   4      97.357 110.597  66.2270  0.00  0.00     0.000 O
BRANCH 59 66
ATOM     64   N  A00 X   4     100.003 109.754  64.8190  0.00  0.00     0.000 N
ATOM     66  HD  A00 X   4      99.897 109.408  65.6060  0.00  0.00     0.000 HD
ATOM     66   O  A00 X   4     101.515 111.619  64.9970  0.00  0.00     0.000 OA
ATOM     67   S  A00 X   4     101.536 110.207  64.7770  0.00  0.00     0.000 S
ATOM     68   O  A00 X   4     102.068 109.423  65.8530  0.00  0.00     0.000 OA
ATOM     69   O  A00 X   4     101.903 109.738  63.4700  0.00  0.00     0.000 OA
ENDBRANCH 59 66
BRANCH 62 70
ATOM     70   C  A00 X   4      95.345 109.230  66.3110  0.00  0.00     0.000 C
ATOM     71   O  A00 X   4      95.943 106.926  69.0390  0.00  0.00     0.000 OA
ATOM     72   O  A00 X   4      94.470 106.786  67.2060  0.00  0.00     0.000 OA
ATOM     73   O  A00 X   4      96.033 108.604  67.4060  0.00  0.00     0.000 O
ATOM     74   O  A00 X   4      96.853 106.403  66.8680  0.00  0.00     0.000 OA
ATOM     75   S  A00 X   4      95.830 107.062  67.6140  0.00  0.00     0.000 S
ENDBRANCH 62 70
ENDBRANCH 57 61
ENDBRANCH 41 57
ENDBRANCH 40 44
ENDBRANCH 20 40
ENDBRANCH 19 23
ENDBRANCH 1 19
TORSDOF 14
ENDMDL
MODEL 94
REMARK VINA RESULT:      -1.5    105.558    109.504
ROOT
ATOM      1  C1  A00 X   1      34.781  39.244 118.8480  0.00  0.00     0.000 C
ATOM      2  C2  A00 X   1      34.227  38.509 120.0980  0.00  0.00     0.000 C
ATOM      3  C3  A00 X   1      35.268  38.173 121.2160  0.00  0.00     0.000 C
ATOM      4  C4  A00 X   1      36.757  38.275 120.7950  0.00  0.00     0.000 C
ATOM      5  C5  A00 X   1      36.939  38.148 119.2830  0.00  0.00     0.000 C
ATOM      6  O5  A00 X   1      36.225  39.277 118.7310  0.00  0.00     0.000 O
ATOM      7   O  A00 X   1      35.060  36.830 121.6460  0.00  0.00     0.000 O
ATOM      9  HD  A00 X   1      35.916  36.952 121.5940  0.00  0.00     0.000 HD
ATOM      9   O  A00 X   1      37.346  39.493 121.2510  0.00  0.00     0.000 O
ATOM     11  HD  A00 X   1      38.201  39.615 121.1990  0.00  0.00     0.000 HD
ENDROOT
BRANCH 2 11
ATOM     11   O  A00 X   1      33.182  39.328 120.6600  0.00  0.00     0.000 O
ATOM     12   O  A00 X   1      31.889  38.613 122.5540  0.00  0.00     0.000 OA
ATOM     13   O  A00 X   1      31.741  37.364 120.4720  0.00  0.00     0.000 OA
ATOM     14   O  A00 X   1      30.860  39.568 120.6190  0.00  0.00     0.000 OA
ATOM     15   S  A00 X   1      31.846  38.645 121.1140  0.00  0.00     0.000 S
ENDBRANCH 2 11
BRANCH 5 16
ATOM     16   C  A00 X   1      36.511  36.802 118.6890  0.00  0.00     0.000 C
ATOM     17   O  A00 X   1      36.383  35.853 119.4350  0.00  0.00     0.000 OA
ATOM     18   O  A00 X   1      36.289  36.653 117.5040  0.00  0.00     0.000 OA
ENDBRANCH 5 16
BRANCH 1 19
ATOM     19  O4  A00 X   2      34.161  38.802 117.6160  0.00  0.00     0.000 O
BRANCH 19 23
ATOM     20  C1  A00 X   2      34.159  42.710 115.8580  0.00  0.00     0.000 C
ATOM     21  C2  A00 X   2      32.846  42.222 116.5170  0.00  0.00     0.000 C
ATOM     22  C3  A00 X   2      33.114  41.030 117.4590  0.00  0.00     0.000 C
ATOM     23  C4  A00 X   2      33.865  39.905 116.7120  0.00  0.00     0.000 C
ATOM     24  C5  A00 X   2      35.145  40.523 116.0860  0.00  0.00     0.000 C
ATOM     25  O5  A00 X   2      34.753  41.578 115.1690  0.00  0.00     0.000 O
ATOM     26   O  A00 X   2      31.879  40.659 118.0960  0.00  0.00     0.000 O
ATOM     28  HD  A00 X   2      31.444  40.627 117.3470  0.00  0.00     0.000 HD
BRANCH 21 30
ATOM     28   N  A00 X   2      32.102  42.953 115.4860  0.00  0.00     0.000 N
ATOM     30  HD  A00 X   2      31.539  42.769 116.1170  0.00  0.00     0.000 HD
ATOM     30   O  A00 X   2      30.093  43.690 116.4230  0.00  0.00     0.000 OA
ATOM     31   S  A00 X   2      30.532  42.785 115.4210  0.00  0.00     0.000 S
ATOM     32   O  A00 X   2      30.206  43.163 114.0810  0.00  0.00     0.000 OA
ATOM     33   O  A00 X   2      30.245  41.397 115.6300  0.00  0.00     0.000 OA
ENDBRANCH 21 30
BRANCH 24 34
ATOM     34   C  A00 X   2      36.192  39.561 115.4770  0.00  0.00     0.000 C
ATOM     35   O  A00 X   2      35.482  37.205 112.7930  0.00  0.00     0.000 OA
ATOM     36   O  A00 X   2      35.559  38.522 114.7030  0.00  0.00     0.000 O
ATOM     37   O  A00 X   2      35.089  39.533 112.6470  0.00  0.00     0.000 OA
ATOM     38   S  A00 X   2      35.931  38.504 113.1750  0.00  0.00     0.000 S
ATOM     39   O  A00 X   2      37.348  38.701 113.1000  0.00  0.00     0.000 OA
ENDBRANCH 24 34
BRANCH 20 40
ATOM     40  O4  A00 X   3      35.010  43.113 116.9420  0.00  0.00     0.000 O
BRANCH 40 44
ATOM     41  C1  A00 X   3      38.325  43.052 118.4010  0.00  0.00     0.000 C
ATOM     42  C2  A00 X   3      37.091  43.717 119.0480  0.00  0.00     0.000 C
ATOM     43  C3  A00 X   3      36.383  44.666 118.0470  0.00  0.00     0.000 C
ATOM     44  C4  A00 X   3      36.084  44.044 116.6890  0.00  0.00     0.000 C
ATOM     45  C5  A00 X   3      37.372  43.401 116.1020  0.00  0.00     0.000 C
ATOM     46  O5  A00 X   3      38.012  42.523 117.0830  0.00  0.00     0.000 O
ATOM     47   O  A00 X   3      35.277  45.404 118.5630  0.00  0.00     0.000 O
ATOM     49  HD  A00 X   3      34.943  45.233 117.7820  0.00  0.00     0.000 HD
BRANCH 42 49
ATOM     49   O  A00 X   3      36.213  42.653 119.4780  0.00  0.00     0.000 O
ATOM     50   O  A00 X   3      34.058  42.495 120.5070  0.00  0.00     0.000 OA
ATOM     51   O  A00 X   3      35.578  44.129 121.2870  0.00  0.00     0.000 OA
ATOM     52   O  A00 X   3      36.072  41.852 121.6800  0.00  0.00     0.000 OA
ATOM     53   S  A00 X   3      35.425  42.776 120.8140  0.00  0.00     0.000 S
ENDBRANCH 42 49
BRANCH 45 54
ATOM     54   C  A00 X   3      38.323  44.459 115.5280  0.00  0.00     0.000 C
ATOM     55   O  A00 X   3      38.138  45.639 115.7430  0.00  0.00     0.000 OA
ATOM     56   O  A00 X   3      39.281  44.133 114.8440  0.00  0.00     0.000 OA
ENDBRANCH 45 54
BRANCH 41 57
ATOM     57  O4  A00 X   4      39.476  43.925 118.4250  0.00  0.00     0.000 O
BRANCH 57 61
ATOM     58  C1  A00 X   4      43.714  43.192 118.8070  0.00  0.00     0.000 C
ATOM     59  C2  A00 X   4      42.964  42.590 117.5930  0.00  0.00     0.000 C
ATOM     60  C3  A00 X   4      41.567  43.203 117.3670  0.00  0.00     0.000 C
ATOM     61  C4  A00 X   4      40.749  43.264 118.6750  0.00  0.00     0.000 C
ATOM     62  C5  A00 X   4      41.593  44.088 119.6790  0.00  0.00     0.000 C
ATOM     63  O5  A00 X   4      42.838  43.391 119.9400  0.00  0.00     0.000 O
BRANCH 59 66
ATOM     64   N  A00 X   4      42.728  41.149 117.7930  0.00  0.00     0.000 N
ATOM     66  HD  A00 X   4      42.657  40.864 118.6080  0.00  0.00     0.000 HD
ATOM     66   O  A00 X   4      44.985  40.777 117.0420  0.00  0.00     0.000 OA
ATOM     67   S  A00 X   4      43.720  40.113 117.0850  0.00  0.00     0.000 S
ATOM     68   O  A00 X   4      43.633  39.008 117.9940  0.00  0.00     0.000 OA
ATOM     69   O  A00 X   4      43.029  39.909 115.8430  0.00  0.00     0.000 OA
ENDBRANCH 59 66
BRANCH 62 70
ATOM     70   C  A00 X   4      40.886  44.355 121.0290  0.00  0.00     0.000 C
ATOM     71   O  A00 X   4      40.084  42.007 123.6650  0.00  0.00     0.000 OA
ATOM     72   O  A00 X   4      38.752  43.629 122.5970  0.00  0.00     0.000 OA
ATOM     73   O  A00 X   4      41.000  43.191 121.8630  0.00  0.00     0.000 O
ATOM     74   O  A00 X   4      39.285  41.554 121.4360  0.00  0.00     0.000 OA
ATOM     75   S  A00 X   4      39.677  42.537 122.3940  0.00  0.00     0.000 S
ENDBRANCH 62 70
ENDBRANCH 57 61
ENDBRANCH 41 57
ENDBRANCH 40 44
ENDBRANCH 20 40
ENDBRANCH 19 23
ENDBRANCH 1 19
TORSDOF 14
ENDMDL
MODEL 95
REMARK VINA RESULT:      -1.5     76.216     80.621
ROOT
ATOM      1  C1  A00 X   1      86.306  77.723  30.7900  0.00  0.00     0.000 C
ATOM      2  C2  A00 X   1      86.879  77.062  29.5080  0.00  0.00     0.000 C
ATOM      3  C3  A00 X   1      87.205  78.030  28.3230  0.00  0.00     0.000 C
ATOM      4  C4  A00 X   1      86.586  79.448  28.4280  0.00  0.00     0.000 C
ATOM      5  C5  A00 X   1      85.365  79.478  29.3470  0.00  0.00     0.000 C
ATOM      6  O5  A00 X   1      85.874  79.098  30.6460  0.00  0.00     0.000 O
ATOM      7   O  A00 X   1      86.706  77.459  27.1160  0.00  0.00     0.000 O
ATOM      9  HD  A00 X   1      86.528  78.306  27.0900  0.00  0.00     0.000 HD
ATOM      9   O  A00 X   1      87.548  80.405  28.8720  0.00  0.00     0.000 O
ATOM     11  HD  A00 X   1      87.370  81.252  28.8470  0.00  0.00     0.000 HD
ENDROOT
BRANCH 2 11
ATOM     11   O  A00 X   1      88.078  76.353  29.8780  0.00  0.00     0.000 O
ATOM     12   O  A00 X   1      89.519  75.352  28.2380  0.00  0.00     0.000 OA
ATOM     13   O  A00 X   1      87.247  74.520  28.4930  0.00  0.00     0.000 OA
ATOM     14   O  A00 X   1      88.856  74.177  30.2120  0.00  0.00     0.000 OA
ATOM     15   S  A00 X   1      88.434  75.023  29.1280  0.00  0.00     0.000 S
ENDBRANCH 2 11
BRANCH 5 16
ATOM     16   C  A00 X   1      84.181  78.625  28.8800  0.00  0.00     0.000 C
ATOM     17   O  A00 X   1      84.147  78.265  27.7210  0.00  0.00     0.000 OA
ATOM     18   O  A00 X   1      83.282  78.293  29.6260  0.00  0.00     0.000 OA
ENDBRANCH 5 16
BRANCH 1 19
ATOM     19  O4  A00 X   2      85.290  76.914  31.4320  0.00  0.00     0.000 O
BRANCH 19 23
ATOM     20  C1  A00 X   2      86.623  77.840  35.3990  0.00  0.00     0.000 C
ATOM     21  C2  A00 X   2      87.101  76.505  34.7780  0.00  0.00     0.000 C
ATOM     22  C3  A00 X   2      86.914  76.513  33.2460  0.00  0.00     0.000 C
ATOM     23  C4  A00 X   2      85.453  76.857  32.8790  0.00  0.00     0.000 C
ATOM     24  C5  A00 X   2      85.092  78.199  33.5730  0.00  0.00     0.000 C
ATOM     25  O5  A00 X   2      85.238  78.037  35.0080  0.00  0.00     0.000 O
ATOM     26   O  A00 X   2      87.433  75.284  32.7110  0.00  0.00     0.000 O
ATOM     28  HD  A00 X   2      86.993  74.794  33.2730  0.00  0.00     0.000 HD
BRANCH 21 30
ATOM     28   N  A00 X   2      87.040  75.903  36.1140  0.00  0.00     0.000 N
ATOM     30  HD  A00 X   2      87.510  75.369  35.6200  0.00  0.00     0.000 HD
ATOM     30   O  A00 X   2      88.701  74.266  36.2510  0.00  0.00     0.000 OA
ATOM     31   S  A00 X   2      87.283  74.348  36.2570  0.00  0.00     0.000 S
ATOM     32   O  A00 X   2      86.665  74.023  37.5050  0.00  0.00     0.000 OA
ATOM     33   O  A00 X   2      86.591  73.710  35.1780  0.00  0.00     0.000 OA
ENDBRANCH 21 30
BRANCH 24 34
ATOM     34   C  A00 X   2      83.761  78.884  33.1820  0.00  0.00     0.000 C
ATOM     35   O  A00 X   2      81.037  79.527  35.5100  0.00  0.00     0.000 OA
ATOM     36   O  A00 X   2      82.755  78.686  34.1950  0.00  0.00     0.000 O
ATOM     37   O  A00 X   2      83.255  80.282  35.8310  0.00  0.00     0.000 OA
ATOM     38   S  A00 X   2      82.225  79.999  34.8790  0.00  0.00     0.000 S
ATOM     39   O  A00 X   2      82.016  80.948  33.8260  0.00  0.00     0.000 OA
ENDBRANCH 24 34
BRANCH 20 40
ATOM     40  O4  A00 X   3      87.440  78.858  34.8030  0.00  0.00     0.000 O
BRANCH 40 44
ATOM     41  C1  A00 X   3      87.677  82.149  33.3070  0.00  0.00     0.000 C
ATOM     42  C2  A00 X   3      88.864  81.180  33.4940  0.00  0.00     0.000 C
ATOM     43  C3  A00 X   3      88.935  80.664  34.9540  0.00  0.00     0.000 C
ATOM     44  C4  A00 X   3      87.623  80.112  35.4950  0.00  0.00     0.000 C
ATOM     45  C5  A00 X   3      86.481  81.144  35.2760  0.00  0.00     0.000 C
ATOM     46  O5  A00 X   3      86.457  81.611  33.8880  0.00  0.00     0.000 O
ATOM     47   O  A00 X   3      90.047  79.826  35.2650  0.00  0.00     0.000 O
ATOM     49  HD  A00 X   3      89.453  79.401  35.7300  0.00  0.00     0.000 HD
BRANCH 42 49
ATOM     49   O  A00 X   3      88.675  80.095  32.5590  0.00  0.00     0.000 O
ATOM     50   O  A00 X   3      89.811  78.059  32.0140  0.00  0.00     0.000 OA
ATOM     51   O  A00 X   3      91.090  80.005  32.4260  0.00  0.00     0.000 OA
ATOM     52   O  A00 X   3      89.752  79.926  30.4790  0.00  0.00     0.000 OA
ATOM     53   S  A00 X   3      89.895  79.473  31.8190  0.00  0.00     0.000 S
ENDBRANCH 42 49
BRANCH 45 54
ATOM     54   C  A00 X   3      86.545  82.287  36.2960  0.00  0.00     0.000 C
ATOM     55   O  A00 X   3      85.647  83.100  36.3720  0.00  0.00     0.000 OA
ATOM     56   O  A00 X   3      87.501  82.400  37.0490  0.00  0.00     0.000 OA
ENDBRANCH 45 54
BRANCH 41 57
ATOM     57  O4  A00 X   4      88.002  83.484  33.7560  0.00  0.00     0.000 O
BRANCH 57 61
ATOM     58  C1  A00 X   4      86.815  87.410  32.4100  0.00  0.00     0.000 C
ATOM     59  C2  A00 X   4      85.724  86.447  32.9400  0.00  0.00     0.000 C
ATOM     60  C3  A00 X   4      86.292  85.240  33.7140  0.00  0.00     0.000 C
ATOM     61  C4  A00 X   4      87.448  84.560  32.9480  0.00  0.00     0.000 C
ATOM     62  C5  A00 X   4      88.516  85.656  32.7090  0.00  0.00     0.000 C
ATOM     63  O5  A00 X   4      87.952  86.698  31.8710  0.00  0.00     0.000 O
BRANCH 59 66
ATOM     64   N  A00 X   4      84.965  85.870  31.8150  0.00  0.00     0.000 N
ATOM     66  HD  A00 X   4      85.373  85.793  31.0550  0.00  0.00     0.000 HD
ATOM     66   O  A00 X   4      83.662  87.895  31.7860  0.00  0.00     0.000 OA
ATOM     67   S  A00 X   4      83.545  86.510  31.4520  0.00  0.00     0.000 S
ATOM     68   O  A00 X   4      83.480  86.217  30.0500  0.00  0.00     0.000 OA
ATOM     69   O  A00 X   4      82.686  85.695  32.2640  0.00  0.00     0.000 OA
ENDBRANCH 59 66
BRANCH 62 70
ATOM     70   C  A00 X   4      89.814  85.139  32.0440  0.00  0.00     0.000 C
ATOM     71   O  A00 X   4      90.299  83.942  28.6620  0.00  0.00     0.000 OA
ATOM     72   O  A00 X   4      90.933  83.005  30.7270  0.00  0.00     0.000 OA
ATOM     73   O  A00 X   4      89.601  85.005  30.6290  0.00  0.00     0.000 O
ATOM     74   O  A00 X   4      88.603  82.898  30.0210  0.00  0.00     0.000 OA
ATOM     75   S  A00 X   4      89.846  83.599  29.9800  0.00  0.00     0.000 S
ENDBRANCH 62 70
ENDBRANCH 57 61
ENDBRANCH 41 57
ENDBRANCH 40 44
ENDBRANCH 20 40
ENDBRANCH 19 23
ENDBRANCH 1 19
TORSDOF 14
ENDMDL
MODEL 96
REMARK VINA RESULT:      -1.5     71.694     76.907
ROOT
ATOM      1  C1  A00 X   1      35.043  75.236  70.3710  0.00  0.00     0.000 C
ATOM      2  C2  A00 X   1      36.539  75.150  69.9690  0.00  0.00     0.000 C
ATOM      3  C3  A00 X   1      37.567  75.106  71.1470  0.00  0.00     0.000 C
ATOM      4  C4  A00 X   1      37.011  75.518  72.5350  0.00  0.00     0.000 C
ATOM      5  C5  A00 X   1      35.761  76.391  72.4200  0.00  0.00     0.000 C
ATOM      6  O5  A00 X   1      34.786  75.552  71.7620  0.00  0.00     0.000 O
ATOM      7   O  A00 X   1      38.636  76.004  70.8570  0.00  0.00     0.000 O
ATOM      9  HD  A00 X   1      38.446  76.096  71.6970  0.00  0.00     0.000 HD
ATOM      9   O  A00 X   1      36.728  74.376  73.3440  0.00  0.00     0.000 O
ATOM     11  HD  A00 X   1      36.539  74.468  74.1840  0.00  0.00     0.000 HD
ENDROOT
BRANCH 2 11
ATOM     11   O  A00 X   1      36.708  73.974  69.1550  0.00  0.00     0.000 O
ATOM     12   O  A00 X   1      38.879  73.180  68.5040  0.00  0.00     0.000 OA
ATOM     13   O  A00 X   1      38.118  75.350  67.7120  0.00  0.00     0.000 OA
ATOM     14   O  A00 X   1      37.084  73.354  66.9350  0.00  0.00     0.000 OA
ATOM     15   S  A00 X   1      37.788  73.986  68.0180  0.00  0.00     0.000 S
ENDBRANCH 2 11
BRANCH 5 16
ATOM     16   C  A00 X   1      35.976  77.741  71.7270  0.00  0.00     0.000 C
ATOM     17   O  A00 X   1      37.108  78.164  71.6170  0.00  0.00     0.000 OA
ATOM     18   O  A00 X   1      35.057  78.396  71.2780  0.00  0.00     0.000 OA
ENDBRANCH 5 16
BRANCH 1 19
ATOM     19  O4  A00 X   2      34.271  76.083  69.4860  0.00  0.00     0.000 O
BRANCH 19 23
ATOM     20  C1  A00 X   2      30.856  73.494  69.4740  0.00  0.00     0.000 C
ATOM     21  C2  A00 X   2      31.854  73.366  68.2980  0.00  0.00     0.000 C
ATOM     22  C3  A00 X   2      33.206  74.021  68.6510  0.00  0.00     0.000 C
ATOM     23  C4  A00 X   2      33.000  75.483  69.1050  0.00  0.00     0.000 C
ATOM     24  C5  A00 X   2      31.971  75.477  70.2690  0.00  0.00     0.000 C
ATOM     25  O5  A00 X   2      30.726  74.906  69.7890  0.00  0.00     0.000 O
ATOM     26   O  A00 X   2      34.117  73.815  67.5570  0.00  0.00     0.000 O
ATOM     28  HD  A00 X   2      33.552  74.103  66.9670  0.00  0.00     0.000 HD
BRANCH 21 30
ATOM     28   N  A00 X   2      30.721  73.063  67.4180  0.00  0.00     0.000 N
ATOM     30  HD  A00 X   2      31.438  72.825  66.9940  0.00  0.00     0.000 HD
ATOM     30   O  A00 X   2      31.465  71.609  65.7480  0.00  0.00     0.000 OA
ATOM     31   S  A00 X   2      30.980  72.938  65.8640  0.00  0.00     0.000 S
ATOM     32   O  A00 X   2      29.691  73.163  65.2860  0.00  0.00     0.000 OA
ATOM     33   O  A00 X   2      31.880  73.991  65.4980  0.00  0.00     0.000 OA
ENDBRANCH 21 30
BRANCH 24 34
ATOM     34   C  A00 X   2      31.760  76.792  71.0570  0.00  0.00     0.000 C
ATOM     35   O  A00 X   2      30.602  79.904  69.5640  0.00  0.00     0.000 OA
ATOM     36   O  A00 X   2      31.647  77.921  70.1690  0.00  0.00     0.000 O
ATOM     37   O  A00 X   2      29.432  77.854  69.4200  0.00  0.00     0.000 OA
ATOM     38   S  A00 X   2      30.273  78.685  70.2270  0.00  0.00     0.000 S
ATOM     39   O  A00 X   2      29.941  78.818  71.6130  0.00  0.00     0.000 OA
ENDBRANCH 24 34
BRANCH 20 40
ATOM     40  O4  A00 X   3      31.468  72.811  70.5780  0.00  0.00     0.000 O
BRANCH 40 44
ATOM     41  C1  A00 X   3      32.296  72.875  74.1040  0.00  0.00     0.000 C
ATOM     42  C2  A00 X   3      32.689  71.745  73.1280  0.00  0.00     0.000 C
ATOM     43  C3  A00 X   3      31.456  71.247  72.3310  0.00  0.00     0.000 C
ATOM     44  C4  A00 X   3      30.641  72.351  71.6690  0.00  0.00     0.000 C
ATOM     45  C5  A00 X   3      30.282  73.446  72.7130  0.00  0.00     0.000 C
ATOM     46  O5  A00 X   3      31.472  73.878  73.4490  0.00  0.00     0.000 O
ATOM     47   O  A00 X   3      31.683  70.142  71.4590  0.00  0.00     0.000 O
ATOM     49  HD  A00 X   3      31.145  70.583  70.9430  0.00  0.00     0.000 HD
BRANCH 42 49
ATOM     49   O  A00 X   3      33.705  72.278  72.2510  0.00  0.00     0.000 O
ATOM     50   O  A00 X   3      34.955  71.489  70.3670  0.00  0.00     0.000 OA
ATOM     51   O  A00 X   3      34.604  70.031  72.1950  0.00  0.00     0.000 OA
ATOM     52   O  A00 X   3      36.010  71.906  72.5030  0.00  0.00     0.000 OA
ATOM     53   S  A00 X   3      34.894  71.384  71.7910  0.00  0.00     0.000 S
ENDBRANCH 42 49
BRANCH 45 54
ATOM     54   C  A00 X   3      29.135  73.001  73.6290  0.00  0.00     0.000 C
ATOM     55   O  A00 X   3      28.519  73.813  74.2880  0.00  0.00     0.000 OA
ATOM     56   O  A00 X   3      28.823  71.823  73.7140  0.00  0.00     0.000 OA
ENDBRANCH 45 54
BRANCH 41 57
ATOM     57  O4  A00 X   4      31.726  72.353  75.3250  0.00  0.00     0.000 O
BRANCH 57 61
ATOM     58  C1  A00 X   4      31.749  73.742  79.4120  0.00  0.00     0.000 C
ATOM     59  C2  A00 X   4      31.081  74.629  78.3320  0.00  0.00     0.000 C
ATOM     60  C3  A00 X   4      30.815  73.887  77.0060  0.00  0.00     0.000 C
ATOM     61  C4  A00 X   4      32.055  73.100  76.5300  0.00  0.00     0.000 C
ATOM     62  C5  A00 X   4      32.422  72.128  77.6800  0.00  0.00     0.000 C
ATOM     63  O5  A00 X   4      32.781  72.896  78.8570  0.00  0.00     0.000 O
BRANCH 59 66
ATOM     64   N  A00 X   4      32.017  75.725  78.0220  0.00  0.00     0.000 N
ATOM     66  HD  A00 X   4      32.861  75.580  78.1550  0.00  0.00     0.000 HD
ATOM     66   O  A00 X   4      31.128  76.890  79.9320  0.00  0.00     0.000 OA
ATOM     67   S  A00 X   4      31.743  77.161  78.6710  0.00  0.00     0.000 S
ATOM     68   O  A00 X   4      33.080  77.675  78.7340  0.00  0.00     0.000 OA
ATOM     69   O  A00 X   4      30.934  77.752  77.6440  0.00  0.00     0.000 OA
ENDBRANCH 59 66
BRANCH 62 70
ATOM     70   C  A00 X   4      33.586  71.166  77.3460  0.00  0.00     0.000 C
ATOM     71   O  A00 X   4      37.085  71.942  76.8300  0.00  0.00     0.000 OA
ATOM     72   O  A00 X   4      35.593  70.653  75.5420  0.00  0.00     0.000 OA
ATOM     73   O  A00 X   4      34.834  71.867  77.4750  0.00  0.00     0.000 O
ATOM     74   O  A00 X   4      35.441  73.085  75.4870  0.00  0.00     0.000 OA
ATOM     75   S  A00 X   4      35.782  71.913  76.2270  0.00  0.00     0.000 S
ENDBRANCH 62 70
ENDBRANCH 57 61
ENDBRANCH 41 57
ENDBRANCH 40 44
ENDBRANCH 20 40
ENDBRANCH 19 23
ENDBRANCH 1 19
TORSDOF 14
ENDMDL
MODEL 97
REMARK VINA RESULT:      -1.5    122.078    127.477
ROOT
ATOM      1  C1  A00 X   1      47.120 108.585 108.1540  0.00  0.00     0.000 C
ATOM      2  C2  A00 X   1      47.374 107.056 108.0790  0.00  0.00     0.000 C
ATOM      3  C3  A00 X   1      46.559 106.275 106.9970  0.00  0.00     0.000 C
ATOM      4  C4  A00 X   1      45.350 107.036 106.3930  0.00  0.00     0.000 C
ATOM      5  C5  A00 X   1      44.850 108.149 107.3140  0.00  0.00     0.000 C
ATOM      6  O5  A00 X   1      45.964 109.064 107.4230  0.00  0.00     0.000 O
ATOM      7   O  A00 X   1      46.035 105.087 107.5860  0.00  0.00     0.000 O
ATOM      9  HD  A00 X   1      45.412 105.420 107.0850  0.00  0.00     0.000 HD
ATOM      9   O  A00 X   1      45.662 107.577 105.1090  0.00  0.00     0.000 O
ATOM     11  HD  A00 X   1      45.039 107.909 104.6080  0.00  0.00     0.000 HD
ENDROOT
BRANCH 2 11
ATOM     11   O  A00 X   1      48.781 106.857 107.8410  0.00  0.00     0.000 O
ATOM     12   O  A00 X   1      49.700 104.681 107.4070  0.00  0.00     0.000 OA
ATOM     13   O  A00 X   1      48.683 105.133 109.5690  0.00  0.00     0.000 OA
ATOM     14   O  A00 X   1      50.723 106.189 108.9530  0.00  0.00     0.000 OA
ATOM     15   S  A00 X   1      49.491 105.615 108.4830  0.00  0.00     0.000 S
ENDBRANCH 2 11
BRANCH 5 16
ATOM     16   C  A00 X   1      44.311 107.676 108.6680  0.00  0.00     0.000 C
ATOM     17   O  A00 X   1      44.013 106.507 108.7980  0.00  0.00     0.000 OA
ATOM     18   O  A00 X   1      44.178 108.426 109.6140  0.00  0.00     0.000 OA
ENDBRANCH 5 16
BRANCH 1 19
ATOM     19  O4  A00 X   2      47.133 109.090 109.5120  0.00  0.00     0.000 O
BRANCH 19 23
ATOM     20  C1  A00 X   2      49.189 112.702 108.4670  0.00  0.00     0.000 C
ATOM     21  C2  A00 X   2      50.030 111.549 109.0650  0.00  0.00     0.000 C
ATOM     22  C3  A00 X   2      49.266 110.211 108.9810  0.00  0.00     0.000 C
ATOM     23  C4  A00 X   2      47.872 110.339 109.6360  0.00  0.00     0.000 C
ATOM     24  C5  A00 X   2      47.141 111.535 108.9660  0.00  0.00     0.000 C
ATOM     25  O5  A00 X   2      47.923 112.739 109.1780  0.00  0.00     0.000 O
ATOM     26   O  A00 X   2      50.113 109.164 109.4840  0.00  0.00     0.000 O
ATOM     28  HD  A00 X   2      50.301 109.596 110.2110  0.00  0.00     0.000 HD
BRANCH 21 30
ATOM     28   N  A00 X   2      50.870 112.553 109.7240  0.00  0.00     0.000 N
ATOM     30  HD  A00 X   2      51.307 111.806 109.7500  0.00  0.00     0.000 HD
ATOM     30   O  A00 X   2      53.041 111.703 109.8710  0.00  0.00     0.000 OA
ATOM     31   S  A00 X   2      51.979 112.066 110.7400  0.00  0.00     0.000 S
ATOM     32   O  A00 X   2      52.227 113.219 111.5490  0.00  0.00     0.000 OA
ATOM     33   O  A00 X   2      51.400 111.020 111.5300  0.00  0.00     0.000 OA
ENDBRANCH 21 30
BRANCH 24 34
ATOM     34   C  A00 X   2      45.640 111.735 109.2790  0.00  0.00     0.000 C
ATOM     35   O  A00 X   2      44.299 112.199 112.6320  0.00  0.00     0.000 OA
ATOM     36   O  A00 X   2      45.367 111.537 110.6810  0.00  0.00     0.000 O
ATOM     37   O  A00 X   2      45.988 113.557 111.6850  0.00  0.00     0.000 OA
ATOM     38   S  A00 X   2      44.802 112.794 111.4380  0.00  0.00     0.000 S
ATOM     39   O  A00 X   2      43.809 113.370 110.5820  0.00  0.00     0.000 OA
ENDBRANCH 24 34
BRANCH 20 40
ATOM     40  O4  A00 X   3      48.959 112.344 107.0960  0.00  0.00     0.000 O
BRANCH 40 44
ATOM     41  C1  A00 X   3      46.639 112.133 104.3220  0.00  0.00     0.000 C
ATOM     42  C2  A00 X   3      48.112 111.672 104.2750  0.00  0.00     0.000 C
ATOM     43  C3  A00 X   3      49.059 112.785 104.7910  0.00  0.00     0.000 C
ATOM     44  C4  A00 X   3      48.663 113.381 106.1360  0.00  0.00     0.000 C
ATOM     45  C5  A00 X   3      47.173 113.825 106.1030  0.00  0.00     0.000 C
ATOM     46  O5  A00 X   3      46.318 112.748 105.6000  0.00  0.00     0.000 O
ATOM     47   O  A00 X   3      50.455 112.502 104.7110  0.00  0.00     0.000 O
ATOM     49  HD  A00 X   3      50.466 112.906 105.4770  0.00  0.00     0.000 HD
BRANCH 42 49
ATOM     49   O  A00 X   3      48.208 110.479 105.0840  0.00  0.00     0.000 O
ATOM     50   O  A00 X   3      49.948 108.982 105.7630  0.00  0.00     0.000 OA
ATOM     51   O  A00 X   3      49.918 109.759 103.5310  0.00  0.00     0.000 OA
ATOM     52   O  A00 X   3      48.206 108.290 104.2360  0.00  0.00     0.000 OA
ATOM     53   S  A00 X   3      49.121 109.300 104.6410  0.00  0.00     0.000 S
ENDBRANCH 42 49
BRANCH 45 54
ATOM     54   C  A00 X   3      46.991 115.144 105.3440  0.00  0.00     0.000 C
ATOM     55   O  A00 X   3      45.921 115.718 105.3480  0.00  0.00     0.000 OA
ATOM     56   O  A00 X   3      47.917 115.640 104.7200  0.00  0.00     0.000 OA
ENDBRANCH 45 54
BRANCH 41 57
ATOM     57  O4  A00 X   4      46.297 112.946 103.1770  0.00  0.00     0.000 O
BRANCH 57 61
ATOM     58  C1  A00 X   4      42.674 113.408 100.8750  0.00  0.00     0.000 C
ATOM     59  C2  A00 X   4      42.653 113.793 102.3760  0.00  0.00     0.000 C
ATOM     60  C3  A00 X   4      44.059 113.930 102.9950  0.00  0.00     0.000 C
ATOM     61  C4  A00 X   4      44.961 112.728 102.6410  0.00  0.00     0.000 C
ATOM     62  C5  A00 X   4      45.009 112.659 101.0940  0.00  0.00     0.000 C
ATOM     63  O5  A00 X   4      43.674 112.404 100.5870  0.00  0.00     0.000 O
BRANCH 59 66
ATOM     64   N  A00 X   4      41.979 112.736 103.1510  0.00  0.00     0.000 N
ATOM     66  HD  A00 X   4      42.005 111.930 102.8360  0.00  0.00     0.000 HD
ATOM     66   O  A00 X   4      39.886 113.742 102.5120  0.00  0.00     0.000 OA
ATOM     67   S  A00 X   4      40.451 112.960 103.5670  0.00  0.00     0.000 S
ATOM     68   O  A00 X   4      40.000 111.601 103.6380  0.00  0.00     0.000 OA
ATOM     69   O  A00 X   4      40.627 113.589 104.8460  0.00  0.00     0.000 OA
ENDBRANCH 59 66
BRANCH 62 70
ATOM     70   C  A00 X   4      45.961 111.574 100.5390  0.00  0.00     0.000 C
ATOM     71   O  A00 X   4      45.586 107.974 100.6310  0.00  0.00     0.000 OA
ATOM     72   O  A00 X   4      47.413 109.341 101.2130  0.00  0.00     0.000 OA
ATOM     73   O  A00 X   4      45.300 110.298 100.5750  0.00  0.00     0.000 O
ATOM     74   O  A00 X   4      45.494 109.195 102.7080  0.00  0.00     0.000 OA
ATOM     75   S  A00 X   4      45.990 109.136 101.3710  0.00  0.00     0.000 S
ENDBRANCH 62 70
ENDBRANCH 57 61
ENDBRANCH 41 57
ENDBRANCH 40 44
ENDBRANCH 20 40
ENDBRANCH 19 23
ENDBRANCH 1 19
TORSDOF 14
ENDMDL
MODEL 98
REMARK VINA RESULT:      -1.5     94.521     98.312
ROOT
ATOM      1  C1  A00 X   1      13.370  64.561  97.9800  0.00  0.00     0.000 C
ATOM      2  C2  A00 X   1      13.226  63.863  96.6020  0.00  0.00     0.000 C
ATOM      3  C3  A00 X   1      13.936  62.477  96.4560  0.00  0.00     0.000 C
ATOM      4  C4  A00 X   1      14.983  62.143  97.5490  0.00  0.00     0.000 C
ATOM      5  C5  A00 X   1      15.523  63.399  98.2330  0.00  0.00     0.000 C
ATOM      6  O5  A00 X   1      14.369  63.997  98.8660  0.00  0.00     0.000 O
ATOM      7   O  A00 X   1      14.628  62.446  95.2100  0.00  0.00     0.000 O
ATOM      9  HD  A00 X   1      15.146  62.078  95.7980  0.00  0.00     0.000 HD
ATOM      9   O  A00 X   1      14.450  61.252  98.5280  0.00  0.00     0.000 O
ATOM     11  HD  A00 X   1      14.968  60.884  99.1170  0.00  0.00     0.000 HD
ENDROOT
BRANCH 2 11
ATOM     11   O  A00 X   1      11.819  63.700  96.3380  0.00  0.00     0.000 O
ATOM     12   O  A00 X   1      11.010  62.856  94.2400  0.00  0.00     0.000 OA
ATOM     13   O  A00 X   1      12.203  64.975  94.2900  0.00  0.00     0.000 OA
ATOM     14   O  A00 X   1      10.046  64.784  95.2740  0.00  0.00     0.000 OA
ATOM     15   S  A00 X   1      11.261  64.097  94.9280  0.00  0.00     0.000 S
ENDBRANCH 2 11
BRANCH 5 16
ATOM     16   C  A00 X   1      16.286  64.360  97.3160  0.00  0.00     0.000 C
ATOM     17   O  A00 X   1      16.679  63.950  96.2430  0.00  0.00     0.000 OA
ATOM     18   O  A00 X   1      16.503  65.516  97.6190  0.00  0.00     0.000 OA
ENDBRANCH 5 16
BRANCH 1 19
ATOM     19  O4  A00 X   2      13.514  65.998  97.8690  0.00  0.00     0.000 O
BRANCH 19 23
ATOM     20  C1  A00 X   2      11.228  66.799 101.4040  0.00  0.00     0.000 C
ATOM     21  C2  A00 X   2      10.507  66.936 100.0410  0.00  0.00     0.000 C
ATOM     22  C3  A00 X   2      11.296  66.215  98.9280  0.00  0.00     0.000 C
ATOM     23  C4  A00 X   2      12.757  66.715  98.8870  0.00  0.00     0.000 C
ATOM     24  C5  A00 X   2      13.358  66.543 100.3090  0.00  0.00     0.000 C
ATOM     25  O5  A00 X   2      12.572  67.325 101.2460  0.00  0.00     0.000 O
ATOM     26   O  A00 X   2      10.554  66.312  97.7000  0.00  0.00     0.000 O
ATOM     28  HD  A00 X   2      10.447  67.168  97.7740  0.00  0.00     0.000 HD
BRANCH 21 30
ATOM     28   N  A00 X   2       9.737  68.058 100.5860  0.00  0.00     0.000 N
ATOM     30  HD  A00 X   2       9.323  67.793  99.8730  0.00  0.00     0.000 HD
ATOM     30   O  A00 X   2       7.621  68.037  99.5960  0.00  0.00     0.000 OA
ATOM     31   S  A00 X   2       8.778  68.860  99.6190  0.00  0.00     0.000 S
ATOM     32   O  A00 X   2       8.610  70.120 100.2760  0.00  0.00     0.000 OA
ATOM     33   O  A00 X   2       9.475  69.035  98.3800  0.00  0.00     0.000 OA
ENDBRANCH 21 30
BRANCH 24 34
ATOM     34   C  A00 X   2      14.881  66.755 100.4840  0.00  0.00     0.000 C
ATOM     35   O  A00 X   2      16.619  69.845  99.6550  0.00  0.00     0.000 OA
ATOM     36   O  A00 X   2      15.334  67.915  99.7580  0.00  0.00     0.000 O
ATOM     37   O  A00 X   2      14.784  69.719 101.1410  0.00  0.00     0.000 OA
ATOM     38   S  A00 X   2      15.951  69.060 100.6410  0.00  0.00     0.000 S
ATOM     39   O  A00 X   2      16.810  68.420 101.5910  0.00  0.00     0.000 OA
ENDBRANCH 24 34
BRANCH 20 40
ATOM     40  O4  A00 X   3      11.291  65.391 101.6700  0.00  0.00     0.000 O
BRANCH 40 44
ATOM     41  C1  A00 X   3      13.229  62.561 102.8370  0.00  0.00     0.000 C
ATOM     42  C2  A00 X   3      11.780  62.478 102.3100  0.00  0.00     0.000 C
ATOM     43  C3  A00 X   3      10.871  63.514 103.0200  0.00  0.00     0.000 C
ATOM     44  C4  A00 X   3      11.421  64.935 103.0340  0.00  0.00     0.000 C
ATOM     45  C5  A00 X   3      12.876  64.937 103.5800  0.00  0.00     0.000 C
ATOM     46  O5  A00 X   3      13.695  63.938 102.8890  0.00  0.00     0.000 O
ATOM     47   O  A00 X   3       9.488  63.469 102.6740  0.00  0.00     0.000 O
ATOM     49  HD  A00 X   3       9.564  64.331 102.7200  0.00  0.00     0.000 HD
BRANCH 42 49
ATOM     49   O  A00 X   3      11.834  62.712 100.8850  0.00  0.00     0.000 O
ATOM     50   O  A00 X   3      10.256  62.839  99.0890  0.00  0.00     0.000 OA
ATOM     51   O  A00 X   3       9.991  61.152 100.7240  0.00  0.00     0.000 OA
ATOM     52   O  A00 X   3      11.839  61.019  99.2580  0.00  0.00     0.000 OA
ATOM     53   S  A00 X   3      10.931  61.891  99.9190  0.00  0.00     0.000 S
ENDBRANCH 42 49
BRANCH 45 54
ATOM     54   C  A00 X   3      12.910  64.793 105.1060  0.00  0.00     0.000 C
ATOM     55   O  A00 X   3      11.886  64.619 105.7340  0.00  0.00     0.000 OA
ATOM     56   O  A00 X   3      13.966  64.853 105.7170  0.00  0.00     0.000 OA
ENDBRANCH 45 54
BRANCH 41 57
ATOM     57  O4  A00 X   4      13.388  61.840 104.0790  0.00  0.00     0.000 O
BRANCH 57 61
ATOM     58  C1  A00 X   4      16.664  59.599 105.7770  0.00  0.00     0.000 C
ATOM     59  C2  A00 X   4      16.870  61.106 105.4840  0.00  0.00     0.000 C
ATOM     60  C3  A00 X   4      15.554  61.868 105.2270  0.00  0.00     0.000 C
ATOM     61  C4  A00 X   4      14.648  61.125 104.2220  0.00  0.00     0.000 C
ATOM     62  C5  A00 X   4      14.400  59.716 104.8170  0.00  0.00     0.000 C
ATOM     63  O5  A00 X   4      15.664  59.010 104.9140  0.00  0.00     0.000 O
BRANCH 59 66
ATOM     64   N  A00 X   4      17.670  61.267 104.2560  0.00  0.00     0.000 N
ATOM     66  HD  A00 X   4      17.625  60.636 103.6640  0.00  0.00     0.000 HD
ATOM     66   O  A00 X   4      19.631  60.914 105.6070  0.00  0.00     0.000 OA
ATOM     67   S  A00 X   4      19.232  61.576 104.4050  0.00  0.00     0.000 S
ATOM     68   O  A00 X   4      19.727  60.998 103.1890  0.00  0.00     0.000 OA
ATOM     69   O  A00 X   4      19.207  63.011 104.4070  0.00  0.00     0.000 OA
ENDBRANCH 59 66
BRANCH 62 70
ATOM     70   C  A00 X   4      13.414  58.849 103.9990  0.00  0.00     0.000 C
ATOM     71   O  A00 X   4      13.905  57.317 100.7550  0.00  0.00     0.000 OA
ATOM     72   O  A00 X   4      12.133  58.630 101.5790  0.00  0.00     0.000 OA
ATOM     73   O  A00 X   4      14.112  58.252 102.8930  0.00  0.00     0.000 O
ATOM     74   O  A00 X   4      14.238  59.695 100.9680  0.00  0.00     0.000 OA
ATOM     75   S  A00 X   4      13.570  58.529 101.4480  0.00  0.00     0.000 S
ENDBRANCH 62 70
ENDBRANCH 57 61
ENDBRANCH 41 57
ENDBRANCH 40 44
ENDBRANCH 20 40
ENDBRANCH 19 23
ENDBRANCH 1 19
TORSDOF 14
ENDMDL
MODEL 99
REMARK VINA RESULT:      -1.5     98.774    103.843
ROOT
ATOM      1  C1  A00 X   1     107.914  53.138  77.1340  0.00  0.00     0.000 C
ATOM      2  C2  A00 X   1     108.840  52.120  77.8510  0.00  0.00     0.000 C
ATOM      3  C3  A00 X   1     108.270  50.673  78.0210  0.00  0.00     0.000 C
ATOM      4  C4  A00 X   1     106.743  50.526  77.7950  0.00  0.00     0.000 C
ATOM      5  C5  A00 X   1     106.001  51.848  77.9850  0.00  0.00     0.000 C
ATOM      6  O5  A00 X   1     106.536  52.720  76.9640  0.00  0.00     0.000 O
ATOM      7   O  A00 X   1     108.526  50.234  79.3530  0.00  0.00     0.000 O
ATOM      9  HD  A00 X   1     107.724  49.979  79.1500  0.00  0.00     0.000 HD
ATOM      9   O  A00 X   1     106.456  49.993  76.5020  0.00  0.00     0.000 O
ATOM     11  HD  A00 X   1     105.654  49.738  76.2990  0.00  0.00     0.000 HD
ENDROOT
BRANCH 2 11
ATOM     11   O  A00 X   1     110.075  52.054  77.1110  0.00  0.00     0.000 O
ATOM     12   O  A00 X   1     111.930  50.723  77.8530  0.00  0.00     0.000 OA
ATOM     13   O  A00 X   1     111.194  52.601  79.2120  0.00  0.00     0.000 OA
ATOM     14   O  A00 X   1     112.221  52.972  77.0990  0.00  0.00     0.000 OA
ATOM     15   S  A00 X   1     111.431  52.074  77.8970  0.00  0.00     0.000 S
ENDBRANCH 2 11
BRANCH 5 16
ATOM     16   C  A00 X   1     106.078  52.438  79.3970  0.00  0.00     0.000 C
ATOM     17   O  A00 X   1     105.681  53.570  79.5770  0.00  0.00     0.000 OA
ATOM     18   O  A00 X   1     106.516  51.811  80.3420  0.00  0.00     0.000 OA
ENDBRANCH 5 16
BRANCH 1 19
ATOM     19  O4  A00 X   2     107.996  54.468  77.7020  0.00  0.00     0.000 O
BRANCH 19 23
ATOM     20  C1  A00 X   2     107.628  56.435  73.9120  0.00  0.00     0.000 C
ATOM     21  C2  A00 X   2     109.051  56.275  74.4990  0.00  0.00     0.000 C
ATOM     22  C3  A00 X   2     109.072  55.201  75.6060  0.00  0.00     0.000 C
ATOM     23  C4  A00 X   2     108.009  55.510  76.6840  0.00  0.00     0.000 C
ATOM     24  C5  A00 X   2     106.639  55.665  75.9700  0.00  0.00     0.000 C
ATOM     25  O5  A00 X   2     106.731  56.750  75.0100  0.00  0.00     0.000 O
ATOM     26   O  A00 X   2     110.423  55.042  76.0690  0.00  0.00     0.000 O
ATOM     28  HD  A00 X   2     110.537  55.892  76.1860  0.00  0.00     0.000 HD
BRANCH 21 30
ATOM     28   N  A00 X   2     109.400  57.570  73.9060  0.00  0.00     0.000 N
ATOM     30  HD  A00 X   2     110.145  57.180  74.1140  0.00  0.00     0.000 HD
ATOM     30   O  A00 X   2     111.665  57.520  73.3320  0.00  0.00     0.000 OA
ATOM     31   S  A00 X   2     110.811  58.201  74.2390  0.00  0.00     0.000 S
ATOM     32   O  A00 X   2     110.631  59.594  73.9690  0.00  0.00     0.000 OA
ATOM     33   O  A00 X   2     111.048  57.992  75.6370  0.00  0.00     0.000 OA
ENDBRANCH 21 30
BRANCH 24 34
ATOM     34   C  A00 X   2     105.368  55.751  76.8480  0.00  0.00     0.000 C
ATOM     35   O  A00 X   2     103.210  58.678  77.0320  0.00  0.00     0.000 OA
ATOM     36   O  A00 X   2     104.926  57.115  76.9950  0.00  0.00     0.000 O
ATOM     37   O  A00 X   2     103.758  57.565  75.0190  0.00  0.00     0.000 OA
ATOM     38   S  A00 X   2     103.496  57.423  76.4180  0.00  0.00     0.000 S
ATOM     39   O  A00 X   2     102.653  56.340  76.8290  0.00  0.00     0.000 OA
ENDBRANCH 24 34
BRANCH 20 40
ATOM     40  O4  A00 X   3     107.287  55.152  73.3670  0.00  0.00     0.000 O
BRANCH 40 44
ATOM     41  C1  A00 X   3     104.760  52.573  73.0690  0.00  0.00     0.000 C
ATOM     42  C2  A00 X   3     106.185  52.481  72.4810  0.00  0.00     0.000 C
ATOM     43  C3  A00 X   3     106.525  53.744  71.6480  0.00  0.00     0.000 C
ATOM     44  C4  A00 X   3     106.256  55.063  72.3600  0.00  0.00     0.000 C
ATOM     45  C5  A00 X   3     104.805  55.082  72.9170  0.00  0.00     0.000 C
ATOM     46  O5  A00 X   3     104.525  53.868  73.6870  0.00  0.00     0.000 O
ATOM     47   O  A00 X   3     107.787  53.731  70.9840  0.00  0.00     0.000 O
ATOM     49  HD  A00 X   3     107.794  54.563  71.2220  0.00  0.00     0.000 HD
BRANCH 42 49
ATOM     49   O  A00 X   3     107.092  52.323  73.5940  0.00  0.00     0.000 O
ATOM     50   O  A00 X   3     109.462  52.170  73.8890  0.00  0.00     0.000 OA
ATOM     51   O  A00 X   3     108.460  51.018  72.0840  0.00  0.00     0.000 OA
ATOM     52   O  A00 X   3     108.012  50.275  74.2820  0.00  0.00     0.000 OA
ATOM     53   S  A00 X   3     108.336  51.397  73.4700  0.00  0.00     0.000 S
ENDBRANCH 42 49
BRANCH 45 54
ATOM     54   C  A00 X   3     103.776  55.346  71.8110  0.00  0.00     0.000 C
ATOM     55   O  A00 X   3     104.063  55.173  70.6440  0.00  0.00     0.000 OA
ATOM     56   O  A00 X   3     102.650  55.734  72.0840  0.00  0.00     0.000 OA
ENDBRANCH 45 54
BRANCH 41 57
ATOM     57  O4  A00 X   4     103.757  52.195  72.0990  0.00  0.00     0.000 O
BRANCH 57 61
ATOM     58  C1  A00 X   4      99.792  50.523  72.4430  0.00  0.00     0.000 C
ATOM     59  C2  A00 X   4      99.986  52.034  72.7240  0.00  0.00     0.000 C
ATOM     60  C3  A00 X   4     101.340  52.583  72.2280  0.00  0.00     0.000 C
ATOM     61  C4  A00 X   4     102.516  51.681  72.6610  0.00  0.00     0.000 C
ATOM     62  C5  A00 X   4     102.216  50.271  72.0950  0.00  0.00     0.000 C
ATOM     63  O5  A00 X   4     100.997  49.766  72.6970  0.00  0.00     0.000 O
BRANCH 59 66
ATOM     64   N  A00 X   4      99.967  52.273  74.1790  0.00  0.00     0.000 N
ATOM     66  HD  A00 X   4     100.219  51.625  74.6940  0.00  0.00     0.000 HD
ATOM     66   O  A00 X   4      97.563  52.261  74.0480  0.00  0.00     0.000 OA
ATOM     67   S  A00 X   4      98.616  52.817  74.8390  0.00  0.00     0.000 S
ATOM     68   O  A00 X   4      98.742  52.281  76.1630  0.00  0.00     0.000 OA
ATOM     69   O  A00 X   4      98.843  54.232  74.7530  0.00  0.00     0.000 OA
ENDBRANCH 59 66
BRANCH 62 70
ATOM     70   C  A00 X   4     103.345  49.241  72.3330  0.00  0.00     0.000 C
ATOM     71   O  A00 X   4     103.822  47.016  75.1490  0.00  0.00     0.000 OA
ATOM     72   O  A00 X   4     105.324  48.481  74.0800  0.00  0.00     0.000 OA
ATOM     73   O  A00 X   4     103.002  48.410  73.4540  0.00  0.00     0.000 O
ATOM     74   O  A00 X   4     103.619  49.382  75.5700  0.00  0.00     0.000 OA
ATOM     75   S  A00 X   4     104.005  48.354  74.6580  0.00  0.00     0.000 S
ENDBRANCH 62 70
ENDBRANCH 57 61
ENDBRANCH 41 57
ENDBRANCH 40 44
ENDBRANCH 20 40
ENDBRANCH 19 23
ENDBRANCH 1 19
TORSDOF 14
ENDMDL
MODEL 100
REMARK VINA RESULT:      -0.8     10.442     17.656
ROOT
ATOM      1  C1  A00 X   1      26.670  37.287  19.1260  0.00  0.00     0.000 C
ATOM      2  C2  A00 X   1      27.400  35.936  19.3490  0.00  0.00     0.000 C
ATOM      3  C3  A00 X   1      26.646  34.884  20.2280  0.00  0.00     0.000 C
ATOM      4  C4  A00 X   1      25.459  35.436  21.0600  0.00  0.00     0.000 C
ATOM      5  C5  A00 X   1      25.573  36.941  21.2990  0.00  0.00     0.000 C
ATOM      6  O5  A00 X   1      25.524  37.528  19.9790  0.00  0.00     0.000 O
ATOM      7   O  A00 X   1      27.567  34.323  21.1610  0.00  0.00     0.000 O
ATOM      9  HD  A00 X   1      26.824  34.457  21.5850  0.00  0.00     0.000 HD
ATOM      9   O  A00 X   1      24.207  35.139  20.4420  0.00  0.00     0.000 O
ATOM     11  HD  A00 X   1      23.464  35.273  20.8670  0.00  0.00     0.000 HD
ENDROOT
BRANCH 2 11
ATOM     11   O  A00 X   1      27.665  35.361  18.0550  0.00  0.00     0.000 O
ATOM     12   O  A00 X   1      28.269  33.052  17.7890  0.00  0.00     0.000 OA
ATOM     13   O  A00 X   1      29.758  34.539  19.0090  0.00  0.00     0.000 OA
ATOM     14   O  A00 X   1      29.453  34.797  16.6640  0.00  0.00     0.000 OA
ATOM     15   S  A00 X   1      28.862  34.361  17.9000  0.00  0.00     0.000 S
ENDBRANCH 2 11
BRANCH 5 16
ATOM     16   C  A00 X   1      26.792  37.377  22.1190  0.00  0.00     0.000 C
ATOM     17   O  A00 X   1      27.380  36.541  22.7740  0.00  0.00     0.000 OA
ATOM     18   O  A00 X   1      27.193  38.523  22.1300  0.00  0.00     0.000 OA
ENDBRANCH 5 16
BRANCH 1 19
ATOM     19  O4  A00 X   2      27.573  38.419  19.1230  0.00  0.00     0.000 O
BRANCH 19 23
ATOM     20  C1  A00 X   2      27.869  41.815  16.5260  0.00  0.00     0.000 C
ATOM     21  C2  A00 X   2      26.642  41.740  17.4660  0.00  0.00     0.000 C
ATOM     22  C3  A00 X   2      26.887  40.733  18.6090  0.00  0.00     0.000 C
ATOM     23  C4  A00 X   2      27.294  39.354  18.0410  0.00  0.00     0.000 C
ATOM     24  C5  A00 X   2      28.515  39.568  17.1060  0.00  0.00     0.000 C
ATOM     25  O5  A00 X   2      28.133  40.473  16.0380  0.00  0.00     0.000 O
ATOM     26   O  A00 X   2      25.751  40.750  19.4900  0.00  0.00     0.000 O
ATOM     28  HD  A00 X   2      25.184  40.654  18.8430  0.00  0.00     0.000 HD
BRANCH 21 30
ATOM     28   N  A00 X   2      25.763  42.302  18.4960  0.00  0.00     0.000 N
ATOM     30  HD  A00 X   2      25.647  42.777  17.7810  0.00  0.00     0.000 HD
ATOM     30   O  A00 X   2      24.193  43.674  17.4430  0.00  0.00     0.000 OA
ATOM     31   S  A00 X   2      25.281  43.800  18.3460  0.00  0.00     0.000 S
ATOM     32   O  A00 X   2      24.919  44.174  19.6790  0.00  0.00     0.000 OA
ATOM     33   O  A00 X   2      26.408  44.566  17.9040  0.00  0.00     0.000 OA
ENDBRANCH 21 30
BRANCH 24 34
ATOM     34   C  A00 X   2      29.261  38.315  16.5890  0.00  0.00     0.000 C
ATOM     35   O  A00 X   2      28.701  36.811  13.3210  0.00  0.00     0.000 OA
ATOM     36   O  A00 X   2      28.597  37.748  15.4420  0.00  0.00     0.000 O
ATOM     37   O  A00 X   2      29.299  39.076  13.6490  0.00  0.00     0.000 OA
ATOM     38   S  A00 X   2      29.445  37.731  14.1170  0.00  0.00     0.000 S
ATOM     39   O  A00 X   2      30.759  37.295  14.4820  0.00  0.00     0.000 OA
ENDBRANCH 24 34
BRANCH 20 40
ATOM     40  O4  A00 X   3      28.962  42.251  17.3480  0.00  0.00     0.000 O
BRANCH 40 44
ATOM     41  C1  A00 X   3      31.962  43.415  19.0110  0.00  0.00     0.000 C
ATOM     42  C2  A00 X   3      30.672  44.245  18.8410  0.00  0.00     0.000 C
ATOM     43  C3  A00 X   3      30.203  44.246  17.3630  0.00  0.00     0.000 C
ATOM     44  C4  A00 X   3      30.112  42.864  16.7270  0.00  0.00     0.000 C
ATOM     45  C5  A00 X   3      31.446  42.094  16.9350  0.00  0.00     0.000 C
ATOM     46  O5  A00 X   3      31.856  42.128  18.3410  0.00  0.00     0.000 O
ATOM     47   O  A00 X   3      29.065  45.055  17.0710  0.00  0.00     0.000 O
ATOM     49  HD  A00 X   3      28.864  44.388  16.5560  0.00  0.00     0.000 HD
BRANCH 42 49
ATOM     49   O  A00 X   3      29.676  43.663  19.7110  0.00  0.00     0.000 O
ATOM     50   O  A00 X   3      27.905  44.473  21.1020  0.00  0.00     0.000 OA
ATOM     51   O  A00 X   3      29.966  45.631  21.0890  0.00  0.00     0.000 OA
ATOM     52   O  A00 X   3      29.894  43.469  22.0410  0.00  0.00     0.000 OA
ATOM     53   S  A00 X   3      29.327  44.339  21.0690  0.00  0.00     0.000 S
ENDBRANCH 42 49
BRANCH 45 54
ATOM     54   C  A00 X   3      32.539  42.582  15.9760  0.00  0.00     0.000 C
ATOM     55   O  A00 X   3      32.298  43.435  15.1470  0.00  0.00     0.000 OA
ATOM     56   O  A00 X   3      33.668  42.121  16.0290  0.00  0.00     0.000 OA
ENDBRANCH 45 54
BRANCH 41 57
ATOM     57  O4  A00 X   4      33.137  44.172  18.6450  0.00  0.00     0.000 O
BRANCH 57 61
ATOM     58  C1  A00 X   4      37.030  44.621  20.4560  0.00  0.00     0.000 C
ATOM     59  C2  A00 X   4      36.796  43.435  19.4860  0.00  0.00     0.000 C
ATOM     60  C3  A00 X   4      35.516  43.579  18.6380  0.00  0.00     0.000 C
ATOM     61  C4  A00 X   4      34.296  43.968  19.5010  0.00  0.00     0.000 C
ATOM     62  C5  A00 X   4      34.673  45.289  20.2180  0.00  0.00     0.000 C
ATOM     63  O5  A00 X   4      35.805  45.051  21.0920  0.00  0.00     0.000 O
BRANCH 59 66
ATOM     64   N  A00 X   4      36.625  42.184  20.2470  0.00  0.00     0.000 N
ATOM     66  HD  A00 X   4      36.306  42.245  21.0500  0.00  0.00     0.000 HD
ATOM     66   O  A00 X   4      39.026  42.056  20.3810  0.00  0.00     0.000 OA
ATOM     67   S  A00 X   4      37.880  41.202  20.3800  0.00  0.00     0.000 S
ATOM     68   O  A00 X   4      37.581  40.569  21.6320  0.00  0.00     0.000 OA
ATOM     69   O  A00 X   4      37.669  40.365  19.2330  0.00  0.00     0.000 OA
ENDBRANCH 59 66
BRANCH 62 70
ATOM     70   C  A00 X   4      33.526  45.903  21.0550  0.00  0.00     0.000 C
ATOM     71   O  A00 X   4      31.682  48.962  20.4630  0.00  0.00     0.000 OA
ATOM     72   O  A00 X   4      32.729  48.154  22.4110  0.00  0.00     0.000 OA
ATOM     73   O  A00 X   4      32.928  46.983  20.3200  0.00  0.00     0.000 O
ATOM     74   O  A00 X   4      34.086  49.075  20.6090  0.00  0.00     0.000 OA
ATOM     75   S  A00 X   4      32.891  48.398  20.9950  0.00  0.00     0.000 S
ENDBRANCH 62 70
ENDBRANCH 57 61
ENDBRANCH 41 57
ENDBRANCH 40 44
ENDBRANCH 20 40
ENDBRANCH 19 23
ENDBRANCH 1 19
TORSDOF 14
ENDMDL
