MODEL 1
REMARK VINA RESULT:      -4.9      0.000      0.000
ROOT
ATOM      1  C1  A00 X   1      11.254   4.471   4.0030  0.00  0.00     0.000 C
ATOM      2  C2  A00 X   1      10.379   3.190   3.9760  0.00  0.00     0.000 C
ATOM      3  C3  A00 X   1      11.135   1.847   3.7070  0.00  0.00     0.000 C
ATOM      4  C4  A00 X   1      12.572   1.991   3.1420  0.00  0.00     0.000 C
ATOM      5  C5  A00 X   1      12.789   3.337   2.4520  0.00  0.00     0.000 C
ATOM      6  O5  A00 X   1      12.603   4.319   3.4970  0.00  0.00     0.000 O
ATOM      7   O  A00 X   1      10.397   1.092   2.7490  0.00  0.00     0.000 O
ATOM      9  HD  A00 X   1      11.235   1.015   2.5440  0.00  0.00     0.000 HD
ATOM      9   O  A00 X   1      13.554   1.807   4.1610  0.00  0.00     0.000 O
ATOM     11  HD  A00 X   1      14.392   1.730   3.9570  0.00  0.00     0.000 HD
ENDROOT
BRANCH 2 11
ATOM     11   O  A00 X   1       9.697   3.098   5.2420  0.00  0.00     0.000 O
ATOM     12   O  A00 X   1       8.092   1.371   5.6980  0.00  0.00     0.000 OA
ATOM     13   O  A00 X   1       7.624   3.000   3.9540  0.00  0.00     0.000 OA
ATOM     14   O  A00 X   1       7.661   3.658   6.2390  0.00  0.00     0.000 OA
ATOM     15   S  A00 X   1       8.171   2.740   5.2570  0.00  0.00     0.000 S
ENDBRANCH 2 11
BRANCH 5 16
ATOM     16   C  A00 X   1      11.914   3.582   1.2190  0.00  0.00     0.000 C
ATOM     17   O  A00 X   1      11.934   4.680   0.7010  0.00  0.00     0.000 OA
ATOM     18   O  A00 X   1      11.210   2.717   0.7370  0.00  0.00     0.000 OA
ENDBRANCH 5 16
BRANCH 1 19
ATOM     19  O4  A00 X   2      10.593   5.615   3.4080  0.00  0.00     0.000 O
BRANCH 19 23
ATOM     20  C1  A00 X   2      12.185   8.398   6.2520  0.00  0.00     0.000 C
ATOM     21  C2  A00 X   2      10.747   7.877   6.4900  0.00  0.00     0.000 C
ATOM     22  C3  A00 X   2      10.483   6.598   5.6690  0.00  0.00     0.000 C
ATOM     23  C4  A00 X   2      10.794   6.838   4.1740  0.00  0.00     0.000 C
ATOM     24  C5  A00 X   2      12.249   7.372   4.0730  0.00  0.00     0.000 C
ATOM     25  O5  A00 X   2      12.346   8.610   4.8240  0.00  0.00     0.000 O
ATOM     26   O  A00 X   2       9.163   6.117   5.9760  0.00  0.00     0.000 O
ATOM     28  HD  A00 X   2       8.796   6.890   5.8430  0.00  0.00     0.000 HD
BRANCH 21 30
ATOM     28   N  A00 X   2      10.400   9.193   7.0360  0.00  0.00     0.000 N
ATOM     30  HD  A00 X   2       9.772   8.648   7.2780  0.00  0.00     0.000 HD
ATOM     30   O  A00 X   2       8.769   8.891   8.6820  0.00  0.00     0.000 OA
ATOM     31   S  A00 X   2       8.890   9.490   7.4000  0.00  0.00     0.000 S
ATOM     32   O  A00 X   2       8.814  10.918   7.3900  0.00  0.00     0.000 OA
ATOM     33   O  A00 X   2       8.086   8.941   6.3490  0.00  0.00     0.000 OA
ENDBRANCH 21 30
BRANCH 24 34
ATOM     34   C  A00 X   2      12.888   7.476   2.6670  0.00  0.00     0.000 C
ATOM     35   O  A00 X   2      11.599   9.579  -0.0100  0.00  0.00     0.000 OA
ATOM     36   O  A00 X   2      11.984   8.088   1.7260  0.00  0.00     0.000 O
ATOM     37   O  A00 X   2      12.182  10.382   2.1360  0.00  0.00     0.000 OA
ATOM     38   S  A00 X   2      12.483   9.441   1.1000  0.00  0.00     0.000 S
ATOM     39   O  A00 X   2      13.860   9.247   0.7600  0.00  0.00     0.000 OA
ENDBRANCH 24 34
BRANCH 20 40
ATOM     40  O4  A00 X   3      13.056   7.342   6.6810  0.00  0.00     0.000 O
BRANCH 40 44
ATOM     41  C1  A00 X   3      16.047   5.370   6.1450  0.00  0.00     0.000 C
ATOM     42  C2  A00 X   3      15.061   5.173   7.3170  0.00  0.00     0.000 C
ATOM     43  C3  A00 X   3      14.784   6.515   8.0410  0.00  0.00     0.000 C
ATOM     44  C4  A00 X   3      14.394   7.663   7.1190  0.00  0.00     0.000 C
ATOM     45  C5  A00 X   3      15.433   7.801   5.9710  0.00  0.00     0.000 C
ATOM     46  O5  A00 X   3      15.671   6.510   5.3230  0.00  0.00     0.000 O
ATOM     47   O  A00 X   3      13.952   6.439   9.1970  0.00  0.00     0.000 O
ATOM     49  HD  A00 X   3      13.638   7.182   8.8810  0.00  0.00     0.000 HD
BRANCH 42 49
ATOM     49   O  A00 X   3      13.851   4.612   6.7620  0.00  0.00     0.000 O
ATOM     50   O  A00 X   3      11.697   3.979   7.5910  0.00  0.00     0.000 OA
ATOM     51   O  A00 X   3      13.612   3.456   8.8750  0.00  0.00     0.000 OA
ATOM     52   O  A00 X   3      13.291   2.333   6.8200  0.00  0.00     0.000 OA
ATOM     53   S  A00 X   3      13.053   3.531   7.5480  0.00  0.00     0.000 S
ENDBRANCH 42 49
BRANCH 45 54
ATOM     54   C  A00 X   3      16.721   8.482   6.4510  0.00  0.00     0.000 C
ATOM     55   O  A00 X   3      17.462   9.030   5.6610  0.00  0.00     0.000 OA
ATOM     56   O  A00 X   3      17.023   8.485   7.6340  0.00  0.00     0.000 OA
ENDBRANCH 45 54
BRANCH 41 57
ATOM     57  O4  A00 X   4      17.418   5.401   6.6000  0.00  0.00     0.000 O
BRANCH 57 61
ATOM     58  C1  A00 X   4      21.192   4.614   4.6550  0.00  0.00     0.000 C
ATOM     59  C2  A00 X   4      20.369   5.847   4.2060  0.00  0.00     0.000 C
ATOM     60  C3  A00 X   4      19.246   6.229   5.1910  0.00  0.00     0.000 C
ATOM     61  C4  A00 X   4      18.408   5.002   5.6090  0.00  0.00     0.000 C
ATOM     62  C5  A00 X   4      19.401   3.984   6.2230  0.00  0.00     0.000 C
ATOM     63  O5  A00 X   4      20.352   3.574   5.2070  0.00  0.00     0.000 O
BRANCH 59 66
ATOM     64   N  A00 X   4      20.252   7.090   3.4220  0.00  0.00     0.000 N
ATOM     66  HD  A00 X   4      19.496   7.244   3.0280  0.00  0.00     0.000 HD
ATOM     66   O  A00 X   4      21.764   6.108   1.8260  0.00  0.00     0.000 OA
ATOM     67   S  A00 X   4      21.361   7.391   2.3090  0.00  0.00     0.000 S
ATOM     68   O  A00 X   4      20.597   8.184   1.3910  0.00  0.00     0.000 OA
ATOM     69   O  A00 X   4      22.305   8.140   3.0890  0.00  0.00     0.000 OA
ENDBRANCH 59 66
BRANCH 62 70
ATOM     70   C  A00 X   4      18.729   2.719   6.8070  0.00  0.00     0.000 C
ATOM     71   O  A00 X   4      16.927   0.106   5.0640  0.00  0.00     0.000 OA
ATOM     72   O  A00 X   4      16.356   1.347   6.9820  0.00  0.00     0.000 OA
ATOM     73   O  A00 X   4      18.350   1.843   5.7320  0.00  0.00     0.000 O
ATOM     74   O  A00 X   4      16.203   2.389   4.7850  0.00  0.00     0.000 OA
ATOM     75   S  A00 X   4      16.842   1.426   5.6230  0.00  0.00     0.000 S
ENDBRANCH 62 70
ENDBRANCH 57 61
ENDBRANCH 41 57
ENDBRANCH 40 44
ENDBRANCH 20 40
ENDBRANCH 19 23
ENDBRANCH 1 19
TORSDOF 14
ENDMDL
MODEL 2
REMARK VINA RESULT:      -4.6      2.836      9.114
ROOT
ATOM      1  C1  A00 X   1      14.657   8.347   5.2750  0.00  0.00     0.000 C
ATOM      2  C2  A00 X   1      15.028   9.484   6.2640  0.00  0.00     0.000 C
ATOM      3  C3  A00 X   1      14.097   9.641   7.5110  0.00  0.00     0.000 C
ATOM      4  C4  A00 X   1      12.735   8.906   7.4260  0.00  0.00     0.000 C
ATOM      5  C5  A00 X   1      12.318   8.629   5.9810  0.00  0.00     0.000 C
ATOM      6  O5  A00 X   1      13.347   7.756   5.4640  0.00  0.00     0.000 O
ATOM      7   O  A00 X   1      13.800  11.025   7.6890  0.00  0.00     0.000 O
ATOM      9  HD  A00 X   1      13.067  10.586   7.8330  0.00  0.00     0.000 HD
ATOM      9   O  A00 X   1      12.753   7.686   8.1650  0.00  0.00     0.000 O
ATOM     11  HD  A00 X   1      12.020   7.247   8.3090  0.00  0.00     0.000 HD
ENDROOT
BRANCH 2 11
ATOM     11   O  A00 X   1      16.378   9.254   6.7110  0.00  0.00     0.000 O
ATOM     12   O  A00 X   1      17.671  10.971   7.7820  0.00  0.00     0.000 OA
ATOM     13   O  A00 X   1      16.980  11.269   5.4690  0.00  0.00     0.000 OA
ATOM     14   O  A00 X   1      18.586   9.611   6.0420  0.00  0.00     0.000 OA
ATOM     15   S  A00 X   1      17.452  10.374   6.4890  0.00  0.00     0.000 S
ENDBRANCH 2 11
BRANCH 5 16
ATOM     16   C  A00 X   1      12.084   9.876   5.1230  0.00  0.00     0.000 C
ATOM     17   O  A00 X   1      11.752  10.906   5.6730  0.00  0.00     0.000 OA
ATOM     18   O  A00 X   1      12.226   9.873   3.9170  0.00  0.00     0.000 OA
ENDBRANCH 5 16
BRANCH 1 19
ATOM     19  O4  A00 X   2      14.877   8.712   3.8910  0.00  0.00     0.000 O
BRANCH 19 23
ATOM     20  C1  A00 X   2      15.628   4.746   2.4520  0.00  0.00     0.000 C
ATOM     21  C2  A00 X   2      16.789   5.478   3.1670  0.00  0.00     0.000 C
ATOM     22  C3  A00 X   2      16.261   6.672   3.9900  0.00  0.00     0.000 C
ATOM     23  C4  A00 X   2      15.416   7.612   3.1020  0.00  0.00     0.000 C
ATOM     24  C5  A00 X   2      14.304   6.759   2.4310  0.00  0.00     0.000 C
ATOM     25  O5  A00 X   2      14.930   5.721   1.6330  0.00  0.00     0.000 O
ATOM     26   O  A00 X   2      17.365   7.275   4.6870  0.00  0.00     0.000 O
ATOM     28  HD  A00 X   2      17.853   7.326   3.9740  0.00  0.00     0.000 HD
BRANCH 21 30
ATOM     28   N  A00 X   2      17.712   5.238   4.2810  0.00  0.00     0.000 N
ATOM     30  HD  A00 X   2      18.039   4.828   3.5920  0.00  0.00     0.000 HD
ATOM     30   O  A00 X   2      19.731   4.461   3.3980  0.00  0.00     0.000 OA
ATOM     31   S  A00 X   2      18.671   3.983   4.2140  0.00  0.00     0.000 S
ATOM     32   O  A00 X   2      19.020   3.750   5.5820  0.00  0.00     0.000 OA
ATOM     33   O  A00 X   2      17.902   2.888   3.7030  0.00  0.00     0.000 OA
ENDBRANCH 21 30
BRANCH 24 34
ATOM     34   C  A00 X   2      13.180   7.501   1.6710  0.00  0.00     0.000 C
ATOM     35   O  A00 X   2       9.765   6.273   1.3710  0.00  0.00     0.000 OA
ATOM     36   O  A00 X   2      12.058   6.631   1.4180  0.00  0.00     0.000 O
ATOM     37   O  A00 X   2      10.871   6.613   3.4340  0.00  0.00     0.000 OA
ATOM     38   S  A00 X   2      10.705   7.071   2.0880  0.00  0.00     0.000 S
ATOM     39   O  A00 X   2      10.588   8.482   1.8780  0.00  0.00     0.000 OA
ENDBRANCH 24 34
BRANCH 20 40
ATOM     40  O4  A00 X   3      14.757   4.286   3.4960  0.00  0.00     0.000 O
BRANCH 40 44
ATOM     41  C1  A00 X   3      11.747   3.319   5.2640  0.00  0.00     0.000 C
ATOM     42  C2  A00 X   3      13.184   3.034   5.7520  0.00  0.00     0.000 C
ATOM     43  C3  A00 X   3      14.026   2.365   4.6350  0.00  0.00     0.000 C
ATOM     44  C4  A00 X   3      13.983   3.084   3.2930  0.00  0.00     0.000 C
ATOM     45  C5  A00 X   3      12.508   3.330   2.8680  0.00  0.00     0.000 C
ATOM     46  O5  A00 X   3      11.748   3.952   3.9550  0.00  0.00     0.000 O
ATOM     47   O  A00 X   3      15.349   1.977   5.0010  0.00  0.00     0.000 O
ATOM     49  HD  A00 X   3      15.532   2.260   4.2040  0.00  0.00     0.000 HD
BRANCH 42 49
ATOM     49   O  A00 X   3      13.752   4.299   6.1570  0.00  0.00     0.000 O
ATOM     50   O  A00 X   3      15.843   5.054   7.0440  0.00  0.00     0.000 OA
ATOM     51   O  A00 X   3      14.912   3.043   7.8700  0.00  0.00     0.000 OA
ATOM     52   O  A00 X   3      13.821   5.079   8.3700  0.00  0.00     0.000 OA
ATOM     53   S  A00 X   3      14.638   4.390   7.4330  0.00  0.00     0.000 S
ENDBRANCH 42 49
BRANCH 45 54
ATOM     54   C  A00 X   3      11.853   2.054   2.3270  0.00  0.00     0.000 C
ATOM     55   O  A00 X   3      10.873   2.116   1.6130  0.00  0.00     0.000 OA
ATOM     56   O  A00 X   3      12.303   0.953   2.6060  0.00  0.00     0.000 OA
ENDBRANCH 45 54
BRANCH 41 57
ATOM     57  O4  A00 X   4      10.912   2.142   5.3460  0.00  0.00     0.000 O
BRANCH 57 61
ATOM     58  C1  A00 X   4       6.711   1.577   6.1660  0.00  0.00     0.000 C
ATOM     59  C2  A00 X   4       7.118   2.432   4.9390  0.00  0.00     0.000 C
ATOM     60  C3  A00 X   4       8.599   2.268   4.5410  0.00  0.00     0.000 C
ATOM     61  C4  A00 X   4       9.538   2.387   5.7610  0.00  0.00     0.000 C
ATOM     62  C5  A00 X   4       9.081   1.303   6.7690  0.00  0.00     0.000 C
ATOM     63  O5  A00 X   4       7.725   1.590   7.1960  0.00  0.00     0.000 O
BRANCH 59 66
ATOM     64   N  A00 X   4       6.642   2.897   3.6240  0.00  0.00     0.000 N
ATOM     66  HD  A00 X   4       7.026   3.594   3.2840  0.00  0.00     0.000 HD
ATOM     66   O  A00 X   4       4.613   3.595   4.7180  0.00  0.00     0.000 OA
ATOM     67   S  A00 X   4       5.076   3.162   3.4360  0.00  0.00     0.000 S
ATOM     68   O  A00 X   4       5.105   4.170   2.4180  0.00  0.00     0.000 OA
ATOM     69   O  A00 X   4       4.655   1.870   2.9730  0.00  0.00     0.000 OA
ENDBRANCH 59 66
BRANCH 62 70
ATOM     70   C  A00 X   4       9.978   1.190   8.0250  0.00  0.00     0.000 C
ATOM     71   O  A00 X   4      10.208   3.442  10.8500  0.00  0.00     0.000 OA
ATOM     72   O  A00 X   4      11.891   2.487   9.5090  0.00  0.00     0.000 OA
ATOM     73   O  A00 X   4       9.563   2.166   8.9940  0.00  0.00     0.000 O
ATOM     74   O  A00 X   4      10.558   4.331   8.6370  0.00  0.00     0.000 OA
ATOM     75   S  A00 X   4      10.631   3.197   9.5000  0.00  0.00     0.000 S
ENDBRANCH 62 70
ENDBRANCH 57 61
ENDBRANCH 41 57
ENDBRANCH 40 44
ENDBRANCH 20 40
ENDBRANCH 19 23
ENDBRANCH 1 19
TORSDOF 14
ENDMDL
MODEL 3
REMARK VINA RESULT:      -3.5      2.902      8.248
ROOT
ATOM      1  C1  A00 X   1      13.698   3.667   3.5740  0.00  0.00     0.000 C
ATOM      2  C2  A00 X   1      13.235   2.714   2.4400  0.00  0.00     0.000 C
ATOM      3  C3  A00 X   1      12.112   1.692   2.8160  0.00  0.00     0.000 C
ATOM      4  C4  A00 X   1      11.862   1.502   4.3340  0.00  0.00     0.000 C
ATOM      5  C5  A00 X   1      13.075   1.906   5.1740  0.00  0.00     0.000 C
ATOM      6  O5  A00 X   1      13.252   3.315   4.9070  0.00  0.00     0.000 O
ATOM      7   O  A00 X   1      12.468   0.411   2.3010  0.00  0.00     0.000 O
ATOM      9  HD  A00 X   1      12.142   0.286   3.0940  0.00  0.00     0.000 HD
ATOM      9   O  A00 X   1      10.712   2.227   4.7690  0.00  0.00     0.000 O
ATOM     11  HD  A00 X   1      10.386   2.102   5.5610  0.00  0.00     0.000 HD
ENDROOT
BRANCH 2 11
ATOM     11   O  A00 X   1      12.779   3.528   1.3420  0.00  0.00     0.000 O
ATOM     12   O  A00 X   1      12.109   5.814   1.6480  0.00  0.00     0.000 OA
ATOM     13   O  A00 X   1      10.831   4.044   2.7220  0.00  0.00     0.000 OA
ATOM     14   O  A00 X   1      10.802   4.285   0.3560  0.00  0.00     0.000 OA
ATOM     15   S  A00 X   1      11.557   4.485   1.5630  0.00  0.00     0.000 S
ENDBRANCH 2 11
BRANCH 5 16
ATOM     16   C  A00 X   1      14.337   1.072   4.9310  0.00  0.00     0.000 C
ATOM     17   O  A00 X   1      14.225  -0.009   4.3910  0.00  0.00     0.000 OA
ATOM     18   O  A00 X   1      15.444   1.457   5.2520  0.00  0.00     0.000 OA
ENDBRANCH 5 16
BRANCH 1 19
ATOM     19  O4  A00 X   2      15.123   3.924   3.5440  0.00  0.00     0.000 O
BRANCH 19 23
ATOM     20  C1  A00 X   2      14.715   7.960   4.9250  0.00  0.00     0.000 C
ATOM     21  C2  A00 X   2      14.944   7.743   3.4090  0.00  0.00     0.000 C
ATOM     22  C3  A00 X   2      14.640   6.284   3.0110  0.00  0.00     0.000 C
ATOM     23  C4  A00 X   2      15.449   5.301   3.8870  0.00  0.00     0.000 C
ATOM     24  C5  A00 X   2      15.149   5.633   5.3740  0.00  0.00     0.000 C
ATOM     25  O5  A00 X   2      15.546   7.004   5.6370  0.00  0.00     0.000 O
ATOM     26   O  A00 X   2      14.799   6.151   1.5890  0.00  0.00     0.000 O
ATOM     28  HD  A00 X   2      15.581   6.524   1.5910  0.00  0.00     0.000 HD
BRANCH 21 30
ATOM     28   N  A00 X   2      14.476   7.991   2.0420  0.00  0.00     0.000 N
ATOM     30  HD  A00 X   2      14.808   8.736   2.3320  0.00  0.00     0.000 HD
ATOM     30   O  A00 X   2      15.443   9.982   1.2920  0.00  0.00     0.000 OA
ATOM     31   S  A00 X   2      14.154   9.477   1.6080  0.00  0.00     0.000 S
ATOM     32   O  A00 X   2      13.275   9.320   0.4900  0.00  0.00     0.000 OA
ATOM     33   O  A00 X   2      13.463  10.096   2.7000  0.00  0.00     0.000 OA
ENDBRANCH 21 30
BRANCH 24 34
ATOM     34   C  A00 X   2      15.656   4.648   6.4540  0.00  0.00     0.000 C
ATOM     35   O  A00 X   2      19.153   3.743   6.9100  0.00  0.00     0.000 OA
ATOM     36   O  A00 X   2      17.002   4.215   6.1760  0.00  0.00     0.000 O
ATOM     37   O  A00 X   2      18.348   5.967   6.9450  0.00  0.00     0.000 OA
ATOM     38   S  A00 X   2      18.070   4.600   7.2650  0.00  0.00     0.000 S
ATOM     39   O  A00 X   2      17.469   4.325   8.5350  0.00  0.00     0.000 OA
ENDBRANCH 24 34
BRANCH 20 40
ATOM     40  O4  A00 X   3      13.331   7.659   5.1560  0.00  0.00     0.000 O
BRANCH 40 44
ATOM     41  C1  A00 X   3      10.269   6.156   6.3730  0.00  0.00     0.000 C
ATOM     42  C2  A00 X   3      10.360   7.536   5.6880  0.00  0.00     0.000 C
ATOM     43  C3  A00 X   3      11.454   8.413   6.3490  0.00  0.00     0.000 C
ATOM     44  C4  A00 X   3      12.807   7.731   6.4990  0.00  0.00     0.000 C
ATOM     45  C5  A00 X   3      12.635   6.354   7.2000  0.00  0.00     0.000 C
ATOM     46  O5  A00 X   3      11.586   5.565   6.5500  0.00  0.00     0.000 O
ATOM     47   O  A00 X   3      11.568   9.746   5.8530  0.00  0.00     0.000 O
ATOM     49  HD  A00 X   3      12.414   9.590   5.9530  0.00  0.00     0.000 HD
BRANCH 42 49
ATOM     49   O  A00 X   3      10.646   7.298   4.2920  0.00  0.00     0.000 O
ATOM     50   O  A00 X   3      10.623   8.586   2.2740  0.00  0.00     0.000 OA
ATOM     51   O  A00 X   3       8.862   8.866   3.8270  0.00  0.00     0.000 OA
ATOM     52   O  A00 X   3       9.024   6.814   2.6640  0.00  0.00     0.000 OA
ATOM     53   S  A00 X   3       9.745   7.923   3.1870  0.00  0.00     0.000 S
ENDBRANCH 42 49
BRANCH 45 54
ATOM     54   C  A00 X   3      12.424   6.508   8.7110  0.00  0.00     0.000 C
ATOM     55   O  A00 X   3      12.378   5.533   9.4320  0.00  0.00     0.000 OA
ATOM     56   O  A00 X   3      12.298   7.614   9.2150  0.00  0.00     0.000 OA
ENDBRANCH 45 54
BRANCH 41 57
ATOM     57  O4  A00 X   4       9.483   6.212   7.5850  0.00  0.00     0.000 O
BRANCH 57 61
ATOM     58  C1  A00 X   4       7.196   3.162   9.6110  0.00  0.00     0.000 C
ATOM     59  C2  A00 X   4       8.528   3.633  10.2450  0.00  0.00     0.000 C
ATOM     60  C3  A00 X   4       9.064   4.948   9.6440  0.00  0.00     0.000 C
ATOM     61  C4  A00 X   4       9.049   4.921   8.1000  0.00  0.00     0.000 C
ATOM     62  C5  A00 X   4       7.583   4.644   7.6840  0.00  0.00     0.000 C
ATOM     63  O5  A00 X   4       7.186   3.338   8.1760  0.00  0.00     0.000 O
BRANCH 59 66
ATOM     64   N  A00 X   4       9.538   2.597   9.9640  0.00  0.00     0.000 N
ATOM     66  HD  A00 X   4       9.419   2.102   9.2630  0.00  0.00     0.000 HD
ATOM     66   O  A00 X   4       8.713   1.412  11.8910  0.00  0.00     0.000 OA
ATOM     67   S  A00 X   4       9.913   1.568  11.1300  0.00  0.00     0.000 S
ATOM     68   O  A00 X   4      10.305   0.428  10.3540  0.00  0.00     0.000 OA
ATOM     69   O  A00 X   4      11.007   2.268  11.7420  0.00  0.00     0.000 OA
ENDBRANCH 59 66
BRANCH 62 70
ATOM     70   C  A00 X   4       7.341   4.687   6.1560  0.00  0.00     0.000 C
ATOM     71   O  A00 X   4       5.937   2.129   4.0140  0.00  0.00     0.000 OA
ATOM     72   O  A00 X   4       7.894   3.417   3.7850  0.00  0.00     0.000 OA
ATOM     73   O  A00 X   4       6.542   3.558   5.7690  0.00  0.00     0.000 O
ATOM     74   O  A00 X   4       7.847   1.571   5.3750  0.00  0.00     0.000 OA
ATOM     75   S  A00 X   4       7.122   2.587   4.6830  0.00  0.00     0.000 S
ENDBRANCH 62 70
ENDBRANCH 57 61
ENDBRANCH 41 57
ENDBRANCH 40 44
ENDBRANCH 20 40
ENDBRANCH 19 23
ENDBRANCH 1 19
TORSDOF 14
ENDMDL
MODEL 4
REMARK VINA RESULT:      -3.5      1.873      2.573
ROOT
ATOM      1  C1  A00 X   1      10.971   4.427   4.0250  0.00  0.00     0.000 C
ATOM      2  C2  A00 X   1      10.531   2.939   4.0510  0.00  0.00     0.000 C
ATOM      3  C3  A00 X   1      11.630   1.890   3.6800  0.00  0.00     0.000 C
ATOM      4  C4  A00 X   1      12.894   2.462   2.9870  0.00  0.00     0.000 C
ATOM      5  C5  A00 X   1      12.623   3.806   2.3120  0.00  0.00     0.000 C
ATOM      6  O5  A00 X   1      12.248   4.691   3.3920  0.00  0.00     0.000 O
ATOM      7   O  A00 X   1      11.070   0.939   2.7780  0.00  0.00     0.000 O
ATOM      9  HD  A00 X   1      11.868   1.120   2.4940  0.00  0.00     0.000 HD
ATOM      9   O  A00 X   1      13.978   2.594   3.9060  0.00  0.00     0.000 O
ATOM     11  HD  A00 X   1      14.776   2.776   3.6220  0.00  0.00     0.000 HD
ENDROOT
BRANCH 2 11
ATOM     11   O  A00 X   1      10.034   2.651   5.3720  0.00  0.00     0.000 O
ATOM     12   O  A00 X   1       9.385   0.435   6.0300  0.00  0.00     0.000 OA
ATOM     13   O  A00 X   1       8.145   1.564   4.2690  0.00  0.00     0.000 OA
ATOM     14   O  A00 X   1       8.022   2.338   6.5150  0.00  0.00     0.000 OA
ATOM     15   S  A00 X   1       8.826   1.665   5.5300  0.00  0.00     0.000 S
ENDBRANCH 2 11
BRANCH 5 16
ATOM     16   C  A00 X   1      11.601   3.764   1.1710  0.00  0.00     0.000 C
ATOM     17   O  A00 X   1      11.251   4.810   0.6650  0.00  0.00     0.000 OA
ATOM     18   O  A00 X   1      11.135   2.723   0.7520  0.00  0.00     0.000 OA
ENDBRANCH 5 16
BRANCH 1 19
ATOM     19  O4  A00 X   2       9.939   5.309   3.5220  0.00  0.00     0.000 O
BRANCH 19 23
ATOM     20  C1  A00 X   2      10.816   8.594   6.1310  0.00  0.00     0.000 C
ATOM     21  C2  A00 X   2       9.953   7.441   6.6990  0.00  0.00     0.000 C
ATOM     22  C3  A00 X   2      10.086   6.175   5.8280  0.00  0.00     0.000 C
ATOM     23  C4  A00 X   2       9.764   6.494   4.3500  0.00  0.00     0.000 C
ATOM     24  C5  A00 X   2      10.677   7.671   3.9100  0.00  0.00     0.000 C
ATOM     25  O5  A00 X   2      10.404   8.817   4.7570  0.00  0.00     0.000 O
ATOM     26   O  A00 X   2       9.323   5.117   6.4320  0.00  0.00     0.000 O
ATOM     28  HD  A00 X   2       8.612   5.606   6.5110  0.00  0.00     0.000 HD
BRANCH 21 30
ATOM     28   N  A00 X   2       9.215   8.433   7.4870  0.00  0.00     0.000 N
ATOM     30  HD  A00 X   2       9.031   7.657   7.8250  0.00  0.00     0.000 HD
ATOM     30   O  A00 X   2       8.526   7.416   9.4740  0.00  0.00     0.000 OA
ATOM     31   S  A00 X   2       7.944   7.962   8.3000  0.00  0.00     0.000 S
ATOM     32   O  A00 X   2       7.204   9.170   8.5000  0.00  0.00     0.000 OA
ATOM     33   O  A00 X   2       7.212   7.063   7.4590  0.00  0.00     0.000 OA
ENDBRANCH 21 30
BRANCH 24 34
ATOM     34   C  A00 X   2      10.717   8.035   2.4070  0.00  0.00     0.000 C
ATOM     35   O  A00 X   2      13.666   9.306   0.6920  0.00  0.00     0.000 OA
ATOM     36   O  A00 X   2      11.877   8.830   2.0920  0.00  0.00     0.000 O
ATOM     37   O  A00 X   2      13.614   7.275   1.9020  0.00  0.00     0.000 OA
ATOM     38   S  A00 X   2      12.880   8.179   1.0700  0.00  0.00     0.000 S
ATOM     39   O  A00 X   2      12.082   7.616   0.0230  0.00  0.00     0.000 OA
ENDBRANCH 24 34
BRANCH 20 40
ATOM     40  O4  A00 X   3      12.168   8.113   6.1540  0.00  0.00     0.000 O
BRANCH 40 44
ATOM     41  C1  A00 X   3      15.600   7.681   5.0760  0.00  0.00     0.000 C
ATOM     42  C2  A00 X   3      15.031   7.182   6.4220  0.00  0.00     0.000 C
ATOM     43  C3  A00 X   3      14.280   8.319   7.1630  0.00  0.00     0.000 C
ATOM     44  C4  A00 X   3      13.250   9.055   6.3150  0.00  0.00     0.000 C
ATOM     45  C5  A00 X   3      13.898   9.529   4.9830  0.00  0.00     0.000 C
ATOM     46  O5  A00 X   3      14.604   8.428   4.3240  0.00  0.00     0.000 O
ATOM     47   O  A00 X   3      13.785   7.996   8.4610  0.00  0.00     0.000 O
ATOM     49  HD  A00 X   3      13.112   8.474   8.2000  0.00  0.00     0.000 HD
BRANCH 42 49
ATOM     49   O  A00 X   3      14.152   6.075   6.1260  0.00  0.00     0.000 O
ATOM     50   O  A00 X   3      12.753   4.590   7.3780  0.00  0.00     0.000 OA
ATOM     51   O  A00 X   3      14.888   5.139   8.2320  0.00  0.00     0.000 OA
ATOM     52   O  A00 X   3      14.763   3.813   6.2800  0.00  0.00     0.000 OA
ATOM     53   S  A00 X   3      14.125   4.823   7.0510  0.00  0.00     0.000 S
ENDBRANCH 42 49
BRANCH 45 54
ATOM     54   C  A00 X   3      14.775  10.770   5.1890  0.00  0.00     0.000 C
ATOM     55   O  A00 X   3      14.926  11.245   6.2960  0.00  0.00     0.000 OA
ATOM     56   O  A00 X   3      15.335  11.304   4.2440  0.00  0.00     0.000 OA
ENDBRANCH 45 54
BRANCH 41 57
ATOM     57  O4  A00 X   4      16.850   8.384   5.2530  0.00  0.00     0.000 O
BRANCH 57 61
ATOM     58  C1  A00 X   4      20.192   8.644   2.5320  0.00  0.00     0.000 C
ATOM     59  C2  A00 X   4      19.499   9.954   2.9820  0.00  0.00     0.000 C
ATOM     60  C3  A00 X   4      18.578   9.773   4.2050  0.00  0.00     0.000 C
ATOM     61  C4  A00 X   4      17.637   8.560   4.0400  0.00  0.00     0.000 C
ATOM     62  C5  A00 X   4      18.549   7.329   3.8100  0.00  0.00     0.000 C
ATOM     63  O5  A00 X   4      19.293   7.512   2.5780  0.00  0.00     0.000 O
BRANCH 59 66
ATOM     64   N  A00 X   4      20.881   9.686   2.5450  0.00  0.00     0.000 N
ATOM     66  HD  A00 X   4      21.521   9.912   3.0820  0.00  0.00     0.000 HD
ATOM     66   O  A00 X   4      20.596  11.432   0.9100  0.00  0.00     0.000 OA
ATOM     67   S  A00 X   4      21.340  10.228   1.1120  0.00  0.00     0.000 S
ATOM     68   O  A00 X   4      22.745  10.403   1.3400  0.00  0.00     0.000 OA
ATOM     69   O  A00 X   4      21.013   9.094   0.2950  0.00  0.00     0.000 OA
ENDBRANCH 59 66
BRANCH 62 70
ATOM     70   C  A00 X   4      17.788   5.985   3.7300  0.00  0.00     0.000 C
ATOM     71   O  A00 X   4      18.292   2.981   5.6880  0.00  0.00     0.000 OA
ATOM     72   O  A00 X   4      18.095   3.281   3.3600  0.00  0.00     0.000 OA
ATOM     73   O  A00 X   4      18.152   5.166   4.8530  0.00  0.00     0.000 O
ATOM     74   O  A00 X   4      20.167   3.899   4.4820  0.00  0.00     0.000 OA
ATOM     75   S  A00 X   4      18.750   3.746   4.5620  0.00  0.00     0.000 S
ENDBRANCH 62 70
ENDBRANCH 57 61
ENDBRANCH 41 57
ENDBRANCH 40 44
ENDBRANCH 20 40
ENDBRANCH 19 23
ENDBRANCH 1 19
TORSDOF 14
ENDMDL
MODEL 5
REMARK VINA RESULT:      -2.7      3.609      7.058
ROOT
ATOM      1  C1  A00 X   1      14.114   4.061   3.8890  0.00  0.00     0.000 C
ATOM      2  C2  A00 X   1      13.052   3.008   3.4730  0.00  0.00     0.000 C
ATOM      3  C3  A00 X   1      12.372   2.220   4.6410  0.00  0.00     0.000 C
ATOM      4  C4  A00 X   1      13.085   2.312   6.0140  0.00  0.00     0.000 C
ATOM      5  C5  A00 X   1      14.563   2.679   5.8740  0.00  0.00     0.000 C
ATOM      6  O5  A00 X   1      14.558   3.991   5.2670  0.00  0.00     0.000 O
ATOM      7   O  A00 X   1      12.333   0.837   4.2960  0.00  0.00     0.000 O
ATOM      9  HD  A00 X   1      12.549   0.885   5.1340  0.00  0.00     0.000 HD
ATOM      9   O  A00 X   1      12.436   3.244   6.8780  0.00  0.00     0.000 O
ATOM     11  HD  A00 X   1      12.652   3.293   7.7150  0.00  0.00     0.000 HD
ENDROOT
BRANCH 2 11
ATOM     11   O  A00 X   1      12.035   3.689   2.7120  0.00  0.00     0.000 O
ATOM     12   O  A00 X   1      10.863   2.615   0.9120  0.00  0.00     0.000 OA
ATOM     13   O  A00 X   1      13.259   2.985   0.7190  0.00  0.00     0.000 OA
ATOM     14   O  A00 X   1      11.750   4.823   0.6910  0.00  0.00     0.000 OA
ATOM     15   S  A00 X   1      11.986   3.484   1.1590  0.00  0.00     0.000 S
ENDBRANCH 2 11
BRANCH 5 16
ATOM     16   C  A00 X   1      15.416   1.656   5.1160  0.00  0.00     0.000 C
ATOM     17   O  A00 X   1      16.569   1.936   4.8630  0.00  0.00     0.000 OA
ATOM     18   O  A00 X   1      14.982   0.576   4.7690  0.00  0.00     0.000 OA
ENDBRANCH 5 16
BRANCH 1 19
ATOM     19  O4  A00 X   2      15.236   4.117   2.9740  0.00  0.00     0.000 O
BRANCH 19 23
ATOM     20  C1  A00 X   2      16.454   8.088   4.0290  0.00  0.00     0.000 C
ATOM     21  C2  A00 X   2      15.331   7.941   2.9740  0.00  0.00     0.000 C
ATOM     22  C3  A00 X   2      14.715   6.528   3.0200  0.00  0.00     0.000 C
ATOM     23  C4  A00 X   2      15.814   5.451   2.8800  0.00  0.00     0.000 C
ATOM     24  C5  A00 X   2      16.882   5.717   3.9750  0.00  0.00     0.000 C
ATOM     25  O5  A00 X   2      17.433   7.045   3.7770  0.00  0.00     0.000 O
ATOM     26   O  A00 X   2      13.634   6.464   2.0730  0.00  0.00     0.000 O
ATOM     28  HD  A00 X   2      14.114   6.788   1.4290  0.00  0.00     0.000 HD
BRANCH 21 30
ATOM     28   N  A00 X   2      14.998   9.343   3.2450  0.00  0.00     0.000 N
ATOM     30  HD  A00 X   2      14.988   9.245   2.3850  0.00  0.00     0.000 HD
ATOM     30   O  A00 X   2      14.068  10.258   1.3070  0.00  0.00     0.000 OA
ATOM     31   S  A00 X   2      15.232  10.413   2.1050  0.00  0.00     0.000 S
ATOM     32   O  A00 X   2      15.318  11.652   2.8150  0.00  0.00     0.000 OA
ATOM     33   O  A00 X   2      16.488  10.106   1.4880  0.00  0.00     0.000 OA
ENDBRANCH 21 30
BRANCH 24 34
ATOM     34   C  A00 X   2      17.974   4.645   4.2000  0.00  0.00     0.000 C
ATOM     35   O  A00 X   2      21.551   5.312   4.0470  0.00  0.00     0.000 OA
ATOM     36   O  A00 X   2      19.260   5.103   3.7360  0.00  0.00     0.000 O
ATOM     37   O  A00 X   2      20.050   6.468   5.4630  0.00  0.00     0.000 OA
ATOM     38   S  A00 X   2      20.371   5.219   4.8430  0.00  0.00     0.000 S
ATOM     39   O  A00 X   2      20.270   4.036   5.6430  0.00  0.00     0.000 OA
ENDBRANCH 24 34
BRANCH 20 40
ATOM     40  O4  A00 X   3      15.826   7.860   5.2980  0.00  0.00     0.000 O
BRANCH 40 44
ATOM     41  C1  A00 X   3      15.428   6.708   8.7100  0.00  0.00     0.000 C
ATOM     42  C2  A00 X   3      14.443   7.644   7.9770  0.00  0.00     0.000 C
ATOM     43  C3  A00 X   3      15.189   8.842   7.3350  0.00  0.00     0.000 C
ATOM     44  C4  A00 X   3      16.393   8.457   6.4840  0.00  0.00     0.000 C
ATOM     45  C5  A00 X   3      17.337   7.521   7.2910  0.00  0.00     0.000 C
ATOM     46  O5  A00 X   3      16.590   6.411   7.8860  0.00  0.00     0.000 O
ATOM     47   O  A00 X   3      14.368   9.821   6.7030  0.00  0.00     0.000 O
ATOM     49  HD  A00 X   3      15.011   9.825   6.1240  0.00  0.00     0.000 HD
BRANCH 42 49
ATOM     49   O  A00 X   3      13.766   6.848   6.9790  0.00  0.00     0.000 O
ATOM     50   O  A00 X   3      12.111   7.227   5.2920  0.00  0.00     0.000 OA
ATOM     51   O  A00 X   3      11.838   8.247   7.4070  0.00  0.00     0.000 OA
ATOM     52   O  A00 X   3      11.637   5.897   7.2550  0.00  0.00     0.000 OA
ATOM     53   S  A00 X   3      12.249   7.057   6.7040  0.00  0.00     0.000 S
ENDBRANCH 42 49
BRANCH 45 54
ATOM     54   C  A00 X   3      18.173   8.302   8.3110  0.00  0.00     0.000 C
ATOM     55   O  A00 X   3      17.901   9.453   8.5840  0.00  0.00     0.000 OA
ATOM     56   O  A00 X   3      19.129   7.781   8.8670  0.00  0.00     0.000 OA
ENDBRANCH 45 54
BRANCH 41 57
ATOM     57  O4  A00 X   4      15.754   7.202  10.0280  0.00  0.00     0.000 O
BRANCH 57 61
ATOM     58  C1  A00 X   4      17.024   5.094  13.5750  0.00  0.00     0.000 C
ATOM     59  C2  A00 X   4      17.565   4.626  12.2010  0.00  0.00     0.000 C
ATOM     60  C3  A00 X   4      17.341   5.651  11.0710  0.00  0.00     0.000 C
ATOM     61  C4  A00 X   4      15.891   6.180  11.0560  0.00  0.00     0.000 C
ATOM     62  C5  A00 X   4      15.635   6.791  12.4560  0.00  0.00     0.000 C
ATOM     63  O5  A00 X   4      15.739   5.747  13.4580  0.00  0.00     0.000 O
BRANCH 59 66
ATOM     64   N  A00 X   4      18.481   3.787  11.4070  0.00  0.00     0.000 N
ATOM     66  HD  A00 X   4      18.169   3.429  10.6830  0.00  0.00     0.000 HD
ATOM     66   O  A00 X   4      18.368   2.161  13.1790  0.00  0.00     0.000 OA
ATOM     67   S  A00 X   4      19.255   2.600  12.1480  0.00  0.00     0.000 S
ATOM     68   O  A00 X   4      19.434   1.687  11.0570  0.00  0.00     0.000 OA
ATOM     69   O  A00 X   4      20.453   3.286  12.5430  0.00  0.00     0.000 OA
ENDBRANCH 59 66
BRANCH 62 70
ATOM     70   C  A00 X   4      14.257   7.478  12.6040  0.00  0.00     0.000 C
ATOM     71   O  A00 X   4      13.527  10.961  13.2690  0.00  0.00     0.000 OA
ATOM     72   O  A00 X   4      12.706   9.001  14.2830  0.00  0.00     0.000 OA
ATOM     73   O  A00 X   4      14.436   8.904  12.6150  0.00  0.00     0.000 O
ATOM     74   O  A00 X   4      14.960   9.772  14.8000  0.00  0.00     0.000 OA
ATOM     75   S  A00 X   4      13.895   9.702  13.8510  0.00  0.00     0.000 S
ENDBRANCH 62 70
ENDBRANCH 57 61
ENDBRANCH 41 57
ENDBRANCH 40 44
ENDBRANCH 20 40
ENDBRANCH 19 23
ENDBRANCH 1 19
TORSDOF 14
ENDMDL
MODEL 6
REMARK VINA RESULT:      -2.7      3.731      9.756
ROOT
ATOM      1  C1  A00 X   1      18.447   7.448  11.1330  0.00  0.00     0.000 C
ATOM      2  C2  A00 X   1      19.456   8.571  10.7720  0.00  0.00     0.000 C
ATOM      3  C3  A00 X   1      19.417   9.847  11.6760  0.00  0.00     0.000 C
ATOM      4  C4  A00 X   1      18.158   9.996  12.5680  0.00  0.00     0.000 C
ATOM      5  C5  A00 X   1      16.970   9.199  12.0280  0.00  0.00     0.000 C
ATOM      6  O5  A00 X   1      17.404   7.821  12.0680  0.00  0.00     0.000 O
ATOM      7   O  A00 X   1      19.459  11.001  10.8400  0.00  0.00     0.000 O
ATOM      9  HD  A00 X   1      18.882  11.160  11.4660  0.00  0.00     0.000 HD
ATOM      9   O  A00 X   1      18.425   9.609  13.9160  0.00  0.00     0.000 O
ATOM     11  HD  A00 X   1      17.848   9.768  14.5420  0.00  0.00     0.000 HD
ENDROOT
BRANCH 2 11
ATOM     11   O  A00 X   1      20.779   8.002  10.8200  0.00  0.00     0.000 O
ATOM     12   O  A00 X   1      22.752   9.372  10.7760  0.00  0.00     0.000 OA
ATOM     13   O  A00 X   1      21.273   9.352   8.8450  0.00  0.00     0.000 OA
ATOM     14   O  A00 X   1      22.545   7.423   9.4070  0.00  0.00     0.000 OA
ATOM     15   S  A00 X   1      21.897   8.607   9.9030  0.00  0.00     0.000 S
ENDBRANCH 2 11
BRANCH 5 16
ATOM     16   C  A00 X   1      16.464   9.643  10.6520  0.00  0.00     0.000 C
ATOM     17   O  A00 X   1      16.794  10.735  10.2360  0.00  0.00     0.000 OA
ATOM     18   O  A00 X   1      15.753   8.941   9.9610  0.00  0.00     0.000 OA
ENDBRANCH 5 16
BRANCH 1 19
ATOM     19  O4  A00 X   2      17.898   6.789   9.9650  0.00  0.00     0.000 O
BRANCH 19 23
ATOM     20  C1  A00 X   2      18.594   2.885   8.3410  0.00  0.00     0.000 C
ATOM     21  C2  A00 X   2      18.143   2.974   9.8190  0.00  0.00     0.000 C
ATOM     22  C3  A00 X   2      17.527   4.356  10.1230  0.00  0.00     0.000 C
ATOM     23  C4  A00 X   2      18.502   5.486   9.7240  0.00  0.00     0.000 C
ATOM     24  C5  A00 X   2      18.890   5.274   8.2350  0.00  0.00     0.000 C
ATOM     25  O5  A00 X   2      19.523   3.975   8.0970  0.00  0.00     0.000 O
ATOM     26   O  A00 X   2      17.063   4.364  11.4840  0.00  0.00     0.000 O
ATOM     28  HD  A00 X   2      17.814   4.064  11.7950  0.00  0.00     0.000 HD
BRANCH 21 30
ATOM     28   N  A00 X   2      18.998   1.822  10.1230  0.00  0.00     0.000 N
ATOM     30  HD  A00 X   2      18.447   1.908  10.7860  0.00  0.00     0.000 HD
ATOM     30   O  A00 X   2      17.983   0.595  11.8320  0.00  0.00     0.000 OA
ATOM     31   S  A00 X   2      19.155   1.371  11.6300  0.00  0.00     0.000 S
ATOM     32   O  A00 X   2      20.378   0.631  11.6360  0.00  0.00     0.000 OA
ATOM     33   O  A00 X   2      19.289   2.561  12.4160  0.00  0.00     0.000 OA
ENDBRANCH 21 30
BRANCH 24 34
ATOM     34   C  A00 X   2      19.677   6.400   7.5230  0.00  0.00     0.000 C
ATOM     35   O  A00 X   2      19.026   7.505   4.1150  0.00  0.00     0.000 OA
ATOM     36   O  A00 X   2      19.449   6.377   6.1000  0.00  0.00     0.000 O
ATOM     37   O  A00 X   2      17.391   7.453   5.8230  0.00  0.00     0.000 OA
ATOM     38   S  A00 X   2      18.770   7.667   5.5090  0.00  0.00     0.000 S
ATOM     39   O  A00 X   2      19.424   8.785   6.1200  0.00  0.00     0.000 OA
ENDBRANCH 24 34
BRANCH 20 40
ATOM     40  O4  A00 X   3      17.406   3.084   7.5600  0.00  0.00     0.000 O
BRANCH 40 44
ATOM     41  C1  A00 X   3      14.620   3.135   5.2460  0.00  0.00     0.000 C
ATOM     42  C2  A00 X   3      15.113   1.883   6.0020  0.00  0.00     0.000 C
ATOM     43  C3  A00 X   3      16.641   1.694   5.8270  0.00  0.00     0.000 C
ATOM     44  C4  A00 X   3      17.471   2.936   6.1260  0.00  0.00     0.000 C
ATOM     45  C5  A00 X   3      16.919   4.150   5.3260  0.00  0.00     0.000 C
ATOM     46  O5  A00 X   3      15.472   4.283   5.5120  0.00  0.00     0.000 O
ATOM     47   O  A00 X   3      17.195   0.517   6.4130  0.00  0.00     0.000 O
ATOM     49  HD  A00 X   3      17.843   1.056   6.6100  0.00  0.00     0.000 HD
BRANCH 42 49
ATOM     49   O  A00 X   3      14.758   2.060   7.3910  0.00  0.00     0.000 O
ATOM     50   O  A00 X   3      13.832   0.701   9.1310  0.00  0.00     0.000 OA
ATOM     51   O  A00 X   3      12.931   0.535   6.9510  0.00  0.00     0.000 OA
ATOM     52   O  A00 X   3      12.591   2.536   8.1620  0.00  0.00     0.000 OA
ATOM     53   S  A00 X   3      13.455   1.425   7.9570  0.00  0.00     0.000 S
ENDBRANCH 42 49
BRANCH 45 54
ATOM     54   C  A00 X   3      17.335   4.095   3.8510  0.00  0.00     0.000 C
ATOM     55   O  A00 X   3      17.955   3.145   3.4180  0.00  0.00     0.000 OA
ATOM     56   O  A00 X   3      17.052   5.004   3.0870  0.00  0.00     0.000 OA
ENDBRANCH 45 54
BRANCH 41 57
ATOM     57  O4  A00 X   4      14.420   2.866   3.8400  0.00  0.00     0.000 O
BRANCH 57 61
ATOM     58  C1  A00 X   4      11.589   4.333   0.9300  0.00  0.00     0.000 C
ATOM     59  C2  A00 X   4      12.850   5.181   1.2300  0.00  0.00     0.000 C
ATOM     60  C3  A00 X   4      13.944   4.407   1.9930  0.00  0.00     0.000 C
ATOM     61  C4  A00 X   4      13.366   3.644   3.2050  0.00  0.00     0.000 C
ATOM     62  C5  A00 X   4      12.268   2.705   2.6460  0.00  0.00     0.000 C
ATOM     63  O5  A00 X   4      11.213   3.504   2.0540  0.00  0.00     0.000 O
BRANCH 59 66
ATOM     64   N  A00 X   4      12.584   6.356   2.0790  0.00  0.00     0.000 N
ATOM     66  HD  A00 X   4      11.937   6.297   2.6510  0.00  0.00     0.000 HD
ATOM     66   O  A00 X   4      11.770   7.473   0.1070  0.00  0.00     0.000 OA
ATOM     67   S  A00 X   4      12.374   7.773   1.3680  0.00  0.00     0.000 S
ATOM     68   O  A00 X   4      11.520   8.417   2.3230  0.00  0.00     0.000 OA
ATOM     69   O  A00 X   4      13.725   8.258   1.3650  0.00  0.00     0.000 OA
ENDBRANCH 59 66
BRANCH 62 70
ATOM     70   C  A00 X   4      11.640   1.768   3.7050  0.00  0.00     0.000 C
ATOM     71   O  A00 X   4       8.196   0.695   4.0150  0.00  0.00     0.000 OA
ATOM     72   O  A00 X   4       9.677   1.581   5.6170  0.00  0.00     0.000 OA
ATOM     73   O  A00 X   4      10.305   1.423   3.3000  0.00  0.00     0.000 O
ATOM     74   O  A00 X   4       8.666   3.059   3.9640  0.00  0.00     0.000 OA
ATOM     75   S  A00 X   4       9.131   1.750   4.2880  0.00  0.00     0.000 S
ENDBRANCH 62 70
ENDBRANCH 57 61
ENDBRANCH 41 57
ENDBRANCH 40 44
ENDBRANCH 20 40
ENDBRANCH 19 23
ENDBRANCH 1 19
TORSDOF 14
ENDMDL
MODEL 7
REMARK VINA RESULT:      -2.3      3.460      8.893
ROOT
ATOM      1  C1  A00 X   1      19.190   6.384   3.9700  0.00  0.00     0.000 C
ATOM      2  C2  A00 X   1      20.292   7.344   4.4930  0.00  0.00     0.000 C
ATOM      3  C3  A00 X   1      21.737   7.092   3.9480  0.00  0.00     0.000 C
ATOM      4  C4  A00 X   1      21.963   5.721   3.2610  0.00  0.00     0.000 C
ATOM      5  C5  A00 X   1      20.940   4.676   3.7070  0.00  0.00     0.000 C
ATOM      6  O5  A00 X   1      19.665   5.204   3.2760  0.00  0.00     0.000 O
ATOM      7   O  A00 X   1      22.654   7.155   5.0390  0.00  0.00     0.000 O
ATOM      9  HD  A00 X   1      22.898   6.492   4.5370  0.00  0.00     0.000 HD
ATOM      9   O  A00 X   1      21.942   5.840   1.8390  0.00  0.00     0.000 O
ATOM     11  HD  A00 X   1      22.186   5.177   1.3380  0.00  0.00     0.000 HD
ENDROOT
BRANCH 2 11
ATOM     11   O  A00 X   1      19.894   8.689   4.1630  0.00  0.00     0.000 O
ATOM     12   O  A00 X   1      18.181   9.145   2.5430  0.00  0.00     0.000 OA
ATOM     13   O  A00 X   1      20.238   8.064   1.8270  0.00  0.00     0.000 OA
ATOM     14   O  A00 X   1      20.256  10.332   2.5440  0.00  0.00     0.000 OA
ATOM     15   S  A00 X   1      19.614   9.051   2.6640  0.00  0.00     0.000 S
ENDBRANCH 2 11
BRANCH 5 16
ATOM     16   C  A00 X   1      20.984   4.320   5.1960  0.00  0.00     0.000 C
ATOM     17   O  A00 X   1      21.958   4.646   5.8430  0.00  0.00     0.000 OA
ATOM     18   O  A00 X   1      20.079   3.731   5.7530  0.00  0.00     0.000 OA
ENDBRANCH 5 16
BRANCH 1 19
ATOM     19  O4  A00 X   2      18.216   6.042   4.9870  0.00  0.00     0.000 O
BRANCH 19 23
ATOM     20  C1  A00 X   2      14.111   7.234   5.2940  0.00  0.00     0.000 C
ATOM     21  C2  A00 X   2      14.684   7.005   3.8740  0.00  0.00     0.000 C
ATOM     22  C3  A00 X   2      15.989   6.183   3.9350  0.00  0.00     0.000 C
ATOM     23  C4  A00 X   2      17.005   6.845   4.8920  0.00  0.00     0.000 C
ATOM     24  C5  A00 X   2      16.307   7.037   6.2670  0.00  0.00     0.000 C
ATOM     25  O5  A00 X   2      15.142   7.883   6.0850  0.00  0.00     0.000 O
ATOM     26   O  A00 X   2      16.442   5.939   2.5920  0.00  0.00     0.000 O
ATOM     28  HD  A00 X   2      16.378   6.772   2.3650  0.00  0.00     0.000 HD
BRANCH 21 30
ATOM     28   N  A00 X   2      14.384   6.234   2.6640  0.00  0.00     0.000 N
ATOM     30  HD  A00 X   2      13.874   6.934   2.6480  0.00  0.00     0.000 HD
ATOM     30   O  A00 X   2      13.223   7.622   1.1860  0.00  0.00     0.000 OA
ATOM     31   S  A00 X   2      12.989   6.450   1.9530  0.00  0.00     0.000 S
ATOM     32   O  A00 X   2      12.809   5.254   1.1890  0.00  0.00     0.000 OA
ATOM     33   O  A00 X   2      11.997   6.536   2.9840  0.00  0.00     0.000 OA
ENDBRANCH 21 30
BRANCH 24 34
ATOM     34   C  A00 X   2      17.178   7.470   7.4690  0.00  0.00     0.000 C
ATOM     35   O  A00 X   2      17.713   5.435  10.4400  0.00  0.00     0.000 OA
ATOM     36   O  A00 X   2      16.924   6.645   8.6230  0.00  0.00     0.000 O
ATOM     37   O  A00 X   2      18.175   4.706   8.2390  0.00  0.00     0.000 OA
ATOM     38   S  A00 X   2      18.157   5.817   9.1400  0.00  0.00     0.000 S
ATOM     39   O  A00 X   2      19.279   6.707   9.1190  0.00  0.00     0.000 OA
ENDBRANCH 24 34
BRANCH 20 40
ATOM     40  O4  A00 X   3      13.852   5.926   5.8240  0.00  0.00     0.000 O
BRANCH 40 44
ATOM     41  C1  A00 X   3      13.390   3.081   8.0190  0.00  0.00     0.000 C
ATOM     42  C2  A00 X   3      12.836   3.183   6.5810  0.00  0.00     0.000 C
ATOM     43  C3  A00 X   3      12.061   4.510   6.3770  0.00  0.00     0.000 C
ATOM     44  C4  A00 X   3      12.816   5.758   6.8160  0.00  0.00     0.000 C
ATOM     45  C5  A00 X   3      13.337   5.582   8.2700  0.00  0.00     0.000 C
ATOM     46  O5  A00 X   3      14.052   4.313   8.4190  0.00  0.00     0.000 O
ATOM     47   O  A00 X   3      11.429   4.674   5.1090  0.00  0.00     0.000 O
ATOM     49  HD  A00 X   3      11.699   5.491   5.2060  0.00  0.00     0.000 HD
BRANCH 42 49
ATOM     49   O  A00 X   3      13.965   3.088   5.6850  0.00  0.00     0.000 O
ATOM     50   O  A00 X   3      14.311   3.185   3.3180  0.00  0.00     0.000 OA
ATOM     51   O  A00 X   3      12.446   1.994   4.1500  0.00  0.00     0.000 OA
ATOM     52   O  A00 X   3      14.608   1.131   4.5580  0.00  0.00     0.000 OA
ATOM     53   S  A00 X   3      13.840   2.308   4.3430  0.00  0.00     0.000 S
ENDBRANCH 42 49
BRANCH 45 54
ATOM     54   C  A00 X   3      12.216   5.768   9.3000  0.00  0.00     0.000 C
ATOM     55   O  A00 X   3      11.087   6.037   8.9450  0.00  0.00     0.000 OA
ATOM     56   O  A00 X   3      12.440   5.649  10.4950  0.00  0.00     0.000 OA
ENDBRANCH 45 54
BRANCH 41 57
ATOM     57  O4  A00 X   4      12.381   2.628   8.9490  0.00  0.00     0.000 O
BRANCH 57 61
ATOM     58  C1  A00 X   4      12.812   0.391  12.6160  0.00  0.00     0.000 C
ATOM     59  C2  A00 X   4      12.291   1.848  12.6930  0.00  0.00     0.000 C
ATOM     60  C3  A00 X   4      11.841   2.413  11.3310  0.00  0.00     0.000 C
ATOM     61  C4  A00 X   4      12.889   2.151  10.2280  0.00  0.00     0.000 C
ATOM     62  C5  A00 X   4      13.100   0.618  10.1820  0.00  0.00     0.000 C
ATOM     63  O5  A00 X   4      13.642   0.173  11.4520  0.00  0.00     0.000 O
BRANCH 59 66
ATOM     64   N  A00 X   4      13.440   2.652  13.1500  0.00  0.00     0.000 N
ATOM     66  HD  A00 X   4      14.233   2.343  12.9890  0.00  0.00     0.000 HD
ATOM     66   O  A00 X   4      12.828   2.064  15.4030  0.00  0.00     0.000 OA
ATOM     67   S  A00 X   4      13.483   3.109  14.6820  0.00  0.00     0.000 S
ATOM     68   O  A00 X   4      14.899   3.205  14.8830  0.00  0.00     0.000 OA
ATOM     69   O  A00 X   4      12.816   4.377  14.5860  0.00  0.00     0.000 OA
ENDBRANCH 59 66
BRANCH 62 70
ATOM     70   C  A00 X   4      14.045   0.143   9.0520  0.00  0.00     0.000 C
ATOM     71   O  A00 X   4      17.662  -0.012   9.0440  0.00  0.00     0.000 OA
ATOM     72   O  A00 X   4      16.162   0.891   7.4700  0.00  0.00     0.000 OA
ATOM     73   O  A00 X   4      15.379   0.017   9.5700  0.00  0.00     0.000 O
ATOM     74   O  A00 X   4      16.600   2.094   9.5430  0.00  0.00     0.000 OA
ATOM     75   S  A00 X   4      16.518   0.838   8.8710  0.00  0.00     0.000 S
ENDBRANCH 62 70
ENDBRANCH 57 61
ENDBRANCH 41 57
ENDBRANCH 40 44
ENDBRANCH 20 40
ENDBRANCH 19 23
ENDBRANCH 1 19
TORSDOF 14
ENDMDL
MODEL 8
REMARK VINA RESULT:      -2.2      3.353      8.765
ROOT
ATOM      1  C1  A00 X   1      15.146  12.594   6.5120  0.00  0.00     0.000 C
ATOM      2  C2  A00 X   1      14.031  12.757   7.5790  0.00  0.00     0.000 C
ATOM      3  C3  A00 X   1      14.131  14.026   8.4890  0.00  0.00     0.000 C
ATOM      4  C4  A00 X   1      15.499  14.756   8.4690  0.00  0.00     0.000 C
ATOM      5  C5  A00 X   1      16.636  13.840   8.0200  0.00  0.00     0.000 C
ATOM      6  O5  A00 X   1      16.294  13.465   6.6670  0.00  0.00     0.000 O
ATOM      7   O  A00 X   1      13.898  13.639   9.8410  0.00  0.00     0.000 O
ATOM      9  HD  A00 X   1      14.552  14.207   9.8470  0.00  0.00     0.000 HD
ATOM      9   O  A00 X   1      15.459  15.917   7.6400  0.00  0.00     0.000 O
ATOM     11  HD  A00 X   1      16.112  16.486   7.6460  0.00  0.00     0.000 HD
ENDROOT
BRANCH 2 11
ATOM     11   O  A00 X   1      12.765  12.771   6.8920  0.00  0.00     0.000 O
ATOM     12   O  A00 X   1      10.734  13.441   7.9840  0.00  0.00     0.000 OA
ATOM     13   O  A00 X   1      11.902  11.452   8.7570  0.00  0.00     0.000 OA
ATOM     14   O  A00 X   1      10.841  11.475   6.6280  0.00  0.00     0.000 OA
ATOM     15   S  A00 X   1      11.488  12.261   7.6440  0.00  0.00     0.000 S
ENDBRANCH 2 11
BRANCH 5 16
ATOM     16   C  A00 X   1      16.905  12.643   8.9380  0.00  0.00     0.000 C
ATOM     17   O  A00 X   1      16.464  12.667  10.0690  0.00  0.00     0.000 OA
ATOM     18   O  A00 X   1      17.535  11.670   8.5740  0.00  0.00     0.000 OA
ENDBRANCH 5 16
BRANCH 1 19
ATOM     19  O4  A00 X   2      15.551  11.215   6.3300  0.00  0.00     0.000 O
BRANCH 19 23
ATOM     20  C1  A00 X   2      17.258   9.182   2.9660  0.00  0.00     0.000 C
ATOM     21  C2  A00 X   2      18.195  10.081   3.8080  0.00  0.00     0.000 C
ATOM     22  C3  A00 X   2      17.573  10.383   5.1880  0.00  0.00     0.000 C
ATOM     23  C4  A00 X   2      16.156  10.978   5.0270  0.00  0.00     0.000 C
ATOM     24  C5  A00 X   2      15.326   9.997   4.1530  0.00  0.00     0.000 C
ATOM     25  O5  A00 X   2      15.976   9.857   2.8630  0.00  0.00     0.000 O
ATOM     26   O  A00 X   2      18.508  11.160   5.9550  0.00  0.00     0.000 O
ATOM     28  HD  A00 X   2      18.632  11.733   5.3180  0.00  0.00     0.000 HD
BRANCH 21 30
ATOM     28   N  A00 X   2      19.483   9.912   4.4890  0.00  0.00     0.000 N
ATOM     30  HD  A00 X   2      19.659  10.087   3.6590  0.00  0.00     0.000 HD
ATOM     30   O  A00 X   2      21.152  10.803   3.1170  0.00  0.00     0.000 OA
ATOM     31   S  A00 X   2      20.754   9.538   3.6250  0.00  0.00     0.000 S
ATOM     32   O  A00 X   2      21.651   8.960   4.5770  0.00  0.00     0.000 OA
ATOM     33   O  A00 X   2      20.341   8.554   2.6690  0.00  0.00     0.000 OA
ENDBRANCH 21 30
BRANCH 24 34
ATOM     34   C  A00 X   2      13.804  10.245   4.0310  0.00  0.00     0.000 C
ATOM     35   O  A00 X   2      12.331  13.073   2.2750  0.00  0.00     0.000 OA
ATOM     36   O  A00 X   2      13.527  11.593   3.6040  0.00  0.00     0.000 O
ATOM     37   O  A00 X   2      13.844  11.548   1.2870  0.00  0.00     0.000 OA
ATOM     38   S  A00 X   2      12.779  11.720   2.2270  0.00  0.00     0.000 S
ATOM     39   O  A00 X   2      11.739  10.736   2.2380  0.00  0.00     0.000 OA
ENDBRANCH 24 34
BRANCH 20 40
ATOM     40  O4  A00 X   3      17.104   7.970   3.7190  0.00  0.00     0.000 O
BRANCH 40 44
ATOM     41  C1  A00 X   3      15.993   4.836   5.1570  0.00  0.00     0.000 C
ATOM     42  C2  A00 X   3      17.462   5.307   5.1010  0.00  0.00     0.000 C
ATOM     43  C3  A00 X   3      17.852   5.744   3.6650  0.00  0.00     0.000 C
ATOM     44  C4  A00 X   3      16.884   6.727   3.0180  0.00  0.00     0.000 C
ATOM     45  C5  A00 X   3      15.431   6.181   3.1090  0.00  0.00     0.000 C
ATOM     46  O5  A00 X   3      15.111   5.772   4.4780  0.00  0.00     0.000 O
ATOM     47   O  A00 X   3      19.215   6.117   3.4760  0.00  0.00     0.000 O
ATOM     49  HD  A00 X   3      18.861   6.723   2.9680  0.00  0.00     0.000 HD
BRANCH 42 49
ATOM     49   O  A00 X   3      17.592   6.399   6.0380  0.00  0.00     0.000 O
ATOM     50   O  A00 X   3      19.351   7.841   6.7850  0.00  0.00     0.000 OA
ATOM     51   O  A00 X   3      19.813   5.543   6.4760  0.00  0.00     0.000 OA
ATOM     52   O  A00 X   3      18.374   6.176   8.2410  0.00  0.00     0.000 OA
ATOM     53   S  A00 X   3      18.853   6.511   6.9440  0.00  0.00     0.000 S
ENDBRANCH 42 49
BRANCH 45 54
ATOM     54   C  A00 X   3      15.173   5.080   2.0740  0.00  0.00     0.000 C
ATOM     55   O  A00 X   3      15.918   4.125   1.9870  0.00  0.00     0.000 OA
ATOM     56   O  A00 X   3      14.216   5.144   1.3180  0.00  0.00     0.000 OA
ENDBRANCH 45 54
BRANCH 41 57
ATOM     57  O4  A00 X   4      15.854   3.469   4.7100  0.00  0.00     0.000 O
BRANCH 57 61
ATOM     58  C1  A00 X   4      13.136   0.279   5.7500  0.00  0.00     0.000 C
ATOM     59  C2  A00 X   4      12.602   1.462   4.9040  0.00  0.00     0.000 C
ATOM     60  C3  A00 X   4      13.718   2.337   4.2980  0.00  0.00     0.000 C
ATOM     61  C4  A00 X   4      14.784   2.715   5.3490  0.00  0.00     0.000 C
ATOM     62  C5  A00 X   4      15.331   1.381   5.9130  0.00  0.00     0.000 C
ATOM     63  O5  A00 X   4      14.257   0.667   6.5770  0.00  0.00     0.000 O
BRANCH 59 66
ATOM     64   N  A00 X   4      11.611   2.548   5.0060  0.00  0.00     0.000 N
ATOM     66  HD  A00 X   4      11.661   3.072   5.6930  0.00  0.00     0.000 HD
ATOM     66   O  A00 X   4       9.952   0.859   5.4460  0.00  0.00     0.000 OA
ATOM     67   S  A00 X   4      10.061   2.172   4.8920  0.00  0.00     0.000 S
ATOM     68   O  A00 X   4       9.482   3.223   5.6770  0.00  0.00     0.000 OA
ATOM     69   O  A00 X   4       9.867   2.320   3.4770  0.00  0.00     0.000 OA
ENDBRANCH 59 66
BRANCH 62 70
ATOM     70   C  A00 X   4      16.500   1.550   6.9130  0.00  0.00     0.000 C
ATOM     71   O  A00 X   4      20.036   1.907   6.2190  0.00  0.00     0.000 OA
ATOM     72   O  A00 X   4      18.902   0.488   7.7180  0.00  0.00     0.000 OA
ATOM     73   O  A00 X   4      17.693   1.903   6.1940  0.00  0.00     0.000 O
ATOM     74   O  A00 X   4      18.875  -0.012   5.3330  0.00  0.00     0.000 OA
ATOM     75   S  A00 X   4      18.949   0.978   6.3580  0.00  0.00     0.000 S
ENDBRANCH 62 70
ENDBRANCH 57 61
ENDBRANCH 41 57
ENDBRANCH 40 44
ENDBRANCH 20 40
ENDBRANCH 19 23
ENDBRANCH 1 19
TORSDOF 14
ENDMDL
MODEL 9
REMARK VINA RESULT:      -1.9      3.099      5.588
ROOT
ATOM      1  C1  A00 X   1      13.709   8.774   3.4110  0.00  0.00     0.000 C
ATOM      2  C2  A00 X   1      14.326   8.319   2.0620  0.00  0.00     0.000 C
ATOM      3  C3  A00 X   1      13.444   8.550   0.7900  0.00  0.00     0.000 C
ATOM      4  C4  A00 X   1      11.948   8.853   1.0610  0.00  0.00     0.000 C
ATOM      5  C5  A00 X   1      11.495   8.348   2.4300  0.00  0.00     0.000 C
ATOM      6  O5  A00 X   1      12.295   9.089   3.3780  0.00  0.00     0.000 O
ATOM      7   O  A00 X   1      13.480   7.371  -0.0110  0.00  0.00     0.000 O
ATOM      9  HD  A00 X   1      12.663   7.658  -0.0150  0.00  0.00     0.000 HD
ATOM      9   O  A00 X   1      11.670  10.249   0.9450  0.00  0.00     0.000 O
ATOM     11  HD  A00 X   1      10.853  10.536   0.9410  0.00  0.00     0.000 HD
ENDROOT
BRANCH 2 11
ATOM     11   O  A00 X   1      15.578   9.012   1.8970  0.00  0.00     0.000 O
ATOM     12   O  A00 X   1      16.093  11.014   3.1190  0.00  0.00     0.000 OA
ATOM     13   O  A00 X   1      14.248  11.028   1.5330  0.00  0.00     0.000 OA
ATOM     14   O  A00 X   1      16.493  10.840   0.7690  0.00  0.00     0.000 OA
ATOM     15   S  A00 X   1      15.577  10.579   1.8460  0.00  0.00     0.000 S
ENDBRANCH 2 11
BRANCH 5 16
ATOM     16   C  A00 X   1      11.571   6.829   2.6180  0.00  0.00     0.000 C
ATOM     17   O  A00 X   1      11.467   6.376   3.7390  0.00  0.00     0.000 OA
ATOM     18   O  A00 X   1      11.726   6.064   1.6860  0.00  0.00     0.000 OA
ENDBRANCH 5 16
BRANCH 1 19
ATOM     19  O4  A00 X   2      14.025   7.876   4.5040  0.00  0.00     0.000 O
BRANCH 19 23
ATOM     20  C1  A00 X   2      15.072   8.629   8.5910  0.00  0.00     0.000 C
ATOM     21  C2  A00 X   2      13.614   8.922   8.1610  0.00  0.00     0.000 C
ATOM     22  C3  A00 X   2      13.280   8.214   6.8310  0.00  0.00     0.000 C
ATOM     23  C4  A00 X   2      14.313   8.585   5.7430  0.00  0.00     0.000 C
ATOM     24  C5  A00 X   2      15.726   8.262   6.3010  0.00  0.00     0.000 C
ATOM     25  O5  A00 X   2      15.943   9.043   7.5050  0.00  0.00     0.000 O
ATOM     26   O  A00 X   2      11.900   8.461   6.5110  0.00  0.00     0.000 O
ATOM     28  HD  A00 X   2      11.974   9.316   6.6260  0.00  0.00     0.000 HD
BRANCH 21 30
ATOM     28   N  A00 X   2      13.605  10.052   9.0950  0.00  0.00     0.000 N
ATOM     30  HD  A00 X   2      12.779   9.890   8.8900  0.00  0.00     0.000 HD
ATOM     30   O  A00 X   2      11.430  10.303   9.9120  0.00  0.00     0.000 OA
ATOM     31   S  A00 X   2      12.354  11.018   9.1050  0.00  0.00     0.000 S
ATOM     32   O  A00 X   2      12.859  12.222   9.6880  0.00  0.00     0.000 OA
ATOM     33   O  A00 X   2      11.983  11.245   7.7390  0.00  0.00     0.000 OA
ENDBRANCH 21 30
BRANCH 24 34
ATOM     34   C  A00 X   2      16.924   8.326   5.3240  0.00  0.00     0.000 C
ATOM     35   O  A00 X   2      18.804   5.416   4.2050  0.00  0.00     0.000 OA
ATOM     36   O  A00 X   2      17.679   7.099   5.3410  0.00  0.00     0.000 O
ATOM     37   O  A00 X   2      16.462   5.646   3.9700  0.00  0.00     0.000 OA
ATOM     38   S  A00 X   2      17.725   6.319   3.9760  0.00  0.00     0.000 S
ATOM     39   O  A00 X   2      17.959   7.299   2.9580  0.00  0.00     0.000 OA
ENDBRANCH 24 34
BRANCH 20 40
ATOM     40  O4  A00 X   3      15.149   7.205   8.7510  0.00  0.00     0.000 O
BRANCH 40 44
ATOM     41  C1  A00 X   3      16.427   3.824   8.5080  0.00  0.00     0.000 C
ATOM     42  C2  A00 X   3      15.243   4.255   9.4000  0.00  0.00     0.000 C
ATOM     43  C3  A00 X   3      15.622   5.479  10.2730  0.00  0.00     0.000 C
ATOM     44  C4  A00 X   3      16.243   6.637   9.5040  0.00  0.00     0.000 C
ATOM     45  C5  A00 X   3      17.428   6.126   8.6360  0.00  0.00     0.000 C
ATOM     46  O5  A00 X   3      17.028   4.966   7.8380  0.00  0.00     0.000 O
ATOM     47   O  A00 X   3      14.631   5.912  11.2030  0.00  0.00     0.000 O
ATOM     49  HD  A00 X   3      14.910   6.696  10.9620  0.00  0.00     0.000 HD
BRANCH 42 49
ATOM     49   O  A00 X   3      14.138   4.557   8.5200  0.00  0.00     0.000 O
ATOM     50   O  A00 X   3      11.920   5.426   8.7580  0.00  0.00     0.000 OA
ATOM     51   O  A00 X   3      12.707   3.857  10.3420  0.00  0.00     0.000 OA
ATOM     52   O  A00 X   3      12.318   3.125   8.1280  0.00  0.00     0.000 OA
ATOM     53   S  A00 X   3      12.678   4.229   8.9490  0.00  0.00     0.000 S
ENDBRANCH 42 49
BRANCH 45 54
ATOM     54   C  A00 X   3      18.682   5.874   9.4810  0.00  0.00     0.000 C
ATOM     55   O  A00 X   3      19.771   5.766   8.9550  0.00  0.00     0.000 OA
ATOM     56   O  A00 X   3      18.608   5.774  10.6960  0.00  0.00     0.000 OA
ENDBRANCH 45 54
BRANCH 41 57
ATOM     57  O4  A00 X   4      17.372   3.005   9.2340  0.00  0.00     0.000 O
BRANCH 57 61
ATOM     58  C1  A00 X   4      20.173  -0.010   7.9290  0.00  0.00     0.000 C
ATOM     59  C2  A00 X   4      20.698   1.422   8.2020  0.00  0.00     0.000 C
ATOM     60  C3  A00 X   4      19.707   2.300   8.9930  0.00  0.00     0.000 C
ATOM     61  C4  A00 X   4      18.282   2.229   8.4050  0.00  0.00     0.000 C
ATOM     62  C5  A00 X   4      17.878   0.733   8.4210  0.00  0.00     0.000 C
ATOM     63  O5  A00 X   4      18.775  -0.012   7.5590  0.00  0.00     0.000 O
BRANCH 59 66
ATOM     64   N  A00 X   4      20.637   1.022   6.7850  0.00  0.00     0.000 N
ATOM     66  HD  A00 X   4      20.353   0.223   6.6060  0.00  0.00     0.000 HD
ATOM     66   O  A00 X   4      23.045   1.000   6.7900  0.00  0.00     0.000 OA
ATOM     67   S  A00 X   4      21.951   1.198   5.8910  0.00  0.00     0.000 S
ATOM     68   O  A00 X   4      21.749   0.156   4.9270  0.00  0.00     0.000 OA
ATOM     69   O  A00 X   4      21.735   2.521   5.3800  0.00  0.00     0.000 OA
ENDBRANCH 59 66
BRANCH 62 70
ATOM     70   C  A00 X   4      16.423   0.467   7.9650  0.00  0.00     0.000 C
ATOM     71   O  A00 X   4      15.154   0.010   4.6050  0.00  0.00     0.000 OA
ATOM     72   O  A00 X   4      14.398   1.391   6.3570  0.00  0.00     0.000 OA
ATOM     73   O  A00 X   4      16.420   0.107   6.5740  0.00  0.00     0.000 O
ATOM     74   O  A00 X   4      16.393   2.017   5.1060  0.00  0.00     0.000 OA
ATOM     75   S  A00 X   4      15.553   0.972   5.5940  0.00  0.00     0.000 S
ENDBRANCH 62 70
ENDBRANCH 57 61
ENDBRANCH 41 57
ENDBRANCH 40 44
ENDBRANCH 20 40
ENDBRANCH 19 23
ENDBRANCH 1 19
TORSDOF 14
ENDMDL
MODEL 10
REMARK VINA RESULT:      -1.6      4.185      9.881
ROOT
ATOM      1  C1  A00 X   1      13.917  14.018   6.6740  0.00  0.00     0.000 C
ATOM      2  C2  A00 X   1      12.742  15.031   6.6360  0.00  0.00     0.000 C
ATOM      3  C3  A00 X   1      12.697  16.076   7.7990  0.00  0.00     0.000 C
ATOM      4  C4  A00 X   1      13.590  15.752   9.0240  0.00  0.00     0.000 C
ATOM      5  C5  A00 X   1      13.917  14.262   9.1220  0.00  0.00     0.000 C
ATOM      6  O5  A00 X   1      14.661  13.970   7.9170  0.00  0.00     0.000 O
ATOM      7   O  A00 X   1      11.359  16.161   8.2850  0.00  0.00     0.000 O
ATOM      9  HD  A00 X   1      11.883  16.174   8.9750  0.00  0.00     0.000 HD
ATOM      9   O  A00 X   1      14.799  16.511   9.0030  0.00  0.00     0.000 O
ATOM     11  HD  A00 X   1      15.322  16.523   9.6930  0.00  0.00     0.000 HD
ENDROOT
BRANCH 2 11
ATOM     11   O  A00 X   1      12.809  15.732   5.3780  0.00  0.00     0.000 O
ATOM     12   O  A00 X   1      14.740  15.610   3.9570  0.00  0.00     0.000 OA
ATOM     13   O  A00 X   1      14.943  16.629   6.1560  0.00  0.00     0.000 OA
ATOM     14   O  A00 X   1      13.673  17.691   4.4480  0.00  0.00     0.000 OA
ATOM     15   S  A00 X   1      14.147  16.440   4.9750  0.00  0.00     0.000 S
ENDBRANCH 2 11
BRANCH 5 16
ATOM     16   C  A00 X   1      12.708  13.345   9.3320  0.00  0.00     0.000 C
ATOM     17   O  A00 X   1      12.847  12.151   9.1660  0.00  0.00     0.000 OA
ATOM     18   O  A00 X   1      11.619  13.769   9.6670  0.00  0.00     0.000 OA
ENDBRANCH 5 16
BRANCH 1 19
ATOM     19  O4  A00 X   2      13.530  12.692   6.2390  0.00  0.00     0.000 O
BRANCH 19 23
ATOM     20  C1  A00 X   2      12.861  11.132   2.3040  0.00  0.00     0.000 C
ATOM     21  C2  A00 X   2      14.158  11.943   2.5400  0.00  0.00     0.000 C
ATOM     22  C3  A00 X   2      14.468  12.058   4.0470  0.00  0.00     0.000 C
ATOM     23  C4  A00 X   2      13.253  12.632   4.8100  0.00  0.00     0.000 C
ATOM     24  C5  A00 X   2      12.022  11.746   4.4770  0.00  0.00     0.000 C
ATOM     25  O5  A00 X   2      11.794  11.782   3.0440  0.00  0.00     0.000 O
ATOM     26   O  A00 X   2      15.713  12.758   4.2100  0.00  0.00     0.000 O
ATOM     28  HD  A00 X   2      15.473  13.408   3.6900  0.00  0.00     0.000 HD
BRANCH 21 30
ATOM     28   N  A00 X   2      15.598  11.752   2.3360  0.00  0.00     0.000 N
ATOM     30  HD  A00 X   2      15.269  12.009   1.5770  0.00  0.00     0.000 HD
ATOM     30   O  A00 X   2      16.198  12.818   0.3450  0.00  0.00     0.000 OA
ATOM     31   S  A00 X   2      16.129  11.500   0.8690  0.00  0.00     0.000 S
ATOM     32   O  A00 X   2      17.394  10.864   1.0710  0.00  0.00     0.000 OA
ATOM     33   O  A00 X   2      15.214  10.597   0.2360  0.00  0.00     0.000 OA
ENDBRANCH 21 30
BRANCH 24 34
ATOM     34   C  A00 X   2      10.726  11.969   5.2930  0.00  0.00     0.000 C
ATOM     35   O  A00 X   2       7.416  12.304   3.8140  0.00  0.00     0.000 OA
ATOM     36   O  A00 X   2       9.646  12.413   4.4470  0.00  0.00     0.000 O
ATOM     37   O  A00 X   2       8.845  10.456   3.4490  0.00  0.00     0.000 OA
ATOM     38   S  A00 X   2       8.406  11.449   4.3810  0.00  0.00     0.000 S
ATOM     39   O  A00 X   2       8.147  11.028   5.7250  0.00  0.00     0.000 OA
ENDBRANCH 24 34
BRANCH 20 40
ATOM     40  O4  A00 X   3      13.110   9.833   2.8610  0.00  0.00     0.000 O
BRANCH 40 44
ATOM     41  C1  A00 X   3      12.990   6.490   4.2520  0.00  0.00     0.000 C
ATOM     42  C2  A00 X   3      14.132   7.034   3.3660  0.00  0.00     0.000 C
ATOM     43  C3  A00 X   3      13.572   7.670   2.0680  0.00  0.00     0.000 C
ATOM     44  C4  A00 X   3      12.454   8.681   2.2890  0.00  0.00     0.000 C
ATOM     45  C5  A00 X   3      11.343   8.060   3.1820  0.00  0.00     0.000 C
ATOM     46  O5  A00 X   3      11.917   7.462   4.3900  0.00  0.00     0.000 O
ATOM     47   O  A00 X   3      14.544   8.131   1.1310  0.00  0.00     0.000 O
ATOM     49  HD  A00 X   3      13.978   8.779   1.0330  0.00  0.00     0.000 HD
BRANCH 42 49
ATOM     49   O  A00 X   3      14.857   8.001   4.1570  0.00  0.00     0.000 O
ATOM     50   O  A00 X   3      16.745   9.437   3.8350  0.00  0.00     0.000 OA
ATOM     51   O  A00 X   3      16.833   7.231   2.9910  0.00  0.00     0.000 OA
ATOM     52   O  A00 X   3      16.837   7.541   5.3340  0.00  0.00     0.000 OA
ATOM     53   S  A00 X   3      16.410   8.070   4.0840  0.00  0.00     0.000 S
ENDBRANCH 42 49
BRANCH 45 54
ATOM     54   C  A00 X   3      10.456   7.090   2.3920  0.00  0.00     0.000 C
ATOM     55   O  A00 X   3      10.803   6.681   1.3030  0.00  0.00     0.000 OA
ATOM     56   O  A00 X   3       9.386   6.713   2.8430  0.00  0.00     0.000 OA
ENDBRANCH 45 54
BRANCH 41 57
ATOM     57  O4  A00 X   4      12.547   5.187   3.8110  0.00  0.00     0.000 O
BRANCH 57 61
ATOM     58  C1  A00 X   4      10.601   2.000   5.9790  0.00  0.00     0.000 C
ATOM     59  C2  A00 X   4       9.783   2.788   4.9260  0.00  0.00     0.000 C
ATOM     60  C3  A00 X   4      10.655   3.637   3.9780  0.00  0.00     0.000 C
ATOM     61  C4  A00 X   4      11.698   4.471   4.7520  0.00  0.00     0.000 C
ATOM     62  C5  A00 X   4      12.539   3.463   5.5740  0.00  0.00     0.000 C
ATOM     63  O5  A00 X   4      11.679   2.791   6.5290  0.00  0.00     0.000 O
BRANCH 59 66
ATOM     64   N  A00 X   4       8.657   2.543   4.0060  0.00  0.00     0.000 N
ATOM     66  HD  A00 X   4       8.287   3.233   3.6340  0.00  0.00     0.000 HD
ATOM     66   O  A00 X   4       7.352   1.917   5.9310  0.00  0.00     0.000 OA
ATOM     67   S  A00 X   4       7.432   1.656   4.5280  0.00  0.00     0.000 S
ATOM     68   O  A00 X   4       6.366   2.197   3.7380  0.00  0.00     0.000 OA
ATOM     69   O  A00 X   4       7.869   0.353   4.1130  0.00  0.00     0.000 OA
ENDBRANCH 59 66
BRANCH 62 70
ATOM     70   C  A00 X   4      13.721   4.103   6.3410  0.00  0.00     0.000 C
ATOM     71   O  A00 X   4      13.685   5.805   9.5370  0.00  0.00     0.000 OA
ATOM     72   O  A00 X   4      14.627   6.436   7.4730  0.00  0.00     0.000 OA
ATOM     73   O  A00 X   4      13.295   4.443   7.6710  0.00  0.00     0.000 O
ATOM     74   O  A00 X   4      12.217   6.594   7.7940  0.00  0.00     0.000 OA
ATOM     75   S  A00 X   4      13.439   5.936   8.1280  0.00  0.00     0.000 S
ENDBRANCH 62 70
ENDBRANCH 57 61
ENDBRANCH 41 57
ENDBRANCH 40 44
ENDBRANCH 20 40
ENDBRANCH 19 23
ENDBRANCH 1 19
TORSDOF 14
ENDMDL
MODEL 11
REMARK VINA RESULT:      -1.2      3.180      5.541
ROOT
ATOM      1  C1  A00 X   1      13.633   9.040   3.1510  0.00  0.00     0.000 C
ATOM      2  C2  A00 X   1      14.221   8.436   1.8480  0.00  0.00     0.000 C
ATOM      3  C3  A00 X   1      13.264   8.409   0.6110  0.00  0.00     0.000 C
ATOM      4  C4  A00 X   1      11.762   8.637   0.9220  0.00  0.00     0.000 C
ATOM      5  C5  A00 X   1      11.417   8.309   2.3740  0.00  0.00     0.000 C
ATOM      6  O5  A00 X   1      12.198   9.240   3.1560  0.00  0.00     0.000 O
ATOM      7   O  A00 X   1      13.358   7.130  -0.0120  0.00  0.00     0.000 O
ATOM      9  HD  A00 X   1      12.521   7.351  -0.0100  0.00  0.00     0.000 HD
ATOM      9   O  A00 X   1      11.365   9.975   0.6220  0.00  0.00     0.000 O
ATOM     11  HD  A00 X   1      10.528  10.197   0.6250  0.00  0.00     0.000 HD
ENDROOT
BRANCH 2 11
ATOM     11   O  A00 X   1      15.402   9.188   1.5100  0.00  0.00     0.000 O
ATOM     12   O  A00 X   1      15.811  11.380   2.4020  0.00  0.00     0.000 OA
ATOM     13   O  A00 X   1      13.896  11.026   0.9450  0.00  0.00     0.000 OA
ATOM     14   O  A00 X   1      16.108  10.894   0.0810  0.00  0.00     0.000 OA
ATOM     15   S  A00 X   1      15.270  10.726   1.2380  0.00  0.00     0.000 S
ENDBRANCH 2 11
BRANCH 5 16
ATOM     16   C  A00 X   1      11.627   6.845   2.7750  0.00  0.00     0.000 C
ATOM     17   O  A00 X   1      11.760   6.578   3.9520  0.00  0.00     0.000 OA
ATOM     18   O  A00 X   1      11.659   5.944   1.9600  0.00  0.00     0.000 OA
ENDBRANCH 5 16
BRANCH 1 19
ATOM     19  O4  A00 X   2      14.073   8.341   4.3410  0.00  0.00     0.000 O
BRANCH 19 23
ATOM     20  C1  A00 X   2      14.966   9.741   8.2920  0.00  0.00     0.000 C
ATOM     21  C2  A00 X   2      13.478   9.693   7.8710  0.00  0.00     0.000 C
ATOM     22  C3  A00 X   2      13.285   8.787   6.6360  0.00  0.00     0.000 C
ATOM     23  C4  A00 X   2      14.220   9.228   5.4870  0.00  0.00     0.000 C
ATOM     24  C5  A00 X   2      15.672   9.254   6.0400  0.00  0.00     0.000 C
ATOM     25  O5  A00 X   2      15.734  10.193   7.1450  0.00  0.00     0.000 O
ATOM     26   O  A00 X   2      11.883   8.721   6.3270  0.00  0.00     0.000 O
ATOM     28  HD  A00 X   2      11.786   9.581   6.3450  0.00  0.00     0.000 HD
BRANCH 21 30
ATOM     28   N  A00 X   2      13.249  10.897   8.6750  0.00  0.00     0.000 N
ATOM     30  HD  A00 X   2      12.471  10.554   8.5110  0.00  0.00     0.000 HD
ATOM     30   O  A00 X   2      11.070  10.807   9.5150  0.00  0.00     0.000 OA
ATOM     31   S  A00 X   2      11.831  11.594   8.6110  0.00  0.00     0.000 S
ATOM     32   O  A00 X   2      12.092  12.931   9.0460  0.00  0.00     0.000 OA
ATOM     33   O  A00 X   2      11.419  11.589   7.2390  0.00  0.00     0.000 OA
ENDBRANCH 21 30
BRANCH 24 34
ATOM     34   C  A00 X   2      16.829   9.441   5.0310  0.00  0.00     0.000 C
ATOM     35   O  A00 X   2      19.139   6.798   4.0620  0.00  0.00     0.000 OA
ATOM     36   O  A00 X   2      17.773   8.355   5.1110  0.00  0.00     0.000 O
ATOM     37   O  A00 X   2      16.788   6.633   3.8720  0.00  0.00     0.000 OA
ATOM     38   S  A00 X   2      17.925   7.499   3.8010  0.00  0.00     0.000 S
ATOM     39   O  A00 X   2      17.983   8.429   2.7140  0.00  0.00     0.000 OA
ENDBRANCH 24 34
BRANCH 20 40
ATOM     40  O4  A00 X   3      15.325   8.388   8.6060  0.00  0.00     0.000 O
BRANCH 40 44
ATOM     41  C1  A00 X   3      17.311   5.361   8.7280  0.00  0.00     0.000 C
ATOM     42  C2  A00 X   3      16.012   5.594   9.5300  0.00  0.00     0.000 C
ATOM     43  C3  A00 X   3      16.068   6.939  10.2990  0.00  0.00     0.000 C
ATOM     44  C4  A00 X   3      16.469   8.138   9.4500  0.00  0.00     0.000 C
ATOM     45  C5  A00 X   3      17.784   7.829   8.6800  0.00  0.00     0.000 C
ATOM     46  O5  A00 X   3      17.690   6.547   7.9780  0.00  0.00     0.000 O
ATOM     47   O  A00 X   3      14.955   7.219  11.1450  0.00  0.00     0.000 O
ATOM     49  HD  A00 X   3      15.073   8.023  10.8440  0.00  0.00     0.000 HD
BRANCH 42 49
ATOM     49   O  A00 X   3      14.921   5.573   8.5830  0.00  0.00     0.000 O
ATOM     50   O  A00 X   3      12.548   5.876   8.6670  0.00  0.00     0.000 OA
ATOM     51   O  A00 X   3      13.600   4.625  10.3750  0.00  0.00     0.000 OA
ATOM     52   O  A00 X   3      13.533   3.719   8.1930  0.00  0.00     0.000 OA
ATOM     53   S  A00 X   3      13.563   4.914   8.9630  0.00  0.00     0.000 S
ENDBRANCH 42 49
BRANCH 45 54
ATOM     54   C  A00 X   3      19.013   7.928   9.5920  0.00  0.00     0.000 C
ATOM     55   O  A00 X   3      20.131   7.973   9.1220  0.00  0.00     0.000 OA
ATOM     56   O  A00 X   3      18.889   7.962  10.8070  0.00  0.00     0.000 OA
ENDBRANCH 45 54
BRANCH 41 57
ATOM     57  O4  A00 X   4      18.366   4.832   9.5630  0.00  0.00     0.000 O
BRANCH 57 61
ATOM     58  C1  A00 X   4      21.889   2.536   8.5850  0.00  0.00     0.000 C
ATOM     59  C2  A00 X   4      22.054   4.038   8.9280  0.00  0.00     0.000 C
ATOM     60  C3  A00 X   4      20.811   4.655   9.6000  0.00  0.00     0.000 C
ATOM     61  C4  A00 X   4      19.513   4.297   8.8440  0.00  0.00     0.000 C
ATOM     62  C5  A00 X   4      19.446   2.750   8.8020  0.00  0.00     0.000 C
ATOM     63  O5  A00 X   4      20.578   2.244   8.0490  0.00  0.00     0.000 O
BRANCH 59 66
ATOM     64   N  A00 X   4      23.042   4.990   9.4680  0.00  0.00     0.000 N
ATOM     66  HD  A00 X   4      22.902   5.833   9.3280  0.00  0.00     0.000 HD
ATOM     66   O  A00 X   4      24.584   4.179   7.8060  0.00  0.00     0.000 OA
ATOM     67   S  A00 X   4      24.584   4.766   9.1090  0.00  0.00     0.000 S
ATOM     68   O  A00 X   4      25.064   6.116   9.1780  0.00  0.00     0.000 OA
ATOM     69   O  A00 X   4      24.985   3.943  10.2150  0.00  0.00     0.000 OA
ENDBRANCH 59 66
BRANCH 62 70
ATOM     70   C  A00 X   4      18.148   2.191   8.1720  0.00  0.00     0.000 C
ATOM     71   O  A00 X   4      17.356   1.709   4.6730  0.00  0.00     0.000 OA
ATOM     72   O  A00 X   4      16.128   2.742   6.3950  0.00  0.00     0.000 OA
ATOM     73   O  A00 X   4      18.366   1.945   6.7740  0.00  0.00     0.000 O
ATOM     74   O  A00 X   4      18.030   3.903   5.4100  0.00  0.00     0.000 OA
ATOM     75   S  A00 X   4      17.418   2.659   5.7480  0.00  0.00     0.000 S
ENDBRANCH 62 70
ENDBRANCH 57 61
ENDBRANCH 41 57
ENDBRANCH 40 44
ENDBRANCH 20 40
ENDBRANCH 19 23
ENDBRANCH 1 19
TORSDOF 14
ENDMDL
MODEL 12
REMARK VINA RESULT:      -0.6      4.778     11.327
ROOT
ATOM      1  C1  A00 X   1      20.367   9.597  10.7360  0.00  0.00     0.000 C
ATOM      2  C2  A00 X   1      21.074  10.945  11.0410  0.00  0.00     0.000 C
ATOM      3  C3  A00 X   1      21.535  11.160  12.5200  0.00  0.00     0.000 C
ATOM      4  C4  A00 X   1      20.917  10.190  13.5600  0.00  0.00     0.000 C
ATOM      5  C5  A00 X   1      19.602   9.583  13.0730  0.00  0.00     0.000 C
ATOM      6  O5  A00 X   1      19.961   8.827  11.8940  0.00  0.00     0.000 O
ATOM      7   O  A00 X   1      21.169  12.477  12.9260  0.00  0.00     0.000 O
ATOM      9  HD  A00 X   1      21.000  11.948  13.5910  0.00  0.00     0.000 HD
ATOM      9   O  A00 X   1      21.829   9.150  13.9100  0.00  0.00     0.000 O
ATOM     11  HD  A00 X   1      21.660   8.621  14.5750  0.00  0.00     0.000 HD
ENDROOT
BRANCH 2 11
ATOM     11   O  A00 X   1      22.220  11.045  10.1730  0.00  0.00     0.000 O
ATOM     12   O  A00 X   1      23.902  12.731  10.4800  0.00  0.00     0.000 OA
ATOM     13   O  A00 X   1      21.635  13.402   9.9110  0.00  0.00     0.000 OA
ATOM     14   O  A00 X   1      22.984  12.251   8.3260  0.00  0.00     0.000 OA
ATOM     15   S  A00 X   1      22.707  12.464   9.7210  0.00  0.00     0.000 S
ENDBRANCH 2 11
BRANCH 5 16
ATOM     16   C  A00 X   1      18.472  10.589  12.8350  0.00  0.00     0.000 C
ATOM     17   O  A00 X   1      18.586  11.709  13.2890  0.00  0.00     0.000 OA
ATOM     18   O  A00 X   1      17.472  10.310  12.2030  0.00  0.00     0.000 OA
ENDBRANCH 5 16
BRANCH 1 19
ATOM     19  O4  A00 X   2      19.281   9.735   9.7870  0.00  0.00     0.000 O
BRANCH 19 23
ATOM     20  C1  A00 X   2      19.188  11.675   5.9660  0.00  0.00     0.000 C
ATOM     21  C2  A00 X   2      20.431  10.815   6.3010  0.00  0.00     0.000 C
ATOM     22  C3  A00 X   2      20.138   9.860   7.4760  0.00  0.00     0.000 C
ATOM     23  C4  A00 X   2      19.605  10.645   8.6960  0.00  0.00     0.000 C
ATOM     24  C5  A00 X   2      18.379  11.475   8.2270  0.00  0.00     0.000 C
ATOM     25  O5  A00 X   2      18.802  12.381   7.1760  0.00  0.00     0.000 O
ATOM     26   O  A00 X   2      21.296   9.038   7.7030  0.00  0.00     0.000 O
ATOM     28  HD  A00 X   2      21.835   9.716   7.7220  0.00  0.00     0.000 HD
BRANCH 21 30
ATOM     28   N  A00 X   2      20.721  10.847   4.8640  0.00  0.00     0.000 N
ATOM     30  HD  A00 X   2      21.473  10.974   5.2750  0.00  0.00     0.000 HD
ATOM     30   O  A00 X   2      23.027  10.600   4.5820  0.00  0.00     0.000 OA
ATOM     31   S  A00 X   2      22.028  11.586   4.3700  0.00  0.00     0.000 S
ATOM     32   O  A00 X   2      21.752  11.881   2.9980  0.00  0.00     0.000 OA
ATOM     33   O  A00 X   2      22.141  12.798   5.1270  0.00  0.00     0.000 OA
ENDBRANCH 21 30
BRANCH 24 34
ATOM     34   C  A00 X   2      17.520  12.174   9.3070  0.00  0.00     0.000 C
ATOM     35   O  A00 X   2      18.719  14.871  11.4390  0.00  0.00     0.000 OA
ATOM     36   O  A00 X   2      18.340  12.935  10.2160  0.00  0.00     0.000 O
ATOM     37   O  A00 X   2      18.776  14.930   9.0750  0.00  0.00     0.000 OA
ATOM     38   S  A00 X   2      18.064  14.483  10.2330  0.00  0.00     0.000 S
ATOM     39   O  A00 X   2      16.640  14.640  10.2390  0.00  0.00     0.000 OA
ENDBRANCH 24 34
BRANCH 20 40
ATOM     40  O4  A00 X   3      18.158  10.743   5.6060  0.00  0.00     0.000 O
BRANCH 40 44
ATOM     41  C1  A00 X   3      15.288   8.786   4.5780  0.00  0.00     0.000 C
ATOM     42  C2  A00 X   3      16.631   8.845   3.8180  0.00  0.00     0.000 C
ATOM     43  C3  A00 X   3      17.065  10.313   3.5710  0.00  0.00     0.000 C
ATOM     44  C4  A00 X   3      17.042  11.197   4.8110  0.00  0.00     0.000 C
ATOM     45  C5  A00 X   3      15.660  11.089   5.5160  0.00  0.00     0.000 C
ATOM     46  O5  A00 X   3      15.286   9.688   5.7190  0.00  0.00     0.000 O
ATOM     47   O  A00 X   3      18.252  10.490   2.7990  0.00  0.00     0.000 O
ATOM     49  HD  A00 X   3      18.392  11.127   3.3690  0.00  0.00     0.000 HD
BRANCH 42 49
ATOM     49   O  A00 X   3      17.601   8.135   4.6180  0.00  0.00     0.000 O
ATOM     50   O  A00 X   3      19.970   7.791   4.5690  0.00  0.00     0.000 OA
ATOM     51   O  A00 X   3      18.762   7.707   2.5380  0.00  0.00     0.000 OA
ATOM     52   O  A00 X   3      18.419   5.990   4.1250  0.00  0.00     0.000 OA
ATOM     53   S  A00 X   3      18.764   7.356   3.9360  0.00  0.00     0.000 S
ENDBRANCH 42 49
BRANCH 45 54
ATOM     54   C  A00 X   3      14.584  11.900   4.7850  0.00  0.00     0.000 C
ATOM     55   O  A00 X   3      14.849  12.500   3.7630  0.00  0.00     0.000 OA
ATOM     56   O  A00 X   3      13.444  11.960   5.2170  0.00  0.00     0.000 OA
ENDBRANCH 45 54
BRANCH 41 57
ATOM     57  O4  A00 X   4      14.163   8.964   3.6880  0.00  0.00     0.000 O
BRANCH 57 61
ATOM     58  C1  A00 X   4      10.166   7.333   3.6250  0.00  0.00     0.000 C
ATOM     59  C2  A00 X   4      10.559   8.287   4.7800  0.00  0.00     0.000 C
ATOM     60  C3  A00 X   4      11.856   9.077   4.5110  0.00  0.00     0.000 C
ATOM     61  C4  A00 X   4      12.991   8.160   4.0060  0.00  0.00     0.000 C
ATOM     62  C5  A00 X   4      12.455   7.466   2.7290  0.00  0.00     0.000 C
ATOM     63  O5  A00 X   4      11.312   6.643   3.0770  0.00  0.00     0.000 O
BRANCH 59 66
ATOM     64   N  A00 X   4      10.805   7.872   6.1730  0.00  0.00     0.000 N
ATOM     66  HD  A00 X   4      11.218   7.121   6.3000  0.00  0.00     0.000 HD
ATOM     66   O  A00 X   4       8.436   7.490   6.3720  0.00  0.00     0.000 OA
ATOM     67   S  A00 X   4       9.564   7.830   7.1810  0.00  0.00     0.000 S
ATOM     68   O  A00 X   4      10.002   6.810   8.0890  0.00  0.00     0.000 OA
ATOM     69   O  A00 X   4       9.627   9.160   7.7160  0.00  0.00     0.000 OA
ENDBRANCH 59 66
BRANCH 62 70
ATOM     70   C  A00 X   4      13.497   6.580   2.0060  0.00  0.00     0.000 C
ATOM     71   O  A00 X   4      14.888   3.408   3.0600  0.00  0.00     0.000 OA
ATOM     72   O  A00 X   4      15.944   5.362   2.2780  0.00  0.00     0.000 OA
ATOM     73   O  A00 X   4      13.570   5.303   2.6600  0.00  0.00     0.000 O
ATOM     74   O  A00 X   4      15.065   5.296   4.5500  0.00  0.00     0.000 OA
ATOM     75   S  A00 X   4      14.965   4.835   3.2030  0.00  0.00     0.000 S
ENDBRANCH 62 70
ENDBRANCH 57 61
ENDBRANCH 41 57
ENDBRANCH 40 44
ENDBRANCH 20 40
ENDBRANCH 19 23
ENDBRANCH 1 19
TORSDOF 14
ENDMDL
MODEL 13
REMARK VINA RESULT:      -0.5      4.737      9.648
ROOT
ATOM      1  C1  A00 X   1      14.305  15.144   6.6000  0.00  0.00     0.000 C
ATOM      2  C2  A00 X   1      14.022  15.557   5.1310  0.00  0.00     0.000 C
ATOM      3  C3  A00 X   1      13.106  16.809   4.9330  0.00  0.00     0.000 C
ATOM      4  C4  A00 X   1      12.306  17.256   6.1840  0.00  0.00     0.000 C
ATOM      5  C5  A00 X   1      12.126  16.119   7.1900  0.00  0.00     0.000 C
ATOM      6  O5  A00 X   1      13.469  15.777   7.6000  0.00  0.00     0.000 O
ATOM      7   O  A00 X   1      12.146  16.519   3.9200  0.00  0.00     0.000 O
ATOM      9  HD  A00 X   1      11.732  16.947   4.5490  0.00  0.00     0.000 HD
ATOM      9   O  A00 X   1      12.918  18.375   6.8240  0.00  0.00     0.000 O
ATOM     11  HD  A00 X   1      12.504  18.804   7.4520  0.00  0.00     0.000 HD
ENDROOT
BRANCH 2 11
ATOM     11   O  A00 X   1      15.291  15.798   4.4910  0.00  0.00     0.000 O
ATOM     12   O  A00 X   1      15.444  16.763   2.2970  0.00  0.00     0.000 OA
ATOM     13   O  A00 X   1      14.388  14.588   2.5700  0.00  0.00     0.000 OA
ATOM     14   O  A00 X   1      16.727  14.844   2.9170  0.00  0.00     0.000 OA
ATOM     15   S  A00 X   1      15.441  15.484   2.9630  0.00  0.00     0.000 S
ENDBRANCH 2 11
BRANCH 5 16
ATOM     16   C  A00 X   1      11.317  14.923   6.6790  0.00  0.00     0.000 C
ATOM     17   O  A00 X   1      10.631  15.066   5.6890  0.00  0.00     0.000 OA
ATOM     18   O  A00 X   1      11.344  13.837   7.2250  0.00  0.00     0.000 OA
ENDBRANCH 5 16
BRANCH 1 19
ATOM     19  O4  A00 X   2      14.348  13.707   6.7800  0.00  0.00     0.000 O
BRANCH 19 23
ATOM     20  C1  A00 X   2      17.666  11.046   7.3060  0.00  0.00     0.000 C
ATOM     21  C2  A00 X   2      17.600  12.294   8.2190  0.00  0.00     0.000 C
ATOM     22  C3  A00 X   2      16.180  12.898   8.2220  0.00  0.00     0.000 C
ATOM     23  C4  A00 X   2      15.708  13.184   6.7780  0.00  0.00     0.000 C
ATOM     24  C5  A00 X   2      15.840  11.867   5.9660  0.00  0.00     0.000 C
ATOM     25  O5  A00 X   2      17.229  11.446   5.9800  0.00  0.00     0.000 O
ATOM     26   O  A00 X   2      16.153  14.009   9.1340  0.00  0.00     0.000 O
ATOM     28  HD  A00 X   2      16.858  14.374   8.7900  0.00  0.00     0.000 HD
BRANCH 21 30
ATOM     28   N  A00 X   2      17.658  12.512   9.6680  0.00  0.00     0.000 N
ATOM     30  HD  A00 X   2      18.476  12.477   9.3860  0.00  0.00     0.000 HD
ATOM     30   O  A00 X   2      19.815  13.230  10.2090  0.00  0.00     0.000 OA
ATOM     31   S  A00 X   2      18.976  12.108  10.4430  0.00  0.00     0.000 S
ATOM     32   O  A00 X   2      18.539  11.952  11.7960  0.00  0.00     0.000 OA
ATOM     33   O  A00 X   2      19.410  10.850   9.9130  0.00  0.00     0.000 OA
ENDBRANCH 21 30
BRANCH 24 34
ATOM     34   C  A00 X   2      15.217  11.822   4.5510  0.00  0.00     0.000 C
ATOM     35   O  A00 X   2      16.839  10.327   1.6540  0.00  0.00     0.000 OA
ATOM     36   O  A00 X   2      16.208  11.502   3.5540  0.00  0.00     0.000 O
ATOM     37   O  A00 X   2      16.430   9.177   3.6800  0.00  0.00     0.000 OA
ATOM     38   S  A00 X   2      15.955  10.167   2.7620  0.00  0.00     0.000 S
ATOM     39   O  A00 X   2      14.563  10.150   2.4300  0.00  0.00     0.000 OA
ENDBRANCH 24 34
BRANCH 20 40
ATOM     40  O4  A00 X   3      16.728  10.111   7.8590  0.00  0.00     0.000 O
BRANCH 40 44
ATOM     41  C1  A00 X   3      14.376   7.433   8.5060  0.00  0.00     0.000 C
ATOM     42  C2  A00 X   3      15.291   8.077   9.5700  0.00  0.00     0.000 C
ATOM     43  C3  A00 X   3      16.765   8.109   9.0880  0.00  0.00     0.000 C
ATOM     44  C4  A00 X   3      16.963   8.696   7.6960  0.00  0.00     0.000 C
ATOM     45  C5  A00 X   3      16.013   7.995   6.6840  0.00  0.00     0.000 C
ATOM     46  O5  A00 X   3      14.637   7.978   7.1840  0.00  0.00     0.000 O
ATOM     47   O  A00 X   3      17.716   8.605  10.0280  0.00  0.00     0.000 O
ATOM     49  HD  A00 X   3      18.058   8.969   9.3200  0.00  0.00     0.000 HD
BRANCH 42 49
ATOM     49   O  A00 X   3      14.786   9.408   9.8140  0.00  0.00     0.000 O
ATOM     50   O  A00 X   3      15.355  11.243  11.2420  0.00  0.00     0.000 OA
ATOM     51   O  A00 X   3      15.419   9.049  12.1220  0.00  0.00     0.000 OA
ATOM     52   O  A00 X   3      13.319   9.976  11.5570  0.00  0.00     0.000 OA
ATOM     53   S  A00 X   3      14.711   9.967  11.2650  0.00  0.00     0.000 S
ENDBRANCH 42 49
BRANCH 45 54
ATOM     54   C  A00 X   3      16.529   6.606   6.2900  0.00  0.00     0.000 C
ATOM     55   O  A00 X   3      17.513   6.137   6.8240  0.00  0.00     0.000 OA
ATOM     56   O  A00 X   3      15.961   5.949   5.4310  0.00  0.00     0.000 OA
ENDBRANCH 45 54
BRANCH 41 57
ATOM     57  O4  A00 X   4      14.421   5.990   8.5660  0.00  0.00     0.000 O
BRANCH 57 61
ATOM     58  C1  A00 X   4      11.491   3.084   7.2980  0.00  0.00     0.000 C
ATOM     59  C2  A00 X   4      12.853   3.133   6.5620  0.00  0.00     0.000 C
ATOM     60  C3  A00 X   4      13.930   3.939   7.3160  0.00  0.00     0.000 C
ATOM     61  C4  A00 X   4      13.395   5.307   7.7910  0.00  0.00     0.000 C
ATOM     62  C5  A00 X   4      12.162   5.007   8.6800  0.00  0.00     0.000 C
ATOM     63  O5  A00 X   4      11.141   4.362   7.8770  0.00  0.00     0.000 O
BRANCH 59 66
ATOM     64   N  A00 X   4      13.700   2.098   5.9420  0.00  0.00     0.000 N
ATOM     66  HD  A00 X   4      14.396   2.363   5.5000  0.00  0.00     0.000 HD
ATOM     66   O  A00 X   4      11.906   1.704   4.3850  0.00  0.00     0.000 OA
ATOM     67   S  A00 X   4      13.002   1.016   4.9930  0.00  0.00     0.000 S
ATOM     68   O  A00 X   4      14.093   0.699   4.1180  0.00  0.00     0.000 OA
ATOM     69   O  A00 X   4      12.702  -0.007   5.9530  0.00  0.00     0.000 OA
ENDBRANCH 59 66
BRANCH 62 70
ATOM     70   C  A00 X   4      11.545   6.260   9.3470  0.00  0.00     0.000 C
ATOM     71   O  A00 X   4       9.252   8.677   7.9310  0.00  0.00     0.000 OA
ATOM     72   O  A00 X   4      11.262   8.982   9.1190  0.00  0.00     0.000 OA
ATOM     73   O  A00 X   4      10.506   6.783   8.5030  0.00  0.00     0.000 O
ATOM     74   O  A00 X   4      11.336   8.262   6.7920  0.00  0.00     0.000 OA
ATOM     75   S  A00 X   4      10.626   8.273   8.0300  0.00  0.00     0.000 S
ENDBRANCH 62 70
ENDBRANCH 57 61
ENDBRANCH 41 57
ENDBRANCH 40 44
ENDBRANCH 20 40
ENDBRANCH 19 23
ENDBRANCH 1 19
TORSDOF 14
ENDMDL
MODEL 14
REMARK VINA RESULT:      -0.4      5.939     10.564
ROOT
ATOM      1  C1  A00 X   1      14.388  10.757   3.0990  0.00  0.00     0.000 C
ATOM      2  C2  A00 X   1      14.876   9.326   3.4480  0.00  0.00     0.000 C
ATOM      3  C3  A00 X   1      14.566   8.217   2.3880  0.00  0.00     0.000 C
ATOM      4  C4  A00 X   1      13.510   8.593   1.3170  0.00  0.00     0.000 C
ATOM      5  C5  A00 X   1      12.587   9.718   1.7860  0.00  0.00     0.000 C
ATOM      6  O5  A00 X   1      13.463  10.850   1.9880  0.00  0.00     0.000 O
ATOM      7   O  A00 X   1      14.066   7.066   3.0640  0.00  0.00     0.000 O
ATOM      9  HD  A00 X   1      13.590   7.169   2.3480  0.00  0.00     0.000 HD
ATOM      9   O  A00 X   1      14.126   8.957   0.0820  0.00  0.00     0.000 O
ATOM     11  HD  A00 X   1      13.650   9.060  -0.6340  0.00  0.00     0.000 HD
ENDROOT
BRANCH 2 11
ATOM     11   O  A00 X   1      16.300   9.387   3.6600  0.00  0.00     0.000 O
ATOM     12   O  A00 X   1      17.574  11.361   3.1610  0.00  0.00     0.000 OA
ATOM     13   O  A00 X   1      16.464  10.173   1.3520  0.00  0.00     0.000 OA
ATOM     14   O  A00 X   1      18.309   9.189   2.4860  0.00  0.00     0.000 OA
ATOM     15   S  A00 X   1      17.196  10.095   2.5860  0.00  0.00     0.000 S
ENDBRANCH 2 11
BRANCH 5 16
ATOM     16   C  A00 X   1      11.726   9.383   3.0080  0.00  0.00     0.000 C
ATOM     17   O  A00 X   1      11.130  10.283   3.5630  0.00  0.00     0.000 OA
ATOM     18   O  A00 X   1      11.614   8.251   3.4360  0.00  0.00     0.000 OA
ENDBRANCH 5 16
BRANCH 1 19
ATOM     19  O4  A00 X   2      13.899  11.480   4.2560  0.00  0.00     0.000 O
BRANCH 19 23
ATOM     20  C1  A00 X   2      15.075  15.224   5.9770  0.00  0.00     0.000 C
ATOM     21  C2  A00 X   2      14.399  15.259   4.5850  0.00  0.00     0.000 C
ATOM     22  C3  A00 X   2      13.659  13.935   4.3010  0.00  0.00     0.000 C
ATOM     23  C4  A00 X   2      14.612  12.731   4.4750  0.00  0.00     0.000 C
ATOM     24  C5  A00 X   2      15.235  12.821   5.8950  0.00  0.00     0.000 C
ATOM     25  O5  A00 X   2      15.961  14.073   6.0080  0.00  0.00     0.000 O
ATOM     26   O  A00 X   2      12.993  14.043   3.0310  0.00  0.00     0.000 O
ATOM     28  HD  A00 X   2      13.705  14.324   2.6250  0.00  0.00     0.000 HD
BRANCH 21 30
ATOM     28   N  A00 X   2      15.259  16.395   4.2370  0.00  0.00     0.000 N
ATOM     30  HD  A00 X   2      14.620  16.376   3.6530  0.00  0.00     0.000 HD
ATOM     30   O  A00 X   2      14.081  17.774   2.7640  0.00  0.00     0.000 OA
ATOM     31   S  A00 X   2      15.231  16.941   2.7540  0.00  0.00     0.000 S
ATOM     32   O  A00 X   2      16.477  17.632   2.6240  0.00  0.00     0.000 OA
ATOM     33   O  A00 X   2      15.201  15.802   1.8840  0.00  0.00     0.000 OA
ENDBRANCH 21 30
BRANCH 24 34
ATOM     34   C  A00 X   2      16.050  11.611   6.4080  0.00  0.00     0.000 C
ATOM     35   O  A00 X   2      14.923   9.358   9.0370  0.00  0.00     0.000 OA
ATOM     36   O  A00 X   2      15.534  11.127   7.6640  0.00  0.00     0.000 O
ATOM     37   O  A00 X   2      13.694   9.812   7.0690  0.00  0.00     0.000 OA
ATOM     38   S  A00 X   2      14.994   9.650   7.6430  0.00  0.00     0.000 S
ATOM     39   O  A00 X   2      15.953   8.879   6.9100  0.00  0.00     0.000 OA
ENDBRANCH 24 34
BRANCH 20 40
ATOM     40  O4  A00 X   3      14.011  15.036   6.9210  0.00  0.00     0.000 O
BRANCH 40 44
ATOM     41  C1  A00 X   3      12.199  13.851   9.8250  0.00  0.00     0.000 C
ATOM     42  C2  A00 X   3      11.727  14.992   8.8980  0.00  0.00     0.000 C
ATOM     43  C3  A00 X   3      12.848  16.043   8.6960  0.00  0.00     0.000 C
ATOM     44  C4  A00 X   3      14.195  15.461   8.2880  0.00  0.00     0.000 C
ATOM     45  C5  A00 X   3      14.604  14.326   9.2680  0.00  0.00     0.000 C
ATOM     46  O5  A00 X   3      13.513  13.363   9.4370  0.00  0.00     0.000 O
ATOM     47   O  A00 X   3      12.495  17.190   7.9260  0.00  0.00     0.000 O
ATOM     49  HD  A00 X   3      13.297  17.089   7.6150  0.00  0.00     0.000 HD
BRANCH 42 49
ATOM     49   O  A00 X   3      11.338  14.386   7.6460  0.00  0.00     0.000 O
ATOM     50   O  A00 X   3      10.546  15.155   5.5220  0.00  0.00     0.000 OA
ATOM     51   O  A00 X   3       9.694  16.155   7.4870  0.00  0.00     0.000 OA
ATOM     52   O  A00 X   3       9.124  13.908   7.0280  0.00  0.00     0.000 OA
ATOM     53   S  A00 X   3      10.106  14.923   6.8610  0.00  0.00     0.000 S
ENDBRANCH 42 49
BRANCH 45 54
ATOM     54   C  A00 X   3      15.127  14.884  10.5970  0.00  0.00     0.000 C
ATOM     55   O  A00 X   3      15.751  14.178  11.3620  0.00  0.00     0.000 OA
ATOM     56   O  A00 X   3      14.924  16.047  10.9100  0.00  0.00     0.000 OA
ENDBRANCH 45 54
BRANCH 41 57
ATOM     57  O4  A00 X   4      12.097  14.218  11.2190  0.00  0.00     0.000 O
BRANCH 57 61
ATOM     58  C1  A00 X   4      11.797  11.800  14.7830  0.00  0.00     0.000 C
ATOM     59  C2  A00 X   4      13.147  12.492  14.4680  0.00  0.00     0.000 C
ATOM     60  C3  A00 X   4      13.037  13.596  13.3970  0.00  0.00     0.000 C
ATOM     61  C4  A00 X   4      12.244  13.118  12.1610  0.00  0.00     0.000 C
ATOM     62  C5  A00 X   4      10.856  12.668  12.6810  0.00  0.00     0.000 C
ATOM     63  O5  A00 X   4      11.026  11.548  13.5860  0.00  0.00     0.000 O
BRANCH 59 66
ATOM     64   N  A00 X   4      14.337  13.020  15.1600  0.00  0.00     0.000 N
ATOM     66  HD  A00 X   4      15.042  13.174  14.6820  0.00  0.00     0.000 HD
ATOM     66   O  A00 X   4      14.568  10.860  16.1980  0.00  0.00     0.000 OA
ATOM     67   S  A00 X   4      14.878  12.234  16.4440  0.00  0.00     0.000 S
ATOM     68   O  A00 X   4      16.270  12.572  16.3860  0.00  0.00     0.000 OA
ATOM     69   O  A00 X   4      14.150  12.909  17.4800  0.00  0.00     0.000 OA
ENDBRANCH 59 66
BRANCH 62 70
ATOM     70   C  A00 X   4       9.868  12.253  11.5650  0.00  0.00     0.000 C
ATOM     71   O  A00 X   4       9.670   9.114   9.7720  0.00  0.00     0.000 OA
ATOM     72   O  A00 X   4       9.696  11.332   8.9830  0.00  0.00     0.000 OA
ATOM     73   O  A00 X   4       9.994  10.843  11.3190  0.00  0.00     0.000 O
ATOM     74   O  A00 X   4      11.763  10.311   9.7720  0.00  0.00     0.000 OA
ATOM     75   S  A00 X   4      10.340  10.381   9.8610  0.00  0.00     0.000 S
ENDBRANCH 62 70
ENDBRANCH 57 61
ENDBRANCH 41 57
ENDBRANCH 40 44
ENDBRANCH 20 40
ENDBRANCH 19 23
ENDBRANCH 1 19
TORSDOF 14
ENDMDL
MODEL 15
REMARK VINA RESULT:      -0.3      7.350     13.561
ROOT
ATOM      1  C1  A00 X   1      23.400  12.311  12.7430  0.00  0.00     0.000 C
ATOM      2  C2  A00 X   1      22.065  12.781  13.3790  0.00  0.00     0.000 C
ATOM      3  C3  A00 X   1      21.892  12.491  14.9060  0.00  0.00     0.000 C
ATOM      4  C4  A00 X   1      22.885  11.464  15.5090  0.00  0.00     0.000 C
ATOM      5  C5  A00 X   1      23.473  10.537  14.4450  0.00  0.00     0.000 C
ATOM      6  O5  A00 X   1      24.199  11.414  13.5540  0.00  0.00     0.000 O
ATOM      7   O  A00 X   1      20.584  11.967  15.1270  0.00  0.00     0.000 O
ATOM      9  HD  A00 X   1      21.129  11.509  15.6200  0.00  0.00     0.000 HD
ATOM      9   O  A00 X   1      23.939  12.113  16.2190  0.00  0.00     0.000 O
ATOM     11  HD  A00 X   1      24.484  11.655  16.7130  0.00  0.00     0.000 HD
ENDROOT
BRANCH 2 11
ATOM     11   O  A00 X   1      21.948  14.200  13.1550  0.00  0.00     0.000 O
ATOM     12   O  A00 X   1      20.220  15.511  14.1850  0.00  0.00     0.000 OA
ATOM     13   O  A00 X   1      19.609  13.772  12.5970  0.00  0.00     0.000 OA
ATOM     14   O  A00 X   1      20.746  15.729  11.8640  0.00  0.00     0.000 OA
ATOM     15   S  A00 X   1      20.523  14.821  12.9560  0.00  0.00     0.000 S
ENDBRANCH 2 11
BRANCH 5 16
ATOM     16   C  A00 X   1      22.454   9.644  13.7290  0.00  0.00     0.000 C
ATOM     17   O  A00 X   1      22.827   8.977  12.7860  0.00  0.00     0.000 OA
ATOM     18   O  A00 X   1      21.292   9.574  14.0760  0.00  0.00     0.000 OA
ENDBRANCH 5 16
BRANCH 1 19
ATOM     19  O4  A00 X   2      23.231  11.797  11.3990  0.00  0.00     0.000 O
BRANCH 19 23
ATOM     20  C1  A00 X   2      23.599  13.747   7.6000  0.00  0.00     0.000 C
ATOM     21  C2  A00 X   2      24.738  13.960   8.6260  0.00  0.00     0.000 C
ATOM     22  C3  A00 X   2      24.689  12.887   9.7330  0.00  0.00     0.000 C
ATOM     23  C4  A00 X   2      23.291  12.845  10.3890  0.00  0.00     0.000 C
ATOM     24  C5  A00 X   2      22.242  12.646   9.2600  0.00  0.00     0.000 C
ATOM     25  O5  A00 X   2      22.342  13.755   8.3290  0.00  0.00     0.000 O
ATOM     26   O  A00 X   2      25.804  13.086  10.6190  0.00  0.00     0.000 O
ATOM     28  HD  A00 X   2      25.635  13.929  10.7220  0.00  0.00     0.000 HD
BRANCH 21 30
ATOM     28   N  A00 X   2      26.197  13.816   8.6530  0.00  0.00     0.000 N
ATOM     30  HD  A00 X   2      26.028  14.587   8.2960  0.00  0.00     0.000 HD
ATOM     30   O  A00 X   2      27.142  15.925   8.3110  0.00  0.00     0.000 OA
ATOM     31   S  A00 X   2      27.063  14.673   7.6460  0.00  0.00     0.000 S
ATOM     32   O  A00 X   2      28.296  13.954   7.5620  0.00  0.00     0.000 OA
ATOM     33   O  A00 X   2      26.388  14.652   6.3820  0.00  0.00     0.000 OA
ENDBRANCH 21 30
BRANCH 24 34
ATOM     34   C  A00 X   2      20.782  12.342   9.6710  0.00  0.00     0.000 C
ATOM     35   O  A00 X   2      19.013   9.282   8.7990  0.00  0.00     0.000 OA
ATOM     36   O  A00 X   2      20.240  11.249   8.9030  0.00  0.00     0.000 O
ATOM     37   O  A00 X   2      21.080   9.332   9.9470  0.00  0.00     0.000 OA
ATOM     38   S  A00 X   2      19.823   9.984   9.7390  0.00  0.00     0.000 S
ATOM     39   O  A00 X   2      19.130  10.472  10.8930  0.00  0.00     0.000 OA
ENDBRANCH 24 34
BRANCH 20 40
ATOM     40  O4  A00 X   3      23.820  12.444   7.0400  0.00  0.00     0.000 O
BRANCH 40 44
ATOM     41  C1  A00 X   3      23.496   9.183   5.4950  0.00  0.00     0.000 C
ATOM     42  C2  A00 X   3      24.795  10.018   5.5260  0.00  0.00     0.000 C
ATOM     43  C3  A00 X   3      24.538  11.464   5.0300  0.00  0.00     0.000 C
ATOM     44  C4  A00 X   3      23.362  12.164   5.7000  0.00  0.00     0.000 C
ATOM     45  C5  A00 X   3      22.095  11.267   5.6240  0.00  0.00     0.000 C
ATOM     46  O5  A00 X   3      22.386   9.910   6.0920  0.00  0.00     0.000 O
ATOM     47   O  A00 X   3      25.687  12.303   4.9330  0.00  0.00     0.000 O
ATOM     49  HD  A00 X   3      25.137  12.900   5.2340  0.00  0.00     0.000 HD
BRANCH 42 49
ATOM     49   O  A00 X   3      25.274  10.004   6.8880  0.00  0.00     0.000 O
ATOM     50   O  A00 X   3      27.141  10.916   8.0770  0.00  0.00     0.000 OA
ATOM     51   O  A00 X   3      27.498   9.984   5.9340  0.00  0.00     0.000 OA
ATOM     52   O  A00 X   3      26.913   8.537   7.7080  0.00  0.00     0.000 OA
ATOM     53   S  A00 X   3      26.795   9.854   7.1850  0.00  0.00     0.000 S
ENDBRANCH 42 49
BRANCH 45 54
ATOM     54   C  A00 X   3      21.458  11.300   4.2290  0.00  0.00     0.000 C
ATOM     55   O  A00 X   3      21.879  12.054   3.3750  0.00  0.00     0.000 OA
ATOM     56   O  A00 X   3      20.517  10.572   3.9540  0.00  0.00     0.000 OA
ENDBRANCH 45 54
BRANCH 41 57
ATOM     57  O4  A00 X   4      23.220   8.674   4.1710  0.00  0.00     0.000 O
BRANCH 57 61
ATOM     58  C1  A00 X   4      21.826   4.854   2.7210  0.00  0.00     0.000 C
ATOM     59  C2  A00 X   4      20.779   5.908   3.1570  0.00  0.00     0.000 C
ATOM     60  C3  A00 X   4      21.362   7.328   3.3070  0.00  0.00     0.000 C
ATOM     61  C4  A00 X   4      22.668   7.327   4.1290  0.00  0.00     0.000 C
ATOM     62  C5  A00 X   4      23.643   6.371   3.3980  0.00  0.00     0.000 C
ATOM     63  O5  A00 X   4      23.089   5.030   3.4030  0.00  0.00     0.000 O
BRANCH 59 66
ATOM     64   N  A00 X   4      20.296   5.496   4.4870  0.00  0.00     0.000 N
ATOM     66  HD  A00 X   4      20.827   5.014   4.9730  0.00  0.00     0.000 HD
ATOM     66   O  A00 X   4      18.747   4.036   3.3630  0.00  0.00     0.000 OA
ATOM     67   S  A00 X   4      18.877   4.765   4.5850  0.00  0.00     0.000 S
ATOM     68   O  A00 X   4      19.078   3.968   5.7610  0.00  0.00     0.000 OA
ATOM     69   O  A00 X   4      18.021   5.900   4.7830  0.00  0.00     0.000 OA
ENDBRANCH 59 66
BRANCH 62 70
ATOM     70   C  A00 X   4      25.060   6.319   4.0160  0.00  0.00     0.000 C
ATOM     71   O  A00 X   4      28.003   4.606   2.7850  0.00  0.00     0.000 OA
ATOM     72   O  A00 X   4      27.023   4.628   4.9270  0.00  0.00     0.000 OA
ATOM     73   O  A00 X   4      25.970   5.736   3.0690  0.00  0.00     0.000 O
ATOM     74   O  A00 X   4      25.990   3.327   3.1430  0.00  0.00     0.000 OA
ATOM     75   S  A00 X   4      26.773   4.463   3.5120  0.00  0.00     0.000 S
ENDBRANCH 62 70
ENDBRANCH 57 61
ENDBRANCH 41 57
ENDBRANCH 40 44
ENDBRANCH 20 40
ENDBRANCH 19 23
ENDBRANCH 1 19
TORSDOF 14
ENDMDL
MODEL 16
REMARK VINA RESULT:      -0.2     35.541     43.004
ROOT
ATOM      1  C1  A00 X   1      56.163  18.726  11.2710  0.00  0.00     0.000 C
ATOM      2  C2  A00 X   1      56.841  18.560  12.6580  0.00  0.00     0.000 C
ATOM      3  C3  A00 X   1      55.883  18.274  13.8610  0.00  0.00     0.000 C
ATOM      4  C4  A00 X   1      54.380  18.552  13.6010  0.00  0.00     0.000 C
ATOM      5  C5  A00 X   1      54.167  19.541  12.4550  0.00  0.00     0.000 C
ATOM      6  O5  A00 X   1      54.722  18.883  11.2940  0.00  0.00     0.000 O
ATOM      7   O  A00 X   1      56.265  19.103  14.9560  0.00  0.00     0.000 O
ATOM      9  HD  A00 X   1      55.399  19.103  14.9260  0.00  0.00     0.000 HD
ATOM      9   O  A00 X   1      53.664  17.346  13.3380  0.00  0.00     0.000 O
ATOM     11  HD  A00 X   1      52.799  17.346  13.3070  0.00  0.00     0.000 HD
ENDROOT
BRANCH 2 11
ATOM     11   O  A00 X   1      57.796  17.487  12.5530  0.00  0.00     0.000 O
ATOM     12   O  A00 X   1      58.949  16.621  14.4730  0.00  0.00     0.000 OA
ATOM     13   O  A00 X   1      59.331  18.925  13.7950  0.00  0.00     0.000 OA
ATOM     14   O  A00 X   1      60.101  17.127  12.4410  0.00  0.00     0.000 OA
ATOM     15   S  A00 X   1      59.116  17.562  13.3950  0.00  0.00     0.000 S
ENDBRANCH 2 11
BRANCH 5 16
ATOM     16   C  A00 X   1      54.735  20.944  12.6940  0.00  0.00     0.000 C
ATOM     17   O  A00 X   1      54.794  21.714  11.7580  0.00  0.00     0.000 OA
ATOM     18   O  A00 X   1      55.121  21.313  13.7860  0.00  0.00     0.000 OA
ENDBRANCH 5 16
BRANCH 1 19
ATOM     19  O4  A00 X   2      56.792  19.745  10.4570  0.00  0.00     0.000 O
BRANCH 19 23
ATOM     20  C1  A00 X   2      56.431  17.499   6.8250  0.00  0.00     0.000 C
ATOM     21  C2  A00 X   2      57.791  17.449   7.5640  0.00  0.00     0.000 C
ATOM     22  C3  A00 X   2      57.640  17.924   9.0240  0.00  0.00     0.000 C
ATOM     23  C4  A00 X   2      56.979  19.320   9.0770  0.00  0.00     0.000 C
ATOM     24  C5  A00 X   2      55.643  19.242   8.2900  0.00  0.00     0.000 C
ATOM     25  O5  A00 X   2      55.929  18.858   6.9190  0.00  0.00     0.000 O
ATOM     26   O  A00 X   2      58.910  17.794   9.6850  0.00  0.00     0.000 O
ATOM     28  HD  A00 X   2      59.336  18.212   9.0570  0.00  0.00     0.000 HD
BRANCH 21 30
ATOM     28   N  A00 X   2      58.454  17.375   6.2590  0.00  0.00     0.000 N
ATOM     30  HD  A00 X   2      59.039  17.137   6.8520  0.00  0.00     0.000 HD
ATOM     30   O  A00 X   2      60.404  16.111   6.5050  0.00  0.00     0.000 OA
ATOM     31   S  A00 X   2      60.033  17.448   6.2050  0.00  0.00     0.000 S
ATOM     32   O  A00 X   2      60.307  17.865   4.8650  0.00  0.00     0.000 OA
ATOM     33   O  A00 X   2      60.441  18.460   7.1340  0.00  0.00     0.000 OA
ENDBRANCH 21 30
BRANCH 24 34
ATOM     34   C  A00 X   2      54.675  20.446   8.3830  0.00  0.00     0.000 C
ATOM     35   O  A00 X   2      53.745  22.540   5.5530  0.00  0.00     0.000 OA
ATOM     36   O  A00 X   2      54.771  21.285   7.2150  0.00  0.00     0.000 O
ATOM     37   O  A00 X   2      53.475  20.191   5.6030  0.00  0.00     0.000 OA
ATOM     38   S  A00 X   2      53.454  21.403   6.3640  0.00  0.00     0.000 S
ATOM     39   O  A00 X   2      52.383  21.582   7.2970  0.00  0.00     0.000 OA
ENDBRANCH 24 34
BRANCH 20 40
ATOM     40  O4  A00 X   3      55.563  16.615   7.5500  0.00  0.00     0.000 O
BRANCH 40 44
ATOM     41  C1  A00 X   3      52.290  16.072   9.0030  0.00  0.00     0.000 C
ATOM     42  C2  A00 X   3      53.466  15.075   9.0860  0.00  0.00     0.000 C
ATOM     43  C3  A00 X   3      54.067  14.809   7.6820  0.00  0.00     0.000 C
ATOM     44  C4  A00 X   3      54.404  16.065   6.8880  0.00  0.00     0.000 C
ATOM     45  C5  A00 X   3      53.173  17.013   6.8460  0.00  0.00     0.000 C
ATOM     46  O5  A00 X   3      52.632  17.228   8.1900  0.00  0.00     0.000 O
ATOM     47   O  A00 X   3      55.107  13.834   7.6240  0.00  0.00     0.000 O
ATOM     49  HD  A00 X   3      55.444  14.391   7.0530  0.00  0.00     0.000 HD
BRANCH 42 49
ATOM     49   O  A00 X   3      54.445  15.648   9.9790  0.00  0.00     0.000 O
ATOM     50   O  A00 X   3      56.619  15.049  10.7820  0.00  0.00     0.000 OA
ATOM     51   O  A00 X   3      54.963  13.370  10.6110  0.00  0.00     0.000 OA
ATOM     52   O  A00 X   3      54.690  15.061  12.2400  0.00  0.00     0.000 OA
ATOM     53   S  A00 X   3      55.236  14.741  10.9660  0.00  0.00     0.000 S
ENDBRANCH 42 49
BRANCH 45 54
ATOM     54   C  A00 X   3      52.119  16.532   5.8420  0.00  0.00     0.000 C
ATOM     55   O  A00 X   3      52.222  15.444   5.3110  0.00  0.00     0.000 OA
ATOM     56   O  A00 X   3      51.161  17.232   5.5560  0.00  0.00     0.000 OA
ENDBRANCH 45 54
BRANCH 41 57
ATOM     57  O4  A00 X   4      51.063  15.419   8.6080  0.00  0.00     0.000 O
BRANCH 57 61
ATOM     58  C1  A00 X   4      46.919  16.092   9.6150  0.00  0.00     0.000 C
ATOM     59  C2  A00 X   4      47.699  17.220   8.8950  0.00  0.00     0.000 C
ATOM     60  C3  A00 X   4      49.029  16.747   8.2730  0.00  0.00     0.000 C
ATOM     61  C4  A00 X   4      49.861  15.909   9.2680  0.00  0.00     0.000 C
ATOM     62  C5  A00 X   4      48.963  14.722   9.6960  0.00  0.00     0.000 C
ATOM     63  O5  A00 X   4      47.793  15.234  10.3840  0.00  0.00     0.000 O
BRANCH 59 66
ATOM     64   N  A00 X   4      48.073  18.285   9.8430  0.00  0.00     0.000 N
ATOM     66  HD  A00 X   4      48.187  18.061  10.6710  0.00  0.00     0.000 HD
ATOM     66   O  A00 X   4      45.844  19.159   9.5840  0.00  0.00     0.000 OA
ATOM     67   S  A00 X   4      47.166  19.602   9.8980  0.00  0.00     0.000 S
ATOM     68   O  A00 X   4      47.376  20.003  11.2580  0.00  0.00     0.000 OA
ATOM     69   O  A00 X   4      47.846  20.418   8.9320  0.00  0.00     0.000 OA
ENDBRANCH 59 66
BRANCH 62 70
ATOM     70   C  A00 X   4      49.666  13.698  10.6180  0.00  0.00     0.000 C
ATOM     71   O  A00 X   4      50.714  14.099  14.0600  0.00  0.00     0.000 OA
ATOM     72   O  A00 X   4      51.882  13.280  12.1870  0.00  0.00     0.000 OA
ATOM     73   O  A00 X   4      49.668  14.195  11.9660  0.00  0.00     0.000 O
ATOM     74   O  A00 X   4      51.513  15.677  12.4210  0.00  0.00     0.000 OA
ATOM     75   S  A00 X   4      51.052  14.353  12.6880  0.00  0.00     0.000 S
ENDBRANCH 62 70
ENDBRANCH 57 61
ENDBRANCH 41 57
ENDBRANCH 40 44
ENDBRANCH 20 40
ENDBRANCH 19 23
ENDBRANCH 1 19
TORSDOF 14
ENDMDL
MODEL 17
REMARK VINA RESULT:      -0.2     45.945     51.106
ROOT
ATOM      1  C1  A00 X   1      50.042  27.455  32.7730  0.00  0.00     0.000 C
ATOM      2  C2  A00 X   1      48.945  28.079  33.6760  0.00  0.00     0.000 C
ATOM      3  C3  A00 X   1      49.030  29.626  33.8910  0.00  0.00     0.000 C
ATOM      4  C4  A00 X   1      50.377  30.284  33.4940  0.00  0.00     0.000 C
ATOM      5  C5  A00 X   1      51.529  29.279  33.4870  0.00  0.00     0.000 C
ATOM      6  O5  A00 X   1      51.169  28.315  32.4720  0.00  0.00     0.000 O
ATOM      7   O  A00 X   1      48.834  29.907  35.2750  0.00  0.00     0.000 O
ATOM      9  HD  A00 X   1      49.472  30.423  34.9970  0.00  0.00     0.000 HD
ATOM      9   O  A00 X   1      50.290  30.927  32.2230  0.00  0.00     0.000 O
ATOM     11  HD  A00 X   1      50.928  31.442  31.9460  0.00  0.00     0.000 HD
ENDROOT
BRANCH 2 11
ATOM     11   O  A00 X   1      47.665  27.755  33.0980  0.00  0.00     0.000 O
ATOM     12   O  A00 X   1      45.621  28.707  33.9250  0.00  0.00     0.000 OA
ATOM     13   O  A00 X   1      46.928  27.253  35.3720  0.00  0.00     0.000 OA
ATOM     14   O  A00 X   1      45.821  26.371  33.4620  0.00  0.00     0.000 OA
ATOM     15   S  A00 X   1      46.440  27.528  34.0490  0.00  0.00     0.000 S
ENDBRANCH 2 11
BRANCH 5 16
ATOM     16   C  A00 X   1      51.847  28.648  34.8470  0.00  0.00     0.000 C
ATOM     17   O  A00 X   1      52.595  27.693  34.8830  0.00  0.00     0.000 OA
ATOM     18   O  A00 X   1      51.385  29.073  35.8870  0.00  0.00     0.000 OA
ENDBRANCH 5 16
BRANCH 1 19
ATOM     19  O4  A00 X   2      50.479  26.155  33.2380  0.00  0.00     0.000 O
BRANCH 19 23
ATOM     20  C1  A00 X   2      50.734  24.497  29.2950  0.00  0.00     0.000 C
ATOM     21  C2  A00 X   2      49.465  24.179  30.1230  0.00  0.00     0.000 C
ATOM     22  C3  A00 X   2      49.317  25.165  31.3000  0.00  0.00     0.000 C
ATOM     23  C4  A00 X   2      50.603  25.187  32.1570  0.00  0.00     0.000 C
ATOM     24  C5  A00 X   2      51.797  25.496  31.2130  0.00  0.00     0.000 C
ATOM     25  O5  A00 X   2      51.870  24.461  30.1980  0.00  0.00     0.000 O
ATOM     26   O  A00 X   2      48.092  24.872  31.9950  0.00  0.00     0.000 O
ATOM     28  HD  A00 X   2      48.273  24.027  32.0600  0.00  0.00     0.000 HD
BRANCH 21 30
ATOM     28   N  A00 X   2      49.433  22.855  29.4940  0.00  0.00     0.000 N
ATOM     30  HD  A00 X   2      48.655  22.980  29.8550  0.00  0.00     0.000 HD
ATOM     30   O  A00 X   2      47.200  22.190  29.3150  0.00  0.00     0.000 OA
ATOM     31   S  A00 X   2      48.376  21.797  30.0070  0.00  0.00     0.000 S
ATOM     32   O  A00 X   2      48.927  20.542  29.5980  0.00  0.00     0.000 OA
ATOM     33   O  A00 X   2      48.349  21.886  31.4370  0.00  0.00     0.000 OA
ENDBRANCH 21 30
BRANCH 24 34
ATOM     34   C  A00 X   2      53.170  25.801  31.8550  0.00  0.00     0.000 C
ATOM     35   O  A00 X   2      54.936  23.519  34.0760  0.00  0.00     0.000 OA
ATOM     36   O  A00 X   2      53.451  24.897  32.9420  0.00  0.00     0.000 O
ATOM     37   O  A00 X   2      54.218  22.950  31.8960  0.00  0.00     0.000 OA
ATOM     38   S  A00 X   2      54.719  23.987  32.7470  0.00  0.00     0.000 S
ATOM     39   O  A00 X   2      55.749  24.834  32.2250  0.00  0.00     0.000 OA
ENDBRANCH 24 34
BRANCH 20 40
ATOM     40  O4  A00 X   3      50.552  25.834  28.8050  0.00  0.00     0.000 O
BRANCH 40 44
ATOM     41  C1  A00 X   3      52.034  29.100  28.2930  0.00  0.00     0.000 C
ATOM     42  C2  A00 X   3      50.572  28.734  27.9570  0.00  0.00     0.000 C
ATOM     43  C3  A00 X   3      50.506  27.446  27.0970  0.00  0.00     0.000 C
ATOM     44  C4  A00 X   3      51.303  26.272  27.6520  0.00  0.00     0.000 C
ATOM     45  C5  A00 X   3      52.760  26.716  27.9600  0.00  0.00     0.000 C
ATOM     46  O5  A00 X   3      52.775  27.940  28.7640  0.00  0.00     0.000 O
ATOM     47   O  A00 X   3      49.207  27.060  26.6520  0.00  0.00     0.000 O
ATOM     49  HD  A00 X   3      49.507  26.266  26.8240  0.00  0.00     0.000 HD
BRANCH 42 49
ATOM     49   O  A00 X   3      49.878  28.567  29.2120  0.00  0.00     0.000 O
ATOM     50   O  A00 X   3      47.669  27.957  29.9030  0.00  0.00     0.000 OA
ATOM     51   O  A00 X   3      47.926  29.415  28.0600  0.00  0.00     0.000 OA
ATOM     52   O  A00 X   3      48.517  30.200  30.2090  0.00  0.00     0.000 OA
ATOM     53   S  A00 X   3      48.409  29.057  29.3700  0.00  0.00     0.000 S
ENDBRANCH 42 49
BRANCH 45 54
ATOM     54   C  A00 X   3      53.603  26.823  26.6830  0.00  0.00     0.000 C
ATOM     55   O  A00 X   3      54.797  27.030  26.7460  0.00  0.00     0.000 OA
ATOM     56   O  A00 X   3      53.088  26.703  25.5820  0.00  0.00     0.000 OA
ENDBRANCH 45 54
BRANCH 41 57
ATOM     57  O4  A00 X   4      52.673  29.801  27.2030  0.00  0.00     0.000 O
BRANCH 57 61
ATOM     58  C1  A00 X   4      55.662  32.914  27.0640  0.00  0.00     0.000 C
ATOM     59  C2  A00 X   4      56.034  31.557  27.7120  0.00  0.00     0.000 C
ATOM     60  C3  A00 X   4      55.037  30.426  27.3880  0.00  0.00     0.000 C
ATOM     61  C4  A00 X   4      53.574  30.873  27.6020  0.00  0.00     0.000 C
ATOM     62  C5  A00 X   4      53.362  32.115  26.7010  0.00  0.00     0.000 C
ATOM     63  O5  A00 X   4      54.243  33.180  27.1420  0.00  0.00     0.000 O
BRANCH 59 66
ATOM     64   N  A00 X   4      56.035  31.662  29.1830  0.00  0.00     0.000 N
ATOM     66  HD  A00 X   4      55.509  32.249  29.5420  0.00  0.00     0.000 HD
ATOM     66   O  A00 X   4      58.244  32.606  29.0150  0.00  0.00     0.000 OA
ATOM     67   S  A00 X   4      57.436  31.858  29.9270  0.00  0.00     0.000 S
ATOM     68   O  A00 X   4      57.010  32.568  31.0980  0.00  0.00     0.000 OA
ATOM     69   O  A00 X   4      57.790  30.488  30.1670  0.00  0.00     0.000 OA
ENDBRANCH 59 66
BRANCH 62 70
ATOM     70   C  A00 X   4      51.910  32.650  26.6940  0.00  0.00     0.000 C
ATOM     71   O  A00 X   4      50.093  34.298  29.3570  0.00  0.00     0.000 OA
ATOM     72   O  A00 X   4      49.483  32.495  27.9700  0.00  0.00     0.000 OA
ATOM     73   O  A00 X   4      51.691  33.445  27.8700  0.00  0.00     0.000 O
ATOM     74   O  A00 X   4      51.061  32.132  29.7910  0.00  0.00     0.000 OA
ATOM     75   S  A00 X   4      50.517  33.033  28.8260  0.00  0.00     0.000 S
ENDBRANCH 62 70
ENDBRANCH 57 61
ENDBRANCH 41 57
ENDBRANCH 40 44
ENDBRANCH 20 40
ENDBRANCH 19 23
ENDBRANCH 1 19
TORSDOF 14
ENDMDL
MODEL 18
REMARK VINA RESULT:      -0.2     37.502     42.458
ROOT
ATOM      1  C1  A00 X   1      34.245  39.304  19.2240  0.00  0.00     0.000 C
ATOM      2  C2  A00 X   1      35.560  38.877  18.5180  0.00  0.00     0.000 C
ATOM      3  C3  A00 X   1      35.397  38.184  17.1250  0.00  0.00     0.000 C
ATOM      4  C4  A00 X   1      33.969  37.681  16.7910  0.00  0.00     0.000 C
ATOM      5  C5  A00 X   1      33.128  37.456  18.0470  0.00  0.00     0.000 C
ATOM      6  O5  A00 X   1      33.026  38.762  18.6590  0.00  0.00     0.000 O
ATOM      7   O  A00 X   1      36.250  37.042  17.0800  0.00  0.00     0.000 O
ATOM      9  HD  A00 X   1      35.500  36.815  16.7120  0.00  0.00     0.000 HD
ATOM      9   O  A00 X   1      33.293  38.578  15.9110  0.00  0.00     0.000 O
ATOM     11  HD  A00 X   1      32.542  38.351  15.5420  0.00  0.00     0.000 HD
ENDROOT
BRANCH 2 11
ATOM     11   O  A00 X   1      36.377  40.053  18.3650  0.00  0.00     0.000 O
ATOM     12   O  A00 X   1      38.416  40.027  17.0960  0.00  0.00     0.000 OA
ATOM     13   O  A00 X   1      38.249  38.673  19.1100  0.00  0.00     0.000 OA
ATOM     14   O  A00 X   1      38.294  41.047  19.2540  0.00  0.00     0.000 OA
ATOM     15   S  A00 X   1      37.936  39.910  18.4490  0.00  0.00     0.000 S
ENDBRANCH 2 11
BRANCH 5 16
ATOM     16   C  A00 X   1      33.655  36.374  18.9950  0.00  0.00     0.000 C
ATOM     17   O  A00 X   1      33.175  36.292  20.1070  0.00  0.00     0.000 OA
ATOM     18   O  A00 X   1      34.528  35.594  18.6720  0.00  0.00     0.000 OA
ENDBRANCH 5 16
BRANCH 1 19
ATOM     19  O4  A00 X   2      34.292  39.113  20.6600  0.00  0.00     0.000 O
BRANCH 19 23
ATOM     20  C1  A00 X   2      32.272  42.794  21.5180  0.00  0.00     0.000 C
ATOM     21  C2  A00 X   2      33.816  42.784  21.6250  0.00  0.00     0.000 C
ATOM     22  C3  A00 X   2      34.411  41.566  20.8870  0.00  0.00     0.000 C
ATOM     23  C4  A00 X   2      33.766  40.256  21.3930  0.00  0.00     0.000 C
ATOM     24  C5  A00 X   2      32.226  40.399  21.2500  0.00  0.00     0.000 C
ATOM     25  O5  A00 X   2      31.786  41.531  22.0460  0.00  0.00     0.000 O
ATOM     26   O  A00 X   2      35.845  41.640  20.9570  0.00  0.00     0.000 O
ATOM     28  HD  A00 X   2      35.847  41.765  21.8140  0.00  0.00     0.000 HD
BRANCH 21 30
ATOM     28   N  A00 X   2      33.708  43.732  22.7390  0.00  0.00     0.000 N
ATOM     30  HD  A00 X   2      34.532  43.749  22.4740  0.00  0.00     0.000 HD
ATOM     30   O  A00 X   2      35.593  45.112  22.7050  0.00  0.00     0.000 OA
ATOM     31   S  A00 X   2      35.016  44.116  23.5380  0.00  0.00     0.000 S
ATOM     32   O  A00 X   2      34.520  44.591  24.7920  0.00  0.00     0.000 OA
ATOM     33   O  A00 X   2      35.768  42.911  23.7250  0.00  0.00     0.000 OA
ENDBRANCH 21 30
BRANCH 24 34
ATOM     34   C  A00 X   2      31.357  39.139  21.4730  0.00  0.00     0.000 C
ATOM     35   O  A00 X   2      31.364  37.168  24.5340  0.00  0.00     0.000 OA
ATOM     36   O  A00 X   2      31.819  38.378  22.6060  0.00  0.00     0.000 O
ATOM     37   O  A00 X   2      30.924  39.491  24.4590  0.00  0.00     0.000 OA
ATOM     38   S  A00 X   2      30.788  38.236  23.7850  0.00  0.00     0.000 S
ATOM     39   O  A00 X   2      29.523  37.941  23.1820  0.00  0.00     0.000 OA
ENDBRANCH 24 34
BRANCH 20 40
ATOM     40  O4  A00 X   3      31.981  42.871  20.1150  0.00  0.00     0.000 O
BRANCH 40 44
ATOM     41  C1  A00 X   3      29.995  41.610  17.3600  0.00  0.00     0.000 C
ATOM     42  C2  A00 X   3      31.110  42.671  17.2290  0.00  0.00     0.000 C
ATOM     43  C3  A00 X   3      30.908  43.818  18.2520  0.00  0.00     0.000 C
ATOM     44  C4  A00 X   3      30.690  43.355  19.6870  0.00  0.00     0.000 C
ATOM     45  C5  A00 X   3      29.553  42.296  19.7380  0.00  0.00     0.000 C
ATOM     46  O5  A00 X   3      29.779  41.239  18.7500  0.00  0.00     0.000 O
ATOM     47   O  A00 X   3      31.832  44.901  18.1650  0.00  0.00     0.000 O
ATOM     49  HD  A00 X   3      31.781  44.867  19.0280  0.00  0.00     0.000 HD
BRANCH 42 49
ATOM     49   O  A00 X   3      32.367  41.991  17.4380  0.00  0.00     0.000 O
ATOM     50   O  A00 X   3      34.676  42.614  17.5400  0.00  0.00     0.000 OA
ATOM     51   O  A00 X   3      33.304  43.591  15.8820  0.00  0.00     0.000 OA
ATOM     52   O  A00 X   3      33.802  41.286  15.7180  0.00  0.00     0.000 OA
ATOM     53   S  A00 X   3      33.621  42.384  16.6040  0.00  0.00     0.000 S
ENDBRANCH 42 49
BRANCH 45 54
ATOM     54   C  A00 X   3      28.168  42.944  19.6230  0.00  0.00     0.000 C
ATOM     55   O  A00 X   3      28.057  44.130  19.3910  0.00  0.00     0.000 OA
ATOM     56   O  A00 X   3      27.153  42.279  19.7640  0.00  0.00     0.000 OA
ENDBRANCH 45 54
BRANCH 41 57
ATOM     57  O4  A00 X   4      28.793  42.011  16.6660  0.00  0.00     0.000 O
BRANCH 57 61
ATOM     58  C1  A00 X   4      25.751  39.800  14.5450  0.00  0.00     0.000 C
ATOM     59  C2  A00 X   4      25.964  39.508  16.0520  0.00  0.00     0.000 C
ATOM     60  C3  A00 X   4      26.802  40.584  16.7730  0.00  0.00     0.000 C
ATOM     61  C4  A00 X   4      28.083  40.935  15.9870  0.00  0.00     0.000 C
ATOM     62  C5  A00 X   4      27.621  41.400  14.5840  0.00  0.00     0.000 C
ATOM     63  O5  A00 X   4      26.951  40.301  13.9140  0.00  0.00     0.000 O
BRANCH 59 66
ATOM     64   N  A00 X   4      26.709  38.249  16.2320  0.00  0.00     0.000 N
ATOM     66  HD  A00 X   4      27.249  38.010  15.5990  0.00  0.00     0.000 HD
ATOM     66   O  A00 X   4      24.619  37.089  15.9370  0.00  0.00     0.000 OA
ATOM     67   S  A00 X   4      25.883  36.925  16.5840  0.00  0.00     0.000 S
ATOM     68   O  A00 X   4      26.742  35.926  16.0180  0.00  0.00     0.000 OA
ATOM     69   O  A00 X   4      25.913  36.982  18.0180  0.00  0.00     0.000 OA
ENDBRANCH 59 66
BRANCH 62 70
ATOM     70   C  A00 X   4      28.767  41.904  13.6750  0.00  0.00     0.000 C
ATOM     71   O  A00 X   4      31.419  39.997  12.1130  0.00  0.00     0.000 OA
ATOM     72   O  A00 X   4      31.497  41.978  13.3830  0.00  0.00     0.000 OA
ATOM     73   O  A00 X   4      29.435  40.777  13.0840  0.00  0.00     0.000 O
ATOM     74   O  A00 X   4      31.143  39.843  14.5030  0.00  0.00     0.000 OA
ATOM     75   S  A00 X   4      30.978  40.630  13.3240  0.00  0.00     0.000 S
ENDBRANCH 62 70
ENDBRANCH 57 61
ENDBRANCH 41 57
ENDBRANCH 40 44
ENDBRANCH 20 40
ENDBRANCH 19 23
ENDBRANCH 1 19
TORSDOF 14
ENDMDL
MODEL 19
REMARK VINA RESULT:      -0.2     65.993     69.836
ROOT
ATOM      1  C1  A00 X   1      24.311  37.934  67.8740  0.00  0.00     0.000 C
ATOM      2  C2  A00 X   1      23.436  37.425  69.0500  0.00  0.00     0.000 C
ATOM      3  C3  A00 X   1      22.009  38.056  69.1680  0.00  0.00     0.000 C
ATOM      4  C4  A00 X   1      21.781  39.351  68.3460  0.00  0.00     0.000 C
ATOM      5  C5  A00 X   1      23.092  40.065  68.0190  0.00  0.00     0.000 C
ATOM      6  O5  A00 X   1      23.828  39.125  67.2040  0.00  0.00     0.000 O
ATOM      7   O  A00 X   1      21.771  38.395  70.5320  0.00  0.00     0.000 O
ATOM      9  HD  A00 X   1      21.463  39.045  70.0500  0.00  0.00     0.000 HD
ATOM      9   O  A00 X   1      21.063  39.084  67.1420  0.00  0.00     0.000 O
ATOM     11  HD  A00 X   1      20.755  39.735  66.6600  0.00  0.00     0.000 HD
ENDROOT
BRANCH 2 11
ATOM     11   O  A00 X   1      23.307  35.996  68.9130  0.00  0.00     0.000 O
ATOM     12   O  A00 X   1      21.838  34.713  70.3150  0.00  0.00     0.000 OA
ATOM     13   O  A00 X   1      23.727  35.874  71.3160  0.00  0.00     0.000 OA
ATOM     14   O  A00 X   1      24.081  34.015  69.8750  0.00  0.00     0.000 OA
ATOM     15   S  A00 X   1      23.218  35.116  70.2070  0.00  0.00     0.000 S
ENDBRANCH 2 11
BRANCH 5 16
ATOM     16   C  A00 X   1      23.876  40.569  69.2340  0.00  0.00     0.000 C
ATOM     17   O  A00 X   1      25.024  40.930  69.0760  0.00  0.00     0.000 OA
ATOM     18   O  A00 X   1      23.389  40.627  70.3460  0.00  0.00     0.000 OA
ENDBRANCH 5 16
BRANCH 1 19
ATOM     19  O4  A00 X   2      25.710  38.059  68.2300  0.00  0.00     0.000 O
BRANCH 19 23
ATOM     20  C1  A00 X   2      27.116  36.593  64.4560  0.00  0.00     0.000 C
ATOM     21  C2  A00 X   2      27.047  35.588  65.6320  0.00  0.00     0.000 C
ATOM     22  C3  A00 X   2      26.141  36.125  66.7600  0.00  0.00     0.000 C
ATOM     23  C4  A00 X   2      26.597  37.534  67.2000  0.00  0.00     0.000 C
ATOM     24  C5  A00 X   2      26.643  38.435  65.9360  0.00  0.00     0.000 C
ATOM     25  O5  A00 X   2      27.581  37.862  64.9880  0.00  0.00     0.000 O
ATOM     26   O  A00 X   2      26.055  35.130  67.7950  0.00  0.00     0.000 O
ATOM     28  HD  A00 X   2      26.914  35.029  67.8390  0.00  0.00     0.000 HD
BRANCH 21 30
ATOM     28   N  A00 X   2      28.245  34.935  65.0960  0.00  0.00     0.000 N
ATOM     30  HD  A00 X   2      27.892  34.384  65.6630  0.00  0.00     0.000 HD
ATOM     30   O  A00 X   2      28.123  32.659  65.6060  0.00  0.00     0.000 OA
ATOM     31   S  A00 X   2      28.923  33.783  65.9400  0.00  0.00     0.000 S
ATOM     32   O  A00 X   2      30.263  33.741  65.4400  0.00  0.00     0.000 OA
ATOM     33   O  A00 X   2      28.917  34.202  67.3100  0.00  0.00     0.000 OA
ENDBRANCH 21 30
BRANCH 24 34
ATOM     34   C  A00 X   2      26.848  39.955  66.1350  0.00  0.00     0.000 C
ATOM     35   O  A00 X   2      29.757  41.794  64.9450  0.00  0.00     0.000 OA
ATOM     36   O  A00 X   2      28.217  40.334  65.8860  0.00  0.00     0.000 O
ATOM     37   O  A00 X   2      28.366  40.479  63.5560  0.00  0.00     0.000 OA
ATOM     38   S  A00 X   2      28.428  41.341  64.6970  0.00  0.00     0.000 S
ATOM     39   O  A00 X   2      27.412  42.342  64.8280  0.00  0.00     0.000 OA
ENDBRANCH 24 34
BRANCH 20 40
ATOM     40  O4  A00 X   3      25.767  36.734  63.9870  0.00  0.00     0.000 O
BRANCH 40 44
ATOM     41  C1  A00 X   3      23.138  38.975  62.8980  0.00  0.00     0.000 C
ATOM     42  C2  A00 X   3      22.989  37.444  63.0360  0.00  0.00     0.000 C
ATOM     43  C3  A00 X   3      24.135  36.706  62.2980  0.00  0.00     0.000 C
ATOM     44  C4  A00 X   3      25.533  37.203  62.6420  0.00  0.00     0.000 C
ATOM     45  C5  A00 X   3      25.605  38.747  62.4750  0.00  0.00     0.000 C
ATOM     46  O5  A00 X   3      24.500  39.401  63.1780  0.00  0.00     0.000 O
ATOM     47   O  A00 X   3      24.051  35.282  62.2850  0.00  0.00     0.000 O
ATOM     49  HD  A00 X   3      24.908  35.343  62.3950  0.00  0.00     0.000 HD
BRANCH 42 49
ATOM     49   O  A00 X   3      22.991  37.145  64.4490  0.00  0.00     0.000 O
ATOM     50   O  A00 X   3      22.898  35.172  65.8030  0.00  0.00     0.000 OA
ATOM     51   O  A00 X   3      21.503  35.318  63.8990  0.00  0.00     0.000 OA
ATOM     52   O  A00 X   3      21.064  36.747  65.7300  0.00  0.00     0.000 OA
ATOM     53   S  A00 X   3      22.066  36.030  65.0190  0.00  0.00     0.000 S
ENDBRANCH 42 49
BRANCH 45 54
ATOM     54   C  A00 X   3      25.707  39.154  61.0000  0.00  0.00     0.000 C
ATOM     55   O  A00 X   3      25.544  38.334  60.1190  0.00  0.00     0.000 OA
ATOM     56   O  A00 X   3      25.953  40.308  60.6850  0.00  0.00     0.000 OA
ENDBRANCH 45 54
BRANCH 41 57
ATOM     57  O4  A00 X   4      22.622  39.450  61.6350  0.00  0.00     0.000 O
BRANCH 57 61
ATOM     58  C1  A00 X   4      20.660  43.109  60.4510  0.00  0.00     0.000 C
ATOM     59  C2  A00 X   4      22.099  43.190  61.0180  0.00  0.00     0.000 C
ATOM     60  C3  A00 X   4      22.819  41.826  61.0650  0.00  0.00     0.000 C
ATOM     61  C4  A00 X   4      21.931  40.730  61.6910  0.00  0.00     0.000 C
ATOM     62  C5  A00 X   4      20.637  40.679  60.8400  0.00  0.00     0.000 C
ATOM     63  O5  A00 X   4      19.948  41.951  60.9430  0.00  0.00     0.000 O
BRANCH 59 66
ATOM     64   N  A00 X   4      22.083  43.667  62.4130  0.00  0.00     0.000 N
ATOM     66  HD  A00 X   4      21.377  43.500  62.8850  0.00  0.00     0.000 HD
ATOM     66   O  A00 X   4      21.912  45.905  61.5390  0.00  0.00     0.000 OA
ATOM     67   S  A00 X   4      22.402  45.210  62.6890  0.00  0.00     0.000 S
ATOM     68   O  A00 X   4      21.658  45.416  63.8970  0.00  0.00     0.000 OA
ATOM     69   O  A00 X   4      23.823  45.146  62.8770  0.00  0.00     0.000 OA
ENDBRANCH 59 66
BRANCH 62 70
ATOM     70   C  A00 X   4      19.656  39.554  61.2490  0.00  0.00     0.000 C
ATOM     71   O  A00 X   4      17.659  39.277  64.2560  0.00  0.00     0.000 OA
ATOM     72   O  A00 X   4      19.078  37.718  63.2080  0.00  0.00     0.000 OA
ATOM     73   O  A00 X   4      18.902  39.975  62.3970  0.00  0.00     0.000 O
ATOM     74   O  A00 X   4      20.043  39.560  64.4780  0.00  0.00     0.000 OA
ATOM     75   S  A00 X   4      18.960  39.079  63.6820  0.00  0.00     0.000 S
ENDBRANCH 62 70
ENDBRANCH 57 61
ENDBRANCH 41 57
ENDBRANCH 40 44
ENDBRANCH 20 40
ENDBRANCH 19 23
ENDBRANCH 1 19
TORSDOF 14
ENDMDL
MODEL 20
REMARK VINA RESULT:      -0.2     63.681     67.929
ROOT
ATOM      1  C1  A00 X   1      30.358  53.305  51.4450  0.00  0.00     0.000 C
ATOM      2  C2  A00 X   1      30.463  54.143  50.1440  0.00  0.00     0.000 C
ATOM      3  C3  A00 X   1      30.309  53.353  48.8030  0.00  0.00     0.000 C
ATOM      4  C4  A00 X   1      30.440  51.812  48.9160  0.00  0.00     0.000 C
ATOM      5  C5  A00 X   1      31.216  51.389  50.1640  0.00  0.00     0.000 C
ATOM      6  O5  A00 X   1      30.419  51.868  51.2710  0.00  0.00     0.000 O
ATOM      7   O  A00 X   1      31.327  53.780  47.9000  0.00  0.00     0.000 O
ATOM      9  HD  A00 X   1      31.263  52.920  47.8240  0.00  0.00     0.000 HD
ATOM      9   O  A00 X   1      29.162  51.177  48.9050  0.00  0.00     0.000 O
ATOM     11  HD  A00 X   1      29.098  50.317  48.8290  0.00  0.00     0.000 HD
ENDROOT
BRANCH 2 11
ATOM     11   O  A00 X   1      29.454  55.170  50.2010  0.00  0.00     0.000 O
ATOM     12   O  A00 X   1      28.990  56.601  48.3300  0.00  0.00     0.000 OA
ATOM     13   O  A00 X   1      31.175  56.704  49.3940  0.00  0.00     0.000 OA
ATOM     14   O  A00 X   1      29.238  57.470  50.5430  0.00  0.00     0.000 OA
ATOM     15   S  A00 X   1      29.753  56.565  49.5510  0.00  0.00     0.000 S
ENDBRANCH 2 11
BRANCH 5 16
ATOM     16   C  A00 X   1      32.674  51.858  50.2100  0.00  0.00     0.000 C
ATOM     17   O  A00 X   1      33.288  51.745  51.2510  0.00  0.00     0.000 OA
ATOM     18   O  A00 X   1      33.238  52.330  49.2430  0.00  0.00     0.000 OA
ENDBRANCH 5 16
BRANCH 1 19
ATOM     19  O4  A00 X   2      31.274  53.751  52.4750  0.00  0.00     0.000 O
BRANCH 19 23
ATOM     20  C1  A00 X   2      28.463  53.171  55.6580  0.00  0.00     0.000 C
ATOM     21  C2  A00 X   2      28.615  54.603  55.0910  0.00  0.00     0.000 C
ATOM     22  C3  A00 X   2      29.305  54.578  53.7110  0.00  0.00     0.000 C
ATOM     23  C4  A00 X   2      30.649  53.818  53.7890  0.00  0.00     0.000 C
ATOM     24  C5  A00 X   2      30.364  52.412  54.3870  0.00  0.00     0.000 C
ATOM     25  O5  A00 X   2      29.786  52.575  55.7080  0.00  0.00     0.000 O
ATOM     26   O  A00 X   2      29.361  55.920  53.1980  0.00  0.00     0.000 O
ATOM     28  HD  A00 X   2      29.699  56.239  53.9290  0.00  0.00     0.000 HD
BRANCH 21 30
ATOM     28   N  A00 X   2      28.375  55.122  56.4410  0.00  0.00     0.000 N
ATOM     30  HD  A00 X   2      28.272  55.786  55.8950  0.00  0.00     0.000 HD
ATOM     30   O  A00 X   2      27.291  57.182  56.2460  0.00  0.00     0.000 OA
ATOM     31   S  A00 X   2      28.537  56.673  56.6980  0.00  0.00     0.000 S
ATOM     32   O  A00 X   2      28.751  56.762  58.1090  0.00  0.00     0.000 OA
ATOM     33   O  A00 X   2      29.707  57.099  55.9900  0.00  0.00     0.000 OA
ENDBRANCH 21 30
BRANCH 24 34
ATOM     34   C  A00 X   2      31.505  51.368  54.3580  0.00  0.00     0.000 C
ATOM     35   O  A00 X   2      33.015  49.913  57.3350  0.00  0.00     0.000 OA
ATOM     36   O  A00 X   2      32.133  51.244  55.6500  0.00  0.00     0.000 O
ATOM     37   O  A00 X   2      30.699  49.849  56.8620  0.00  0.00     0.000 OA
ATOM     38   S  A00 X   2      32.021  49.824  56.3160  0.00  0.00     0.000 S
ATOM     39   O  A00 X   2      32.295  48.869  55.2840  0.00  0.00     0.000 OA
ENDBRANCH 24 34
BRANCH 20 40
ATOM     40  O4  A00 X   3      27.653  52.462  54.7080  0.00  0.00     0.000 O
BRANCH 40 44
ATOM     41  C1  A00 X   3      27.092  49.430  52.8070  0.00  0.00     0.000 C
ATOM     42  C2  A00 X   3      26.213  50.697  52.7230  0.00  0.00     0.000 C
ATOM     43  C3  A00 X   3      25.779  51.166  54.1360  0.00  0.00     0.000 C
ATOM     44  C4  A00 X   3      26.920  51.295  55.1380  0.00  0.00     0.000 C
ATOM     45  C5  A00 X   3      27.753  49.983  55.1680  0.00  0.00     0.000 C
ATOM     46  O5  A00 X   3      28.131  49.573  53.8140  0.00  0.00     0.000 O
ATOM     47   O  A00 X   3      24.890  52.281  54.1770  0.00  0.00     0.000 O
ATOM     49  HD  A00 X   3      25.377  52.500  54.8590  0.00  0.00     0.000 HD
BRANCH 42 49
ATOM     49   O  A00 X   3      26.991  51.709  52.0470  0.00  0.00     0.000 O
ATOM     50   O  A00 X   3      26.691  54.003  51.4320  0.00  0.00     0.000 OA
ATOM     51   O  A00 X   3      24.886  52.502  51.1560  0.00  0.00     0.000 OA
ATOM     52   O  A00 X   3      26.784  52.248  49.7710  0.00  0.00     0.000 OA
ATOM     53   S  A00 X   3      26.311  52.682  51.0400  0.00  0.00     0.000 S
ENDBRANCH 42 49
BRANCH 45 54
ATOM     54   C  A00 X   3      27.042  48.877  55.9570  0.00  0.00     0.000 C
ATOM     55   O  A00 X   3      27.627  47.857  56.2580  0.00  0.00     0.000 OA
ATOM     56   O  A00 X   3      25.875  49.002  56.2950  0.00  0.00     0.000 OA
ENDBRANCH 45 54
BRANCH 41 57
ATOM     57  O4  A00 X   4      26.293  48.235  52.9520  0.00  0.00     0.000 O
BRANCH 57 61
ATOM     58  C1  A00 X   4      26.831  44.160  51.6290  0.00  0.00     0.000 C
ATOM     59  C2  A00 X   4      27.864  44.762  52.6150  0.00  0.00     0.000 C
ATOM     60  C3  A00 X   4      27.385  46.065  53.2870  0.00  0.00     0.000 C
ATOM     61  C4  A00 X   4      26.806  47.061  52.2590  0.00  0.00     0.000 C
ATOM     62  C5  A00 X   4      25.654  46.320  51.5360  0.00  0.00     0.000 C
ATOM     63  O5  A00 X   4      26.195  45.178  50.8230  0.00  0.00     0.000 O
BRANCH 59 66
ATOM     64   N  A00 X   4      29.074  45.109  51.8490  0.00  0.00     0.000 N
ATOM     66  HD  A00 X   4      28.977  45.287  51.0070  0.00  0.00     0.000 HD
ATOM     66   O  A00 X   4      29.754  42.810  52.0750  0.00  0.00     0.000 OA
ATOM     67   S  A00 X   4      30.323  44.112  51.9130  0.00  0.00     0.000 S
ATOM     68   O  A00 X   4      30.925  44.368  50.6380  0.00  0.00     0.000 OA
ATOM     69   O  A00 X   4      31.038  44.672  53.0250  0.00  0.00     0.000 OA
ENDBRANCH 59 66
BRANCH 62 70
ATOM     70   C  A00 X   4      24.869  47.199  50.5320  0.00  0.00     0.000 C
ATOM     71   O  A00 X   4      25.979  48.559  47.3660  0.00  0.00     0.000 OA
ATOM     72   O  A00 X   4      24.897  49.591  49.1850  0.00  0.00     0.000 OA
ATOM     73   O  A00 X   4      25.611  47.298  49.3060  0.00  0.00     0.000 O
ATOM     74   O  A00 X   4      27.267  49.048  49.3460  0.00  0.00     0.000 OA
ATOM     75   S  A00 X   4      25.990  48.730  48.7920  0.00  0.00     0.000 S
ENDBRANCH 62 70
ENDBRANCH 57 61
ENDBRANCH 41 57
ENDBRANCH 40 44
ENDBRANCH 20 40
ENDBRANCH 19 23
ENDBRANCH 1 19
TORSDOF 14
ENDMDL
MODEL 21
REMARK VINA RESULT:      -0.2     52.768     57.032
ROOT
ATOM      1  C1  A00 X   1      25.923  49.876  35.0080  0.00  0.00     0.000 C
ATOM      2  C2  A00 X   1      27.124  48.913  34.8160  0.00  0.00     0.000 C
ATOM      3  C3  A00 X   1      28.258  49.006  35.8900  0.00  0.00     0.000 C
ATOM      4  C4  A00 X   1      28.228  50.271  36.7860  0.00  0.00     0.000 C
ATOM      5  C5  A00 X   1      27.469  51.425  36.1300  0.00  0.00     0.000 C
ATOM      6  O5  A00 X   1      26.118  50.935  35.9780  0.00  0.00     0.000 O
ATOM      7   O  A00 X   1      29.519  49.010  35.2250  0.00  0.00     0.000 O
ATOM      9  HD  A00 X   1      29.565  49.593  35.8640  0.00  0.00     0.000 HD
ATOM      9   O  A00 X   1      27.666  49.991  38.0670  0.00  0.00     0.000 O
ATOM     11  HD  A00 X   1      27.713  50.574  38.7060  0.00  0.00     0.000 HD
ENDROOT
BRANCH 2 11
ATOM     11   O  A00 X   1      26.609  47.568  34.7930  0.00  0.00     0.000 O
ATOM     12   O  A00 X   1      28.057  45.652  34.7810  0.00  0.00     0.000 OA
ATOM     13   O  A00 X   1      28.095  47.185  32.8930  0.00  0.00     0.000 OA
ATOM     14   O  A00 X   1      26.189  45.822  33.3000  0.00  0.00     0.000 OA
ATOM     15   S  A00 X   1      27.313  46.501  33.8850  0.00  0.00     0.000 S
ENDBRANCH 2 11
BRANCH 5 16
ATOM     16   C  A00 X   1      28.082  51.946  34.8260  0.00  0.00     0.000 C
ATOM     17   O  A00 X   1      27.427  52.700  34.1370  0.00  0.00     0.000 OA
ATOM     18   O  A00 X   1      29.200  51.638  34.4630  0.00  0.00     0.000 OA
ENDBRANCH 5 16
BRANCH 1 19
ATOM     19  O4  A00 X   2      25.414  50.395  33.7550  0.00  0.00     0.000 O
BRANCH 19 23
ATOM     20  C1  A00 X   2      21.310  50.151  34.9670  0.00  0.00     0.000 C
ATOM     21  C2  A00 X   2      21.870  48.996  34.1020  0.00  0.00     0.000 C
ATOM     22  C3  A00 X   2      23.413  48.998  34.1140  0.00  0.00     0.000 C
ATOM     23  C4  A00 X   2      23.959  50.381  33.6940  0.00  0.00     0.000 C
ATOM     24  C5  A00 X   2      23.312  51.447  34.6190  0.00  0.00     0.000 C
ATOM     25  O5  A00 X   2      21.870  51.392  34.4600  0.00  0.00     0.000 O
ATOM     26   O  A00 X   2      23.881  47.870  33.3560  0.00  0.00     0.000 O
ATOM     28  HD  A00 X   2      23.379  48.055  32.6750  0.00  0.00     0.000 HD
BRANCH 21 30
ATOM     28   N  A00 X   2      20.552  48.882  33.4690  0.00  0.00     0.000 N
ATOM     30  HD  A00 X   2      20.985  48.157  33.2780  0.00  0.00     0.000 HD
ATOM     30   O  A00 X   2      20.213  46.644  32.8920  0.00  0.00     0.000 OA
ATOM     31   S  A00 X   2      20.381  47.897  32.2450  0.00  0.00     0.000 S
ATOM     32   O  A00 X   2      19.219  48.390  31.5730  0.00  0.00     0.000 OA
ATOM     33   O  A00 X   2      21.538  48.049  31.4140  0.00  0.00     0.000 OA
ENDBRANCH 21 30
BRANCH 24 34
ATOM     34   C  A00 X   2      23.864  52.891  34.5590  0.00  0.00     0.000 C
ATOM     35   O  A00 X   2      21.924  55.774  33.4720  0.00  0.00     0.000 OA
ATOM     36   O  A00 X   2      23.010  53.745  33.7710  0.00  0.00     0.000 O
ATOM     37   O  A00 X   2      21.269  54.324  35.2220  0.00  0.00     0.000 OA
ATOM     38   S  A00 X   2      22.366  54.950  34.5490  0.00  0.00     0.000 S
ATOM     39   O  A00 X   2      23.406  55.513  35.3570  0.00  0.00     0.000 OA
ENDBRANCH 24 34
BRANCH 20 40
ATOM     40  O4  A00 X   3      21.798  49.912  36.2950  0.00  0.00     0.000 O
BRANCH 40 44
ATOM     41  C1  A00 X   3      23.283  51.280  39.3030  0.00  0.00     0.000 C
ATOM     42  C2  A00 X   3      22.947  49.789  39.0880  0.00  0.00     0.000 C
ATOM     43  C3  A00 X   3      21.484  49.613  38.6040  0.00  0.00     0.000 C
ATOM     44  C4  A00 X   3      21.099  50.490  37.4190  0.00  0.00     0.000 C
ATOM     45  C5  A00 X   3      21.463  51.972  37.7130  0.00  0.00     0.000 C
ATOM     46  O5  A00 X   3      22.847  52.089  38.1760  0.00  0.00     0.000 O
ATOM     47   O  A00 X   3      21.035  48.268  38.4540  0.00  0.00     0.000 O
ATOM     49  HD  A00 X   3      20.641  48.596  37.7560  0.00  0.00     0.000 HD
BRANCH 42 49
ATOM     49   O  A00 X   3      23.888  49.279  38.1180  0.00  0.00     0.000 O
ATOM     50   O  A00 X   3      24.268  47.196  37.0010  0.00  0.00     0.000 OA
ATOM     51   O  A00 X   3      23.717  47.174  39.3000  0.00  0.00     0.000 OA
ATOM     52   O  A00 X   3      25.815  48.048  38.6520  0.00  0.00     0.000 OA
ATOM     53   S  A00 X   3      24.464  47.840  38.2620  0.00  0.00     0.000 S
ENDBRANCH 42 49
BRANCH 45 54
ATOM     54   C  A00 X   3      20.452  52.627  38.6630  0.00  0.00     0.000 C
ATOM     55   O  A00 X   3      19.597  51.961  39.2110  0.00  0.00     0.000 OA
ATOM     56   O  A00 X   3      20.488  53.827  38.8830  0.00  0.00     0.000 OA
ENDBRANCH 45 54
BRANCH 41 57
ATOM     57  O4  A00 X   4      22.809  51.754  40.5840  0.00  0.00     0.000 O
BRANCH 57 61
ATOM     58  C1  A00 X   4      24.335  54.658  43.3900  0.00  0.00     0.000 C
ATOM     59  C2  A00 X   4      23.945  55.135  41.9690  0.00  0.00     0.000 C
ATOM     60  C3  A00 X   4      23.092  54.113  41.1900  0.00  0.00     0.000 C
ATOM     61  C4  A00 X   4      23.692  52.692  41.2610  0.00  0.00     0.000 C
ATOM     62  C5  A00 X   4      23.798  52.338  42.7650  0.00  0.00     0.000 C
ATOM     63  O5  A00 X   4      24.712  53.262  43.4100  0.00  0.00     0.000 O
BRANCH 59 66
ATOM     64   N  A00 X   4      25.148  55.346  41.1430  0.00  0.00     0.000 N
ATOM     66  HD  A00 X   4      25.848  54.872  41.3290  0.00  0.00     0.000 HD
ATOM     66   O  A00 X   4      25.373  57.498  42.1980  0.00  0.00     0.000 OA
ATOM     67   S  A00 X   4      25.697  56.838  40.9730  0.00  0.00     0.000 S
ATOM     68   O  A00 X   4      27.092  56.577  40.7630  0.00  0.00     0.000 OA
ATOM     69   O  A00 X   4      24.988  57.236  39.7900  0.00  0.00     0.000 OA
ENDBRANCH 59 66
BRANCH 62 70
ATOM     70   C  A00 X   4      24.282  50.895  43.0430  0.00  0.00     0.000 C
ATOM     71   O  A00 X   4      27.566  49.468  42.5050  0.00  0.00     0.000 OA
ATOM     72   O  A00 X   4      25.432  48.682  41.8930  0.00  0.00     0.000 OA
ATOM     73   O  A00 X   4      25.712  50.841  42.9150  0.00  0.00     0.000 O
ATOM     74   O  A00 X   4      26.444  50.512  40.6430  0.00  0.00     0.000 OA
ATOM     75   S  A00 X   4      26.319  49.824  41.8870  0.00  0.00     0.000 S
ENDBRANCH 62 70
ENDBRANCH 57 61
ENDBRANCH 41 57
ENDBRANCH 40 44
ENDBRANCH 20 40
ENDBRANCH 19 23
ENDBRANCH 1 19
TORSDOF 14
ENDMDL
MODEL 22
REMARK VINA RESULT:      -0.2     56.908     61.253
ROOT
ATOM      1  C1  A00 X   1      29.442  48.681  46.6430  0.00  0.00     0.000 C
ATOM      2  C2  A00 X   1      29.797  49.648  45.4820  0.00  0.00     0.000 C
ATOM      3  C3  A00 X   1      29.467  49.140  44.0400  0.00  0.00     0.000 C
ATOM      4  C4  A00 X   1      29.178  47.621  43.9160  0.00  0.00     0.000 C
ATOM      5  C5  A00 X   1      29.784  46.823  45.0700  0.00  0.00     0.000 C
ATOM      6  O5  A00 X   1      29.120  47.324  46.2520  0.00  0.00     0.000 O
ATOM      7   O  A00 X   1      30.582  49.410  43.1930  0.00  0.00     0.000 O
ATOM      9  HD  A00 X   1      30.292  48.620  42.9890  0.00  0.00     0.000 HD
ATOM      9   O  A00 X   1      27.777  47.362  43.8330  0.00  0.00     0.000 O
ATOM     11  HD  A00 X   1      27.487  46.572  43.6280  0.00  0.00     0.000 HD
ENDROOT
BRANCH 2 11
ATOM     11   O  A00 X   1      29.098  50.887  45.7140  0.00  0.00     0.000 O
ATOM     12   O  A00 X   1      29.068  52.652  44.0860  0.00  0.00     0.000 OA
ATOM     13   O  A00 X   1      31.181  52.008  45.1040  0.00  0.00     0.000 OA
ATOM     14   O  A00 X   1      29.499  53.083  46.3970  0.00  0.00     0.000 OA
ATOM     15   S  A00 X   1      29.771  52.231  45.2710  0.00  0.00     0.000 S
ENDBRANCH 2 11
BRANCH 5 16
ATOM     16   C  A00 X   1      31.313  46.871  45.1590  0.00  0.00     0.000 C
ATOM     17   O  A00 X   1      31.850  46.448  46.1620  0.00  0.00     0.000 OA
ATOM     18   O  A00 X   1      32.004  47.309  44.2610  0.00  0.00     0.000 OA
ENDBRANCH 5 16
BRANCH 1 19
ATOM     19  O4  A00 X   2      30.421  48.705  47.7110  0.00  0.00     0.000 O
BRANCH 19 23
ATOM     20  C1  A00 X   2      27.486  48.428  50.8220  0.00  0.00     0.000 C
ATOM     21  C2  A00 X   2      28.028  49.835  50.4750  0.00  0.00     0.000 C
ATOM     22  C3  A00 X   2      28.717  49.833  49.0940  0.00  0.00     0.000 C
ATOM     23  C4  A00 X   2      29.806  48.738  49.0310  0.00  0.00     0.000 C
ATOM     24  C5  A00 X   2      29.144  47.387  49.4160  0.00  0.00     0.000 C
ATOM     25  O5  A00 X   2      28.601  47.498  50.7570  0.00  0.00     0.000 O
ATOM     26   O  A00 X   2      29.141  51.173  48.7880  0.00  0.00     0.000 O
ATOM     28  HD  A00 X   2      29.536  51.276  49.5520  0.00  0.00     0.000 HD
BRANCH 21 30
ATOM     28   N  A00 X   2      27.907  50.191  51.8920  0.00  0.00     0.000 N
ATOM     30  HD  A00 X   2      27.996  50.933  51.4540  0.00  0.00     0.000 HD
ATOM     30   O  A00 X   2      27.416  52.471  52.0300  0.00  0.00     0.000 OA
ATOM     31   S  A00 X   2      28.471  51.586  52.3750  0.00  0.00     0.000 S
ATOM     32   O  A00 X   2      28.671  51.402  53.7790  0.00  0.00     0.000 OA
ATOM     33   O  A00 X   2      29.728  51.785  51.7160  0.00  0.00     0.000 OA
ENDBRANCH 21 30
BRANCH 24 34
ATOM     34   C  A00 X   2      29.964  46.092  49.2090  0.00  0.00     0.000 C
ATOM     35   O  A00 X   2      31.006  43.884  51.9100  0.00  0.00     0.000 OA
ATOM     36   O  A00 X   2      30.525  45.625  50.4520  0.00  0.00     0.000 O
ATOM     37   O  A00 X   2      28.761  44.504  51.5020  0.00  0.00     0.000 OA
ATOM     38   S  A00 X   2      30.033  44.206  50.9190  0.00  0.00     0.000 S
ATOM     39   O  A00 X   2      30.050  43.369  49.7570  0.00  0.00     0.000 OA
ENDBRANCH 24 34
BRANCH 20 40
ATOM     40  O4  A00 X   3      26.538  48.112  49.7920  0.00  0.00     0.000 O
BRANCH 40 44
ATOM     41  C1  A00 X   3      25.244  45.656  47.4650  0.00  0.00     0.000 C
ATOM     42  C2  A00 X   3      24.732  47.107  47.5880  0.00  0.00     0.000 C
ATOM     43  C3  A00 X   3      24.403  47.457  49.0620  0.00  0.00     0.000 C
ATOM     44  C4  A00 X   3      25.513  47.129  50.0530  0.00  0.00     0.000 C
ATOM     45  C5  A00 X   3      25.971  45.655  49.8710  0.00  0.00     0.000 C
ATOM     46  O5  A00 X   3      26.260  45.367  48.4650  0.00  0.00     0.000 O
ATOM     47   O  A00 X   3      23.838  48.747  49.2860  0.00  0.00     0.000 O
ATOM     49  HD  A00 X   3      24.349  48.726  49.9850  0.00  0.00     0.000 HD
BRANCH 42 49
ATOM     49   O  A00 X   3      25.765  47.967  47.0590  0.00  0.00     0.000 O
ATOM     50   O  A00 X   3      26.100  50.325  46.8160  0.00  0.00     0.000 OA
ATOM     51   O  A00 X   3      23.965  49.422  46.3520  0.00  0.00     0.000 OA
ATOM     52   O  A00 X   3      25.753  48.891  44.9000  0.00  0.00     0.000 OA
ATOM     53   S  A00 X   3      25.389  49.231  46.2320  0.00  0.00     0.000 S
ENDBRANCH 42 49
BRANCH 45 54
ATOM     54   C  A00 X   3      24.975  44.670  50.4960  0.00  0.00     0.000 C
ATOM     55   O  A00 X   3      25.247  43.491  50.5890  0.00  0.00     0.000 OA
ATOM     56   O  A00 X   3      23.892  45.054  50.9100  0.00  0.00     0.000 OA
ENDBRANCH 45 54
BRANCH 41 57
ATOM     57  O4  A00 X   4      24.156  44.706  47.4410  0.00  0.00     0.000 O
BRANCH 57 61
ATOM     58  C1  A00 X   4      23.601  40.921  45.4400  0.00  0.00     0.000 C
ATOM     59  C2  A00 X   4      24.753  41.054  46.4670  0.00  0.00     0.000 C
ATOM     60  C3  A00 X   4      24.634  42.302  47.3660  0.00  0.00     0.000 C
ATOM     61  C4  A00 X   4      24.342  43.575  46.5430  0.00  0.00     0.000 C
ATOM     62  C5  A00 X   4      23.037  43.296  45.7560  0.00  0.00     0.000 C
ATOM     63  O5  A00 X   4      23.258  42.192  44.8420  0.00  0.00     0.000 O
BRANCH 59 66
ATOM     64   N  A00 X   4      26.047  41.194  45.7750  0.00  0.00     0.000 N
ATOM     66  HD  A00 X   4      26.042  41.552  44.9870  0.00  0.00     0.000 HD
ATOM     66   O  A00 X   4      26.061  38.798  45.5310  0.00  0.00     0.000 OA
ATOM     67   S  A00 X   4      26.971  39.897  45.6280  0.00  0.00     0.000 S
ATOM     68   O  A00 X   4      27.679  40.219  44.4240  0.00  0.00     0.000 OA
ATOM     69   O  A00 X   4      27.759  40.010  46.8230  0.00  0.00     0.000 OA
ENDBRANCH 59 66
BRANCH 62 70
ATOM     70   C  A00 X   4      22.515  44.507  44.9460  0.00  0.00     0.000 C
ATOM     71   O  A00 X   4      23.941  46.035  41.9900  0.00  0.00     0.000 OA
ATOM     72   O  A00 X   4      23.184  46.998  44.0010  0.00  0.00     0.000 OA
ATOM     73   O  A00 X   4      23.253  44.610  43.7180  0.00  0.00     0.000 O
ATOM     74   O  A00 X   4      25.320  45.824  43.9570  0.00  0.00     0.000 OA
ATOM     75   S  A00 X   4      24.003  45.955  43.4230  0.00  0.00     0.000 S
ENDBRANCH 62 70
ENDBRANCH 57 61
ENDBRANCH 41 57
ENDBRANCH 40 44
ENDBRANCH 20 40
ENDBRANCH 19 23
ENDBRANCH 1 19
TORSDOF 14
ENDMDL
MODEL 23
REMARK VINA RESULT:      -0.2     56.651     61.307
ROOT
ATOM      1  C1  A00 X   1      64.929  33.272  16.8230  0.00  0.00     0.000 C
ATOM      2  C2  A00 X   1      65.431  31.847  16.4690  0.00  0.00     0.000 C
ATOM      3  C3  A00 X   1      65.860  31.619  14.9820  0.00  0.00     0.000 C
ATOM      4  C4  A00 X   1      65.395  32.704  13.9780  0.00  0.00     0.000 C
ATOM      5  C5  A00 X   1      64.182  33.482  14.4890  0.00  0.00     0.000 C
ATOM      6  O5  A00 X   1      64.645  34.134  15.6930  0.00  0.00     0.000 O
ATOM      7   O  A00 X   1      65.305  30.385  14.5300  0.00  0.00     0.000 O
ATOM      9  HD  A00 X   1      65.218  30.956  13.8850  0.00  0.00     0.000 HD
ATOM      9   O  A00 X   1      66.451  33.611  13.6630  0.00  0.00     0.000 O
ATOM     11  HD  A00 X   1      66.364  34.182  13.0180  0.00  0.00     0.000 HD
ENDROOT
BRANCH 2 11
ATOM     11   O  A00 X   1      66.547  31.549  17.3300  0.00  0.00     0.000 O
ATOM     12   O  A00 X   1      67.882  29.573  17.0420  0.00  0.00     0.000 OA
ATOM     13   O  A00 X   1      65.534  29.347  17.6380  0.00  0.00     0.000 OA
ATOM     14   O  A00 X   1      67.091  30.250  19.1930  0.00  0.00     0.000 OA
ATOM     15   S  A00 X   1      66.765  30.070  17.8040  0.00  0.00     0.000 S
ENDBRANCH 2 11
BRANCH 5 16
ATOM     16   C  A00 X   1      62.915  32.645  14.6940  0.00  0.00     0.000 C
ATOM     17   O  A00 X   1      61.984  33.139  15.2950  0.00  0.00     0.000 OA
ATOM     18   O  A00 X   1      62.808  31.511  14.2710  0.00  0.00     0.000 OA
ENDBRANCH 5 16
BRANCH 1 19
ATOM     19  O4  A00 X   2      63.832  33.262  17.7680  0.00  0.00     0.000 O
BRANCH 19 23
ATOM     20  C1  A00 X   2      65.256  36.684  19.9200  0.00  0.00     0.000 C
ATOM     21  C2  A00 X   2      65.577  35.287  20.5060  0.00  0.00     0.000 C
ATOM     22  C3  A00 X   2      65.395  34.189  19.4380  0.00  0.00     0.000 C
ATOM     23  C4  A00 X   2      63.984  34.268  18.8110  0.00  0.00     0.000 C
ATOM     24  C5  A00 X   2      63.781  35.713  18.2810  0.00  0.00     0.000 C
ATOM     25  O5  A00 X   2      63.904  36.640  19.3910  0.00  0.00     0.000 O
ATOM     26   O  A00 X   2      65.769  32.923  20.0090  0.00  0.00     0.000 O
ATOM     28  HD  A00 X   2      65.274  33.037  20.7100  0.00  0.00     0.000 HD
BRANCH 21 30
ATOM     28   N  A00 X   2      65.445  35.861  21.8480  0.00  0.00     0.000 N
ATOM     30  HD  A00 X   2      65.849  35.101  21.9390  0.00  0.00     0.000 HD
ATOM     30   O  A00 X   2      66.903  34.721  23.2730  0.00  0.00     0.000 OA
ATOM     31   S  A00 X   2      65.505  34.893  23.0970  0.00  0.00     0.000 S
ATOM     32   O  A00 X   2      64.852  35.634  24.1310  0.00  0.00     0.000 OA
ATOM     33   O  A00 X   2      64.743  33.726  22.7640  0.00  0.00     0.000 OA
ENDBRANCH 21 30
BRANCH 24 34
ATOM     34   C  A00 X   2      62.539  35.996  17.4030  0.00  0.00     0.000 C
ATOM     35   O  A00 X   2      59.107  35.424  18.4770  0.00  0.00     0.000 OA
ATOM     36   O  A00 X   2      61.364  35.355  17.9380  0.00  0.00     0.000 O
ATOM     37   O  A00 X   2      60.650  36.781  19.6480  0.00  0.00     0.000 OA
ATOM     38   S  A00 X   2      60.205  36.328  18.3660  0.00  0.00     0.000 S
ATOM     39   O  A00 X   2      60.087  37.301  17.3220  0.00  0.00     0.000 OA
ENDBRANCH 24 34
BRANCH 20 40
ATOM     40  O4  A00 X   3      66.186  36.876  18.8440  0.00  0.00     0.000 O
BRANCH 40 44
ATOM     41  C1  A00 X   3      66.721  37.982  15.4360  0.00  0.00     0.000 C
ATOM     42  C2  A00 X   3      67.812  37.378  16.3470  0.00  0.00     0.000 C
ATOM     43  C3  A00 X   3      67.849  38.097  17.7200  0.00  0.00     0.000 C
ATOM     44  C4  A00 X   3      66.495  38.217  18.4090  0.00  0.00     0.000 C
ATOM     45  C5  A00 X   3      65.455  38.836  17.4330  0.00  0.00     0.000 C
ATOM     46  O5  A00 X   3      65.461  38.133  16.1480  0.00  0.00     0.000 O
ATOM     47   O  A00 X   3      68.879  37.680  18.6140  0.00  0.00     0.000 O
ATOM     49  HD  A00 X   3      68.251  37.777  19.2030  0.00  0.00     0.000 HD
BRANCH 42 49
ATOM     49   O  A00 X   3      67.511  35.973  16.4950  0.00  0.00     0.000 O
ATOM     50   O  A00 X   3      68.425  34.123  17.7080  0.00  0.00     0.000 OA
ATOM     51   O  A00 X   3      69.902  35.645  16.6630  0.00  0.00     0.000 OA
ATOM     52   O  A00 X   3      68.568  34.252  15.2970  0.00  0.00     0.000 OA
ATOM     53   S  A00 X   3      68.659  34.924  16.5470  0.00  0.00     0.000 S
ENDBRANCH 42 49
BRANCH 45 54
ATOM     54   C  A00 X   3      65.638  40.351  17.2930  0.00  0.00     0.000 C
ATOM     55   O  A00 X   3      64.832  41.018  16.6770  0.00  0.00     0.000 OA
ATOM     56   O  A00 X   3      66.598  40.914  17.7970  0.00  0.00     0.000 OA
ENDBRANCH 45 54
BRANCH 41 57
ATOM     57  O4  A00 X   4      67.176  39.189  14.7850  0.00  0.00     0.000 O
BRANCH 57 61
ATOM     58  C1  A00 X   4      66.339  40.944  10.9310  0.00  0.00     0.000 C
ATOM     59  C2  A00 X   4      65.169  40.752  11.9280  0.00  0.00     0.000 C
ATOM     60  C3  A00 X   4      65.631  40.463  13.3700  0.00  0.00     0.000 C
ATOM     61  C4  A00 X   4      66.715  39.364  13.4150  0.00  0.00     0.000 C
ATOM     62  C5  A00 X   4      67.876  39.860  12.5180  0.00  0.00     0.000 C
ATOM     63  O5  A00 X   4      67.403  39.991  11.1530  0.00  0.00     0.000 O
BRANCH 59 66
ATOM     64   N  A00 X   4      64.354  39.588  11.5350  0.00  0.00     0.000 N
ATOM     66  HD  A00 X   4      64.748  38.952  11.0980  0.00  0.00     0.000 HD
ATOM     66   O  A00 X   4      63.238  41.027   9.9600  0.00  0.00     0.000 OA
ATOM     67   S  A00 X   4      62.994  39.850  10.7340  0.00  0.00     0.000 S
ATOM     68   O  A00 X   4      62.894  38.630   9.9880  0.00  0.00     0.000 OA
ATOM     69   O  A00 X   4      62.071  39.948  11.8290  0.00  0.00     0.000 OA
ENDBRANCH 59 66
BRANCH 62 70
ATOM     70   C  A00 X   4      69.117  38.936  12.5220  0.00  0.00     0.000 C
ATOM     71   O  A00 X   4      69.466  35.613  11.1280  0.00  0.00     0.000 OA
ATOM     72   O  A00 X   4      70.031  36.452  13.2540  0.00  0.00     0.000 OA
ATOM     73   O  A00 X   4      68.882  37.822  11.6460  0.00  0.00     0.000 O
ATOM     74   O  A00 X   4      67.695  36.018  12.7140  0.00  0.00     0.000 OA
ATOM     75   S  A00 X   4      68.995  36.379  12.2480  0.00  0.00     0.000 S
ENDBRANCH 62 70
ENDBRANCH 57 61
ENDBRANCH 41 57
ENDBRANCH 40 44
ENDBRANCH 20 40
ENDBRANCH 19 23
ENDBRANCH 1 19
TORSDOF 14
ENDMDL
MODEL 24
REMARK VINA RESULT:      -0.2     53.561     58.224
ROOT
ATOM      1  C1  A00 X   1      54.860   8.008  48.8310  0.00  0.00     0.000 C
ATOM      2  C2  A00 X   1      54.945   6.703  49.6660  0.00  0.00     0.000 C
ATOM      3  C3  A00 X   1      53.616   5.889  49.8080  0.00  0.00     0.000 C
ATOM      4  C4  A00 X   1      52.322   6.651  49.4230  0.00  0.00     0.000 C
ATOM      5  C5  A00 X   1      52.500   8.168  49.5020  0.00  0.00     0.000 C
ATOM      6  O5  A00 X   1      53.521   8.469  48.5250  0.00  0.00     0.000 O
ATOM      7   O  A00 X   1      53.464   5.495  51.1690  0.00  0.00     0.000 O
ATOM      9  HD  A00 X   1      52.684   5.746  50.8870  0.00  0.00     0.000 HD
ATOM      9   O  A00 X   1      51.869   6.286  48.1190  0.00  0.00     0.000 O
ATOM     11  HD  A00 X   1      51.090   6.537  47.8370  0.00  0.00     0.000 HD
ENDROOT
BRANCH 2 11
ATOM     11   O  A00 X   1      55.948   5.861  49.0650  0.00  0.00     0.000 O
ATOM     12   O  A00 X   1      56.303   3.597  49.7810  0.00  0.00     0.000 OA
ATOM     13   O  A00 X   1      56.732   5.418  51.3350  0.00  0.00     0.000 OA
ATOM     14   O  A00 X   1      58.126   5.104  49.4340  0.00  0.00     0.000 OA
ATOM     15   S  A00 X   1      56.809   4.931  49.9860  0.00  0.00     0.000 S
ENDBRANCH 2 11
BRANCH 5 16
ATOM     16   C  A00 X   1      52.810   8.711  50.9010  0.00  0.00     0.000 C
ATOM     17   O  A00 X   1      53.173   9.864  51.0080  0.00  0.00     0.000 OA
ATOM     18   O  A00 X   1      52.699   8.033  51.9030  0.00  0.00     0.000 OA
ENDBRANCH 5 16
BRANCH 1 19
ATOM     19  O4  A00 X   2      55.675   9.075  49.3740  0.00  0.00     0.000 O
BRANCH 19 23
ATOM     20  C1  A00 X   2      56.957  10.466  45.5280  0.00  0.00     0.000 C
ATOM     21  C2  A00 X   2      57.913   9.526  46.3030  0.00  0.00     0.000 C
ATOM     22  C3  A00 X   2      57.160   8.781  47.4250  0.00  0.00     0.000 C
ATOM     23  C4  A00 X   2      56.426   9.783  48.3460  0.00  0.00     0.000 C
ATOM     24  C5  A00 X   2      55.520  10.673  47.4520  0.00  0.00     0.000 C
ATOM     25  O5  A00 X   2      56.354  11.372  46.4910  0.00  0.00     0.000 O
ATOM     26   O  A00 X   2      58.071   7.874  48.0680  0.00  0.00     0.000 O
ATOM     28  HD  A00 X   2      58.677   8.482  48.1810  0.00  0.00     0.000 HD
BRANCH 21 30
ATOM     28   N  A00 X   2      59.041  10.266  45.7290  0.00  0.00     0.000 N
ATOM     30  HD  A00 X   2      59.361   9.527  46.0470  0.00  0.00     0.000 HD
ATOM     30   O  A00 X   2      60.827   8.783  45.4700  0.00  0.00     0.000 OA
ATOM     31   S  A00 X   2      60.501   9.935  46.2340  0.00  0.00     0.000 S
ATOM     32   O  A00 X   2      61.248  11.109  45.9050  0.00  0.00     0.000 OA
ATOM     33   O  A00 X   2      60.431   9.772  47.6560  0.00  0.00     0.000 OA
ENDBRANCH 21 30
BRANCH 24 34
ATOM     34   C  A00 X   2      54.504  11.607  48.1500  0.00  0.00     0.000 C
ATOM     35   O  A00 X   2      55.418  14.177  50.5630  0.00  0.00     0.000 OA
ATOM     36   O  A00 X   2      55.095  12.262  49.2910  0.00  0.00     0.000 O
ATOM     37   O  A00 X   2      56.309  14.040  48.3760  0.00  0.00     0.000 OA
ATOM     38   S  A00 X   2      55.160  13.831  49.2040  0.00  0.00     0.000 S
ATOM     39   O  A00 X   2      53.892  14.262  48.6980  0.00  0.00     0.000 OA
ENDBRANCH 24 34
BRANCH 20 40
ATOM     40  O4  A00 X   3      55.945   9.616  44.9700  0.00  0.00     0.000 O
BRANCH 40 44
ATOM     41  C1  A00 X   3      52.417   9.086  44.3420  0.00  0.00     0.000 C
ATOM     42  C2  A00 X   3      53.537   8.090  43.9680  0.00  0.00     0.000 C
ATOM     43  C3  A00 X   3      54.667   8.798  43.1770  0.00  0.00     0.000 C
ATOM     44  C4  A00 X   3      55.193  10.072  43.8250  0.00  0.00     0.000 C
ATOM     45  C5  A00 X   3      54.010  11.022  44.1660  0.00  0.00     0.000 C
ATOM     46  O5  A00 X   3      52.964  10.311  44.9030  0.00  0.00     0.000 O
ATOM     47   O  A00 X   3      55.716   7.956  42.7030  0.00  0.00     0.000 O
ATOM     49  HD  A00 X   3      56.208   8.632  42.9280  0.00  0.00     0.000 HD
BRANCH 42 49
ATOM     49   O  A00 X   3      54.031   7.526  45.2030  0.00  0.00     0.000 O
ATOM     50   O  A00 X   3      55.751   5.987  45.8390  0.00  0.00     0.000 OA
ATOM     51   O  A00 X   3      54.444   5.512  43.9270  0.00  0.00     0.000 OA
ATOM     52   O  A00 X   3      53.408   5.426  46.0490  0.00  0.00     0.000 OA
ATOM     53   S  A00 X   3      54.438   6.026  45.2740  0.00  0.00     0.000 S
ENDBRANCH 42 49
BRANCH 45 54
ATOM     54   C  A00 X   3      53.486  11.745  42.9200  0.00  0.00     0.000 C
ATOM     55   O  A00 X   3      52.730  12.689  43.0240  0.00  0.00     0.000 OA
ATOM     56   O  A00 X   3      53.817  11.383  41.8010  0.00  0.00     0.000 OA
ENDBRANCH 45 54
BRANCH 41 57
ATOM     57  O4  A00 X   4      51.505   9.300  43.2420  0.00  0.00     0.000 O
BRANCH 57 61
ATOM     58  C1  A00 X   4      47.278  10.161  43.0560  0.00  0.00     0.000 C
ATOM     59  C2  A00 X   4      48.210  11.172  43.7700  0.00  0.00     0.000 C
ATOM     60  C3  A00 X   4      49.705  10.950  43.4660  0.00  0.00     0.000 C
ATOM     61  C4  A00 X   4      50.109   9.468  43.6200  0.00  0.00     0.000 C
ATOM     62  C5  A00 X   4      49.193   8.665  42.6640  0.00  0.00     0.000 C
ATOM     63  O5  A00 X   4      47.813   8.818  43.0840  0.00  0.00     0.000 O
BRANCH 59 66
ATOM     64   N  A00 X   4      48.086  11.041  45.2330  0.00  0.00     0.000 N
ATOM     66  HD  A00 X   4      47.861  10.266  45.5480  0.00  0.00     0.000 HD
ATOM     66   O  A00 X   4      46.113  12.415  45.0890  0.00  0.00     0.000 OA
ATOM     67   S  A00 X   4      47.154  12.083  46.0110  0.00  0.00     0.000 S
ATOM     68   O  A00 X   4      46.754  11.285  47.1320  0.00  0.00     0.000 OA
ATOM     69   O  A00 X   4      48.118  13.099  46.3260  0.00  0.00     0.000 OA
ENDBRANCH 59 66
BRANCH 62 70
ATOM     70   C  A00 X   4      49.521   7.155  42.5940  0.00  0.00     0.000 C
ATOM     71   O  A00 X   4      49.092   4.627  45.1510  0.00  0.00     0.000 OA
ATOM     72   O  A00 X   4      50.948   5.137  43.7940  0.00  0.00     0.000 OA
ATOM     73   O  A00 X   4      48.962   6.494  43.7410  0.00  0.00     0.000 O
ATOM     74   O  A00 X   4      50.397   6.586  45.6740  0.00  0.00     0.000 OA
ATOM     75   S  A00 X   4      49.935   5.685  44.6680  0.00  0.00     0.000 S
ENDBRANCH 62 70
ENDBRANCH 57 61
ENDBRANCH 41 57
ENDBRANCH 40 44
ENDBRANCH 20 40
ENDBRANCH 19 23
ENDBRANCH 1 19
TORSDOF 14
ENDMDL
MODEL 25
REMARK VINA RESULT:      -0.2     49.751     54.392
ROOT
ATOM      1  C1  A00 X   1      37.316  50.984  26.3530  0.00  0.00     0.000 C
ATOM      2  C2  A00 X   1      38.221  51.250  25.1210  0.00  0.00     0.000 C
ATOM      3  C3  A00 X   1      38.255  50.124  24.0360  0.00  0.00     0.000 C
ATOM      4  C4  A00 X   1      37.690  48.750  24.4810  0.00  0.00     0.000 C
ATOM      5  C5  A00 X   1      37.710  48.582  26.0000  0.00  0.00     0.000 C
ATOM      6  O5  A00 X   1      36.838  49.623  26.4960  0.00  0.00     0.000 O
ATOM      7   O  A00 X   1      39.610  49.899  23.6530  0.00  0.00     0.000 O
ATOM      9  HD  A00 X   1      39.230  49.123  23.7160  0.00  0.00     0.000 HD
ATOM      9   O  A00 X   1      36.364  48.549  23.9910  0.00  0.00     0.000 O
ATOM     11  HD  A00 X   1      35.985  47.773  24.0540  0.00  0.00     0.000 HD
ENDROOT
BRANCH 2 11
ATOM     11   O  A00 X   1      37.780  52.478  24.5090  0.00  0.00     0.000 O
ATOM     12   O  A00 X   1      38.661  53.239  22.4090  0.00  0.00     0.000 OA
ATOM     13   O  A00 X   1      40.143  53.070  24.3310  0.00  0.00     0.000 OA
ATOM     14   O  A00 X   1      38.422  54.711  24.2770  0.00  0.00     0.000 OA
ATOM     15   S  A00 X   1      38.840  53.410  23.8290  0.00  0.00     0.000 S
ENDBRANCH 2 11
BRANCH 5 16
ATOM     16   C  A00 X   1      39.104  48.596  26.6350  0.00  0.00     0.000 C
ATOM     17   O  A00 X   1      39.192  48.688  27.8420  0.00  0.00     0.000 OA
ATOM     18   O  A00 X   1      40.121  48.510  25.9760  0.00  0.00     0.000 OA
ENDBRANCH 5 16
BRANCH 1 19
ATOM     19  O4  A00 X   2      37.890  51.475  27.5890  0.00  0.00     0.000 O
BRANCH 19 23
ATOM     20  C1  A00 X   2      34.158  52.962  29.0820  0.00  0.00     0.000 C
ATOM     21  C2  A00 X   2      35.121  53.980  28.4240  0.00  0.00     0.000 C
ATOM     22  C3  A00 X   2      36.185  53.258  27.5710  0.00  0.00     0.000 C
ATOM     23  C4  A00 X   2      36.922  52.190  28.4090  0.00  0.00     0.000 C
ATOM     24  C5  A00 X   2      35.851  51.248  29.0260  0.00  0.00     0.000 C
ATOM     25  O5  A00 X   2      34.962  52.035  29.8600  0.00  0.00     0.000 O
ATOM     26   O  A00 X   2      37.009  54.246  26.9290  0.00  0.00     0.000 O
ATOM     28  HD  A00 X   2      37.156  54.675  27.6660  0.00  0.00     0.000 HD
BRANCH 21 30
ATOM     28   N  A00 X   2      34.647  54.983  29.3820  0.00  0.00     0.000 N
ATOM     30  HD  A00 X   2      35.060  55.412  28.7540  0.00  0.00     0.000 HD
ATOM     30   O  A00 X   2      34.743  57.077  28.3500  0.00  0.00     0.000 OA
ATOM     31   S  A00 X   2      35.366  56.390  29.4260  0.00  0.00     0.000 S
ATOM     32   O  A00 X   2      35.050  56.892  30.7270  0.00  0.00     0.000 OA
ATOM     33   O  A00 X   2      36.774  56.150  29.3140  0.00  0.00     0.000 OA
ENDBRANCH 21 30
BRANCH 24 34
ATOM     34   C  A00 X   2      36.337  49.956  29.7240  0.00  0.00     0.000 C
ATOM     35   O  A00 X   2      38.701  49.897  32.4920  0.00  0.00     0.000 OA
ATOM     36   O  A00 X   2      37.511  50.203  30.5230  0.00  0.00     0.000 O
ATOM     37   O  A00 X   2      36.681  51.127  32.5050  0.00  0.00     0.000 OA
ATOM     38   S  A00 X   2      37.342  49.937  32.0630  0.00  0.00     0.000 S
ATOM     39   O  A00 X   2      36.631  48.699  32.1850  0.00  0.00     0.000 OA
ENDBRANCH 24 34
BRANCH 20 40
ATOM     40  O4  A00 X   3      33.534  52.262  27.9960  0.00  0.00     0.000 O
BRANCH 40 44
ATOM     41  C1  A00 X   3      32.523  49.048  26.6650  0.00  0.00     0.000 C
ATOM     42  C2  A00 X   3      32.364  50.395  25.9280  0.00  0.00     0.000 C
ATOM     43  C3  A00 X   3      31.665  51.443  26.8310  0.00  0.00     0.000 C
ATOM     44  C4  A00 X   3      32.275  51.590  28.2190  0.00  0.00     0.000 C
ATOM     45  C5  A00 X   3      32.398  50.196  28.8970  0.00  0.00     0.000 C
ATOM     46  O5  A00 X   3      33.053  49.237  28.0050  0.00  0.00     0.000 O
ATOM     47   O  A00 X   3      31.386  52.703  26.2240  0.00  0.00     0.000 O
ATOM     49  HD  A00 X   3      31.619  53.003  27.0020  0.00  0.00     0.000 HD
BRANCH 42 49
ATOM     49   O  A00 X   3      33.688  50.827  25.5450  0.00  0.00     0.000 O
ATOM     50   O  A00 X   3      34.648  52.759  24.5060  0.00  0.00     0.000 OA
ATOM     51   O  A00 X   3      32.616  51.897  23.6570  0.00  0.00     0.000 OA
ATOM     52   O  A00 X   3      34.585  50.617  23.3850  0.00  0.00     0.000 OA
ATOM     53   S  A00 X   3      33.913  51.572  24.1970  0.00  0.00     0.000 S
ENDBRANCH 42 49
BRANCH 45 54
ATOM     54   C  A00 X   3      31.046  49.702  29.4260  0.00  0.00     0.000 C
ATOM     55   O  A00 X   3      30.027  50.320  29.1940  0.00  0.00     0.000 OA
ATOM     56   O  A00 X   3      30.971  48.680  30.0910  0.00  0.00     0.000 OA
ENDBRANCH 45 54
BRANCH 41 57
ATOM     57  O4  A00 X   4      31.307  48.268  26.6190  0.00  0.00     0.000 O
BRANCH 57 61
ATOM     58  C1  A00 X   4      30.548  44.021  26.4460  0.00  0.00     0.000 C
ATOM     59  C2  A00 X   4      31.311  44.588  27.6680  0.00  0.00     0.000 C
ATOM     60  C3  A00 X   4      31.208  46.121  27.8000  0.00  0.00     0.000 C
ATOM     61  C4  A00 X   4      31.499  46.833  26.4610  0.00  0.00     0.000 C
ATOM     62  C5  A00 X   4      30.484  46.266  25.4370  0.00  0.00     0.000 C
ATOM     63  O5  A00 X   4      30.720  44.844  25.2690  0.00  0.00     0.000 O
BRANCH 59 66
ATOM     64   N  A00 X   4      32.747  44.289  27.5150  0.00  0.00     0.000 N
ATOM     66  HD  A00 X   4      33.053  44.198  26.7100  0.00  0.00     0.000 HD
ATOM     66   O  A00 X   4      32.284  42.103  28.4130  0.00  0.00     0.000 OA
ATOM     67   S  A00 X   4      33.352  43.049  28.3240  0.00  0.00     0.000 S
ATOM     68   O  A00 X   4      34.433  42.678  27.4580  0.00  0.00     0.000 OA
ATOM     69   O  A00 X   4      33.764  43.710  29.5300  0.00  0.00     0.000 OA
ENDBRANCH 59 66
BRANCH 62 70
ATOM     70   C  A00 X   4      30.545  46.942  24.0470  0.00  0.00     0.000 C
ATOM     71   O  A00 X   4      33.164  46.756  21.5540  0.00  0.00     0.000 OA
ATOM     72   O  A00 X   4      32.034  48.614  22.4560  0.00  0.00     0.000 OA
ATOM     73   O  A00 X   4      31.645  46.396  23.3010  0.00  0.00     0.000 O
ATOM     74   O  A00 X   4      33.740  47.485  23.7790  0.00  0.00     0.000 OA
ATOM     75   S  A00 X   4      32.736  47.389  22.7700  0.00  0.00     0.000 S
ENDBRANCH 62 70
ENDBRANCH 57 61
ENDBRANCH 41 57
ENDBRANCH 40 44
ENDBRANCH 20 40
ENDBRANCH 19 23
ENDBRANCH 1 19
TORSDOF 14
ENDMDL
MODEL 26
REMARK VINA RESULT:      -0.2     50.684     55.251
ROOT
ATOM      1  C1  A00 X   1      34.771  39.647  38.5090  0.00  0.00     0.000 C
ATOM      2  C2  A00 X   1      33.342  39.850  37.9390  0.00  0.00     0.000 C
ATOM      3  C3  A00 X   1      32.482  40.964  38.6210  0.00  0.00     0.000 C
ATOM      4  C4  A00 X   1      33.005  41.467  39.9910  0.00  0.00     0.000 C
ATOM      5  C5  A00 X   1      33.916  40.446  40.6720  0.00  0.00     0.000 C
ATOM      6  O5  A00 X   1      35.039  40.301  39.7750  0.00  0.00     0.000 O
ATOM      7   O  A00 X   1      31.171  40.454  38.8500  0.00  0.00     0.000 O
ATOM      9  HD  A00 X   1      31.395  40.907  39.5530  0.00  0.00     0.000 HD
ATOM      9   O  A00 X   1      33.688  42.714  39.8640  0.00  0.00     0.000 O
ATOM     11  HD  A00 X   1      33.912  43.167  40.5670  0.00  0.00     0.000 HD
ENDROOT
BRANCH 2 11
ATOM     11   O  A00 X   1      33.469  40.148  36.5350  0.00  0.00     0.000 O
ATOM     12   O  A00 X   1      31.587  40.826  35.2060  0.00  0.00     0.000 OA
ATOM     13   O  A00 X   1      31.612  38.600  36.1870  0.00  0.00     0.000 OA
ATOM     14   O  A00 X   1      33.129  39.166  34.4440  0.00  0.00     0.000 OA
ATOM     15   S  A00 X   1      32.352  39.655  35.5520  0.00  0.00     0.000 S
ENDBRANCH 2 11
BRANCH 5 16
ATOM     16   C  A00 X   1      33.243  39.117  41.0330  0.00  0.00     0.000 C
ATOM     17   O  A00 X   1      33.943  38.186  41.3760  0.00  0.00     0.000 OA
ATOM     18   O  A00 X   1      32.039  38.965  40.9940  0.00  0.00     0.000 OA
ENDBRANCH 5 16
BRANCH 1 19
ATOM     19  O4  A00 X   2      35.171  38.254  38.5390  0.00  0.00     0.000 O
BRANCH 19 23
ATOM     20  C1  A00 X   2      39.210  39.070  37.3620  0.00  0.00     0.000 C
ATOM     21  C2  A00 X   2      38.221  38.619  36.2590  0.00  0.00     0.000 C
ATOM     22  C3  A00 X   2      36.761  38.785  36.7290  0.00  0.00     0.000 C
ATOM     23  C4  A00 X   2      36.536  38.055  38.0720  0.00  0.00     0.000 C
ATOM     24  C5  A00 X   2      37.594  38.579  39.0810  0.00  0.00     0.000 C
ATOM     25  O5  A00 X   2      38.918  38.298  38.5570  0.00  0.00     0.000 O
ATOM     26   O  A00 X   2      35.884  38.420  35.6500  0.00  0.00     0.000 O
ATOM     28  HD  A00 X   2      36.290  37.667  35.5090  0.00  0.00     0.000 HD
BRANCH 21 30
ATOM     28   N  A00 X   2      39.328  37.914  35.6070  0.00  0.00     0.000 N
ATOM     30  HD  A00 X   2      38.693  37.977  35.0230  0.00  0.00     0.000 HD
ATOM     30   O  A00 X   2      38.956  37.949  33.3010  0.00  0.00     0.000 OA
ATOM     31   S  A00 X   2      39.014  37.000  34.3560  0.00  0.00     0.000 S
ATOM     32   O  A00 X   2      40.127  36.104  34.3020  0.00  0.00     0.000 OA
ATOM     33   O  A00 X   2      37.810  36.281  34.6490  0.00  0.00     0.000 OA
ENDBRANCH 21 30
BRANCH 24 34
ATOM     34   C  A00 X   2      37.443  38.176  40.5670  0.00  0.00     0.000 C
ATOM     35   O  A00 X   2      37.353  34.734  41.7500  0.00  0.00     0.000 OA
ATOM     36   O  A00 X   2      37.086  36.786  40.6980  0.00  0.00     0.000 O
ATOM     37   O  A00 X   2      39.109  35.640  40.4510  0.00  0.00     0.000 OA
ATOM     38   S  A00 X   2      38.131  35.894  41.4630  0.00  0.00     0.000 S
ATOM     39   O  A00 X   2      38.542  36.647  42.6100  0.00  0.00     0.000 OA
ENDBRANCH 24 34
BRANCH 20 40
ATOM     40  O4  A00 X   3      38.918  40.454  37.6020  0.00  0.00     0.000 O
BRANCH 40 44
ATOM     41  C1  A00 X   3      38.395  43.092  40.0290  0.00  0.00     0.000 C
ATOM     42  C2  A00 X   3      38.284  43.270  38.4990  0.00  0.00     0.000 C
ATOM     43  C3  A00 X   3      39.542  42.712  37.7840  0.00  0.00     0.000 C
ATOM     44  C4  A00 X   3      39.929  41.297  38.1940  0.00  0.00     0.000 C
ATOM     45  C5  A00 X   3      40.025  41.200  39.7430  0.00  0.00     0.000 C
ATOM     46  O5  A00 X   3      38.823  41.746  40.3770  0.00  0.00     0.000 O
ATOM     47   O  A00 X   3      39.589  42.900  36.3710  0.00  0.00     0.000 O
ATOM     49  HD  A00 X   3      39.926  42.103  36.3890  0.00  0.00     0.000 HD
BRANCH 42 49
ATOM     49   O  A00 X   3      37.088  42.579  38.0790  0.00  0.00     0.000 O
ATOM     50   O  A00 X   3      35.984  42.133  36.0020  0.00  0.00     0.000 OA
ATOM     51   O  A00 X   3      36.903  44.281  36.3680  0.00  0.00     0.000 OA
ATOM     52   O  A00 X   3      35.029  43.623  37.6500  0.00  0.00     0.000 OA
ATOM     53   S  A00 X   3      36.188  43.176  36.9580  0.00  0.00     0.000 S
ENDBRANCH 42 49
BRANCH 45 54
ATOM     54   C  A00 X   3      41.322  41.824  40.2720  0.00  0.00     0.000 C
ATOM     55   O  A00 X   3      41.629  41.716  41.4410  0.00  0.00     0.000 OA
ATOM     56   O  A00 X   3      42.068  42.442  39.5270  0.00  0.00     0.000 OA
ENDBRANCH 45 54
BRANCH 41 57
ATOM     57  O4  A00 X   4      39.193  44.136  40.6310  0.00  0.00     0.000 O
BRANCH 57 61
ATOM     58  C1  A00 X   4      39.018  46.135  44.4540  0.00  0.00     0.000 C
ATOM     59  C2  A00 X   4      39.270  44.607  44.4270  0.00  0.00     0.000 C
ATOM     60  C3  A00 X   4      39.668  44.073  43.0360  0.00  0.00     0.000 C
ATOM     61  C4  A00 X   4      38.727  44.599  41.9300  0.00  0.00     0.000 C
ATOM     62  C5  A00 X   4      38.791  46.145  42.0030  0.00  0.00     0.000 C
ATOM     63  O5  A00 X   4      38.286  46.584  43.2900  0.00  0.00     0.000 O
BRANCH 59 66
ATOM     64   N  A00 X   4      38.039  43.881  44.7890  0.00  0.00     0.000 N
ATOM     66  HD  A00 X   4      37.283  44.265  44.6160  0.00  0.00     0.000 HD
ATOM     66   O  A00 X   4      38.597  44.290  47.0960  0.00  0.00     0.000 OA
ATOM     67   S  A00 X   4      37.890  43.345  46.2890  0.00  0.00     0.000 S
ATOM     68   O  A00 X   4      36.463  43.361  46.4280  0.00  0.00     0.000 OA
ATOM     69   O  A00 X   4      38.452  42.032  46.1460  0.00  0.00     0.000 OA
ENDBRANCH 59 66
BRANCH 62 70
ATOM     70   C  A00 X   4      37.990  46.864  40.8910  0.00  0.00     0.000 C
ATOM     71   O  A00 X   4      34.401  47.055  40.4510  0.00  0.00     0.000 OA
ATOM     72   O  A00 X   4      36.106  46.499  38.9250  0.00  0.00     0.000 OA
ATOM     73   O  A00 X   4      36.598  46.888  41.2470  0.00  0.00     0.000 O
ATOM     74   O  A00 X   4      35.428  44.879  40.6140  0.00  0.00     0.000 OA
ATOM     75   S  A00 X   4      35.573  46.251  40.2460  0.00  0.00     0.000 S
ENDBRANCH 62 70
ENDBRANCH 57 61
ENDBRANCH 41 57
ENDBRANCH 40 44
ENDBRANCH 20 40
ENDBRANCH 19 23
ENDBRANCH 1 19
TORSDOF 14
ENDMDL
MODEL 27
REMARK VINA RESULT:      -0.2     48.638     53.663
ROOT
ATOM      1  C1  A00 X   1      40.931  44.621  25.7860  0.00  0.00     0.000 C
ATOM      2  C2  A00 X   1      41.375  45.622  24.6860  0.00  0.00     0.000 C
ATOM      3  C3  A00 X   1      41.231  47.139  25.0390  0.00  0.00     0.000 C
ATOM      4  C4  A00 X   1      40.339  47.459  26.2660  0.00  0.00     0.000 C
ATOM      5  C5  A00 X   1      39.349  46.334  26.5680  0.00  0.00     0.000 C
ATOM      6  O5  A00 X   1      40.176  45.192  26.8840  0.00  0.00     0.000 O
ATOM      7   O  A00 X   1      40.647  47.814  23.9270  0.00  0.00     0.000 O
ATOM      9  HD  A00 X   1      40.280  48.135  24.6420  0.00  0.00     0.000 HD
ATOM      9   O  A00 X   1      41.125  47.734  27.4250  0.00  0.00     0.000 O
ATOM     11  HD  A00 X   1      40.757  48.055  28.1400  0.00  0.00     0.000 HD
ENDROOT
BRANCH 2 11
ATOM     11   O  A00 X   1      42.752  45.342  24.3690  0.00  0.00     0.000 O
ATOM     12   O  A00 X   1      44.034  46.760  22.9150  0.00  0.00     0.000 OA
ATOM     13   O  A00 X   1      42.108  45.572  22.0240  0.00  0.00     0.000 OA
ATOM     14   O  A00 X   1      44.057  44.381  22.6880  0.00  0.00     0.000 OA
ATOM     15   S  A00 X   1      43.249  45.552  22.8970  0.00  0.00     0.000 S
ENDBRANCH 2 11
BRANCH 5 16
ATOM     16   C  A00 X   1      38.322  46.060  25.4640  0.00  0.00     0.000 C
ATOM     17   O  A00 X   1      37.646  45.055  25.5360  0.00  0.00     0.000 OA
ATOM     18   O  A00 X   1      38.156  46.815  24.5270  0.00  0.00     0.000 OA
ENDBRANCH 5 16
BRANCH 1 19
ATOM     19  O4  A00 X   2      40.273  43.449  25.2470  0.00  0.00     0.000 O
BRANCH 19 23
ATOM     20  C1  A00 X   2      42.125  40.754  28.0170  0.00  0.00     0.000 C
ATOM     21  C2  A00 X   2      42.762  40.883  26.6120  0.00  0.00     0.000 C
ATOM     22  C3  A00 X   2      42.275  42.165  25.9040  0.00  0.00     0.000 C
ATOM     23  C4  A00 X   2      40.731  42.215  25.8700  0.00  0.00     0.000 C
ATOM     24  C5  A00 X   2      40.219  42.057  27.3280  0.00  0.00     0.000 C
ATOM     25  O5  A00 X   2      40.683  40.785  27.8510  0.00  0.00     0.000 O
ATOM     26   O  A00 X   2      42.944  42.274  24.6360  0.00  0.00     0.000 O
ATOM     28  HD  A00 X   2      42.749  41.462  24.4060  0.00  0.00     0.000 HD
BRANCH 21 30
ATOM     28   N  A00 X   2      43.110  39.461  26.6800  0.00  0.00     0.000 N
ATOM     30  HD  A00 X   2      43.580  39.803  26.0380  0.00  0.00     0.000 HD
ATOM     30   O  A00 X   2      45.093  39.139  25.4880  0.00  0.00     0.000 OA
ATOM     31   S  A00 X   2      43.726  38.768  25.4000  0.00  0.00     0.000 S
ATOM     32   O  A00 X   2      43.462  37.377  25.6070  0.00  0.00     0.000 OA
ATOM     33   O  A00 X   2      42.994  39.249  24.2650  0.00  0.00     0.000 OA
ENDBRANCH 21 30
BRANCH 24 34
ATOM     34   C  A00 X   2      38.716  42.302  27.6000  0.00  0.00     0.000 C
ATOM     35   O  A00 X   2      36.402  39.732  28.7380  0.00  0.00     0.000 OA
ATOM     36   O  A00 X   2      37.991  41.059  27.6890  0.00  0.00     0.000 O
ATOM     37   O  A00 X   2      38.402  40.301  29.8630  0.00  0.00     0.000 OA
ATOM     38   S  A00 X   2      37.307  40.780  29.0770  0.00  0.00     0.000 S
ATOM     39   O  A00 X   2      36.690  42.008  29.4790  0.00  0.00     0.000 OA
ENDBRANCH 24 34
BRANCH 20 40
ATOM     40  O4  A00 X   3      42.550  41.916  28.7430  0.00  0.00     0.000 O
BRANCH 40 44
ATOM     41  C1  A00 X   3      41.638  44.632  30.9600  0.00  0.00     0.000 C
ATOM     42  C2  A00 X   3      43.046  44.420  30.3610  0.00  0.00     0.000 C
ATOM     43  C3  A00 X   3      43.536  42.968  30.5980  0.00  0.00     0.000 C
ATOM     44  C4  A00 X   3      42.543  41.889  30.1870  0.00  0.00     0.000 C
ATOM     45  C5  A00 X   3      41.156  42.168  30.8310  0.00  0.00     0.000 C
ATOM     46  O5  A00 X   3      40.738  43.551  30.5920  0.00  0.00     0.000 O
ATOM     47   O  A00 X   3      44.863  42.681  30.1620  0.00  0.00     0.000 O
ATOM     49  HD  A00 X   3      44.502  41.930  29.9240  0.00  0.00     0.000 HD
BRANCH 42 49
ATOM     49   O  A00 X   3      42.956  44.724  28.9520  0.00  0.00     0.000 O
ATOM     50   O  A00 X   3      44.435  44.668  27.0700  0.00  0.00     0.000 OA
ATOM     51   O  A00 X   3      45.247  45.482  29.1360  0.00  0.00     0.000 OA
ATOM     52   O  A00 X   3      43.624  46.756  27.9830  0.00  0.00     0.000 OA
ATOM     53   S  A00 X   3      44.128  45.448  28.2280  0.00  0.00     0.000 S
ENDBRANCH 42 49
BRANCH 45 54
ATOM     54   C  A00 X   3      41.130  41.778  32.3140  0.00  0.00     0.000 C
ATOM     55   O  A00 X   3      42.151  41.457  32.8870  0.00  0.00     0.000 OA
ATOM     56   O  A00 X   3      40.084  41.782  32.9430  0.00  0.00     0.000 OA
ENDBRANCH 45 54
BRANCH 41 57
ATOM     57  O4  A00 X   4      41.696  44.890  32.3810  0.00  0.00     0.000 O
BRANCH 57 61
ATOM     58  C1  A00 X   4      39.318  47.340  35.0230  0.00  0.00     0.000 C
ATOM     59  C2  A00 X   4      38.628  46.176  34.2690  0.00  0.00     0.000 C
ATOM     60  C3  A00 X   4      39.619  45.168  33.6530  0.00  0.00     0.000 C
ATOM     61  C4  A00 X   4      40.745  45.877  32.8700  0.00  0.00     0.000 C
ATOM     62  C5  A00 X   4      41.435  46.837  33.8710  0.00  0.00     0.000 C
ATOM     63  O5  A00 X   4      40.477  47.833  34.3140  0.00  0.00     0.000 O
BRANCH 59 66
ATOM     64   N  A00 X   4      37.840  46.692  33.1350  0.00  0.00     0.000 N
ATOM     66  HD  A00 X   4      38.103  47.431  32.7690  0.00  0.00     0.000 HD
ATOM     66   O  A00 X   4      36.087  47.192  34.7070  0.00  0.00     0.000 OA
ATOM     67   S  A00 X   4      36.262  46.869  33.3260  0.00  0.00     0.000 S
ATOM     68   O  A00 X   4      36.009  47.939  32.4050  0.00  0.00     0.000 OA
ATOM     69   O  A00 X   4      35.807  45.584  32.8750  0.00  0.00     0.000 OA
ENDBRANCH 59 66
BRANCH 62 70
ATOM     70   C  A00 X   4      42.673  47.566  33.2960  0.00  0.00     0.000 C
ATOM     71   O  A00 X   4      42.802  50.150  30.7640  0.00  0.00     0.000 OA
ATOM     72   O  A00 X   4      44.026  48.150  30.9790  0.00  0.00     0.000 OA
ATOM     73   O  A00 X   4      42.240  48.681  32.5000  0.00  0.00     0.000 O
ATOM     74   O  A00 X   4      41.708  48.068  30.2310  0.00  0.00     0.000 OA
ATOM     75   S  A00 X   4      42.705  48.738  31.0030  0.00  0.00     0.000 S
ENDBRANCH 62 70
ENDBRANCH 57 61
ENDBRANCH 41 57
ENDBRANCH 40 44
ENDBRANCH 20 40
ENDBRANCH 19 23
ENDBRANCH 1 19
TORSDOF 14
ENDMDL
MODEL 28
REMARK VINA RESULT:      -0.2     54.959     58.170
ROOT
ATOM      1  C1  A00 X   1      41.617  54.118  19.5950  0.00  0.00     0.000 C
ATOM      2  C2  A00 X   1      40.764  53.941  18.3100  0.00  0.00     0.000 C
ATOM      3  C3  A00 X   1      41.488  53.278  17.0920  0.00  0.00     0.000 C
ATOM      4  C4  A00 X   1      43.034  53.219  17.1840  0.00  0.00     0.000 C
ATOM      5  C5  A00 X   1      43.596  54.268  18.1430  0.00  0.00     0.000 C
ATOM      6  O5  A00 X   1      43.043  53.920  19.4320  0.00  0.00     0.000 O
ATOM      7   O  A00 X   1      41.180  54.024  15.9160  0.00  0.00     0.000 O
ATOM      9  HD  A00 X   1      42.021  53.820  15.8760  0.00  0.00     0.000 HD
ATOM      9   O  A00 X   1      43.485  51.921  17.5710  0.00  0.00     0.000 O
ATOM     11  HD  A00 X   1      44.325  51.716  17.5310  0.00  0.00     0.000 HD
ENDROOT
BRANCH 2 11
ATOM     11   O  A00 X   1      39.609  53.152  18.6560  0.00  0.00     0.000 O
ATOM     12   O  A00 X   1      37.877  52.671  17.0640  0.00  0.00     0.000 OA
ATOM     13   O  A00 X   1      38.269  54.976  17.7380  0.00  0.00     0.000 OA
ATOM     14   O  A00 X   1      37.375  53.404  19.2830  0.00  0.00     0.000 OA
ATOM     15   S  A00 X   1      38.203  53.593  18.1230  0.00  0.00     0.000 S
ENDBRANCH 2 11
BRANCH 5 16
ATOM     16   C  A00 X   1      43.336  55.722  17.7370  0.00  0.00     0.000 C
ATOM     17   O  A00 X   1      43.574  56.601  18.5400  0.00  0.00     0.000 OA
ATOM     18   O  A00 X   1      42.909  56.027  16.6410  0.00  0.00     0.000 OA
ENDBRANCH 5 16
BRANCH 1 19
ATOM     19  O4  A00 X   2      41.332  55.356  20.2910  0.00  0.00     0.000 O
BRANCH 19 23
ATOM     20  C1  A00 X   2      41.769  53.623  24.1860  0.00  0.00     0.000 C
ATOM     21  C2  A00 X   2      40.333  53.774  23.6280  0.00  0.00     0.000 C
ATOM     22  C3  A00 X   2      40.357  53.992  22.1010  0.00  0.00     0.000 C
ATOM     23  C4  A00 X   2      41.271  55.184  21.7360  0.00  0.00     0.000 C
ATOM     24  C5  A00 X   2      42.666  54.921  22.3650  0.00  0.00     0.000 C
ATOM     25  O5  A00 X   2      42.516  54.808  23.8040  0.00  0.00     0.000 O
ATOM     26   O  A00 X   2      39.002  54.057  21.6230  0.00  0.00     0.000 O
ATOM     28  HD  A00 X   2      38.768  54.643  22.2160  0.00  0.00     0.000 HD
BRANCH 21 30
ATOM     28   N  A00 X   2      39.869  54.037  24.9940  0.00  0.00     0.000 N
ATOM     30  HD  A00 X   2      39.167  53.853  24.5220  0.00  0.00     0.000 HD
ATOM     30   O  A00 X   2      37.691  53.217  25.1930  0.00  0.00     0.000 OA
ATOM     31   S  A00 X   2      38.364  54.466  25.2140  0.00  0.00     0.000 S
ATOM     32   O  A00 X   2      38.382  55.121  26.4860  0.00  0.00     0.000 OA
ATOM     33   O  A00 X   2      38.034  55.400  24.1790  0.00  0.00     0.000 OA
ENDBRANCH 21 30
BRANCH 24 34
ATOM     34   C  A00 X   2      43.833  55.852  21.9580  0.00  0.00     0.000 C
ATOM     35   O  A00 X   2      45.622  58.015  24.2760  0.00  0.00     0.000 OA
ATOM     36   O  A00 X   2      44.103  56.830  22.9820  0.00  0.00     0.000 O
ATOM     37   O  A00 X   2      45.391  55.679  24.5590  0.00  0.00     0.000 OA
ATOM     38   S  A00 X   2      45.537  56.751  23.6230  0.00  0.00     0.000 S
ATOM     39   O  A00 X   2      46.455  56.565  22.5390  0.00  0.00     0.000 OA
ENDBRANCH 24 34
BRANCH 20 40
ATOM     40  O4  A00 X   3      42.322  52.474  23.5270  0.00  0.00     0.000 O
BRANCH 40 44
ATOM     41  C1  A00 X   3      45.164  50.967  21.8600  0.00  0.00     0.000 C
ATOM     42  C2  A00 X   3      43.796  50.279  22.0650  0.00  0.00     0.000 C
ATOM     43  C3  A00 X   3      43.349  50.361  23.5470  0.00  0.00     0.000 C
ATOM     44  C4  A00 X   3      43.411  51.759  24.1500  0.00  0.00     0.000 C
ATOM     45  C5  A00 X   3      44.815  52.381  23.9090  0.00  0.00     0.000 C
ATOM     46  O5  A00 X   3      45.200  52.273  22.5010  0.00  0.00     0.000 O
ATOM     47   O  A00 X   3      42.138  49.682  23.8700  0.00  0.00     0.000 O
ATOM     49  HD  A00 X   3      42.014  50.377  24.3720  0.00  0.00     0.000 HD
BRANCH 42 49
ATOM     49   O  A00 X   3      42.855  50.941  21.1920  0.00  0.00     0.000 O
ATOM     50   O  A00 X   3      40.510  50.788  20.7370  0.00  0.00     0.000 OA
ATOM     51   O  A00 X   3      41.750  48.795  21.0240  0.00  0.00     0.000 OA
ATOM     52   O  A00 X   3      42.163  50.113  19.1060  0.00  0.00     0.000 OA
ATOM     53   S  A00 X   3      41.747  50.124  20.4660  0.00  0.00     0.000 S
ENDBRANCH 42 49
BRANCH 45 54
ATOM     54   C  A00 X   3      45.863  51.805  24.8680  0.00  0.00     0.000 C
ATOM     55   O  A00 X   3      46.964  52.308  24.9560  0.00  0.00     0.000 OA
ATOM     56   O  A00 X   3      45.610  50.829  25.5570  0.00  0.00     0.000 OA
ENDBRANCH 45 54
BRANCH 41 57
ATOM     57  O4  A00 X   4      46.258  50.100  22.2330  0.00  0.00     0.000 O
BRANCH 57 61
ATOM     58  C1  A00 X   4      50.281  49.635  20.7360  0.00  0.00     0.000 C
ATOM     59  C2  A00 X   4      49.872  50.996  21.3540  0.00  0.00     0.000 C
ATOM     60  C3  A00 X   4      48.563  50.934  22.1660  0.00  0.00     0.000 C
ATOM     61  C4  A00 X   4      47.443  50.205  21.3930  0.00  0.00     0.000 C
ATOM     62  C5  A00 X   4      47.990  48.794  21.0600  0.00  0.00     0.000 C
ATOM     63  O5  A00 X   4      49.146  48.924  20.1930  0.00  0.00     0.000 O
BRANCH 59 66
ATOM     64   N  A00 X   4      49.627  51.993  20.2960  0.00  0.00     0.000 N
ATOM     66  HD  A00 X   4      49.360  51.702  19.5260  0.00  0.00     0.000 HD
ATOM     66   O  A00 X   4      52.008  52.337  20.2060  0.00  0.00     0.000 OA
ATOM     67   S  A00 X   4      50.788  53.039  19.9570  0.00  0.00     0.000 S
ATOM     68   O  A00 X   4      50.501  53.306  18.5780  0.00  0.00     0.000 OA
ATOM     69   O  A00 X   4      50.436  54.107  20.8490  0.00  0.00     0.000 OA
ENDBRANCH 59 66
BRANCH 62 70
ATOM     70   C  A00 X   4      46.963  47.863  20.3740  0.00  0.00     0.000 C
ATOM     71   O  A00 X   4      45.570  48.099  17.0400  0.00  0.00     0.000 OA
ATOM     72   O  A00 X   4      44.518  47.796  19.1250  0.00  0.00     0.000 OA
ATOM     73   O  A00 X   4      46.886  48.188  18.9760  0.00  0.00     0.000 O
ATOM     74   O  A00 X   4      45.364  49.997  18.5120  0.00  0.00     0.000 OA
ATOM     75   S  A00 X   4      45.485  48.580  18.3900  0.00  0.00     0.000 S
ENDBRANCH 62 70
ENDBRANCH 57 61
ENDBRANCH 41 57
ENDBRANCH 40 44
ENDBRANCH 20 40
ENDBRANCH 19 23
ENDBRANCH 1 19
TORSDOF 14
ENDMDL
MODEL 29
REMARK VINA RESULT:      -0.2     49.352     53.725
ROOT
ATOM      1  C1  A00 X   1      37.523  27.927  49.9240  0.00  0.00     0.000 C
ATOM      2  C2  A00 X   1      37.809  26.917  51.0680  0.00  0.00     0.000 C
ATOM      3  C3  A00 X   1      36.602  26.029  51.5180  0.00  0.00     0.000 C
ATOM      4  C4  A00 X   1      35.206  26.507  51.0410  0.00  0.00     0.000 C
ATOM      5  C5  A00 X   1      35.191  27.997  50.7020  0.00  0.00     0.000 C
ATOM      6  O5  A00 X   1      36.125  28.133  49.6070  0.00  0.00     0.000 O
ATOM      7   O  A00 X   1      36.557  26.006  52.9430  0.00  0.00     0.000 O
ATOM      9  HD  A00 X   1      35.741  26.081  52.6630  0.00  0.00     0.000 HD
ATOM      9   O  A00 X   1      34.751  25.752  49.9180  0.00  0.00     0.000 O
ATOM     11  HD  A00 X   1      33.935  25.827  49.6390  0.00  0.00     0.000 HD
ENDROOT
BRANCH 2 11
ATOM     11   O  A00 X   1      38.886  26.062  50.6380  0.00  0.00     0.000 O
ATOM     12   O  A00 X   1      39.847  24.405  52.0870  0.00  0.00     0.000 OA
ATOM     13   O  A00 X   1      40.055  26.758  52.6670  0.00  0.00     0.000 OA
ATOM     14   O  A00 X   1      41.209  25.875  50.7840  0.00  0.00     0.000 OA
ATOM     15   S  A00 X   1      40.056  25.757  51.6360  0.00  0.00     0.000 S
ENDBRANCH 2 11
BRANCH 5 16
ATOM     16   C  A00 X   1      35.486  28.933  51.8790  0.00  0.00     0.000 C
ATOM     17   O  A00 X   1      35.674  30.110  51.6520  0.00  0.00     0.000 OA
ATOM     18   O  A00 X   1      35.532  28.540  53.0280  0.00  0.00     0.000 OA
ENDBRANCH 5 16
BRANCH 1 19
ATOM     19  O4  A00 X   2      38.216  29.186  50.1020  0.00  0.00     0.000 O
BRANCH 19 23
ATOM     20  C1  A00 X   2      38.999  29.694  45.9200  0.00  0.00     0.000 C
ATOM     21  C2  A00 X   2      40.137  29.115  46.7940  0.00  0.00     0.000 C
ATOM     22  C3  A00 X   2      39.586  28.594  48.1380  0.00  0.00     0.000 C
ATOM     23  C4  A00 X   2      38.777  29.696  48.8580  0.00  0.00     0.000 C
ATOM     24  C5  A00 X   2      37.687  30.203  47.8760  0.00  0.00     0.000 C
ATOM     25  O5  A00 X   2      38.336  30.732  46.6900  0.00  0.00     0.000 O
ATOM     26   O  A00 X   2      40.667  28.005  48.8820  0.00  0.00     0.000 O
ATOM     28  HD  A00 X   2      41.181  28.695  48.7780  0.00  0.00     0.000 HD
BRANCH 21 30
ATOM     28   N  A00 X   2      41.100  29.824  45.9450  0.00  0.00     0.000 N
ATOM     30  HD  A00 X   2      41.548  29.235  46.3950  0.00  0.00     0.000 HD
ATOM     30   O  A00 X   2      43.064  28.561  45.8620  0.00  0.00     0.000 OA
ATOM     31   S  A00 X   2      42.625  29.817  46.3590  0.00  0.00     0.000 S
ATOM     32   O  A00 X   2      43.165  30.956  45.6830  0.00  0.00     0.000 OA
ATOM     33   O  A00 X   2      42.680  30.009  47.7780  0.00  0.00     0.000 OA
ENDBRANCH 21 30
BRANCH 24 34
ATOM     34   C  A00 X   2      36.594  31.148  48.4290  0.00  0.00     0.000 C
ATOM     35   O  A00 X   2      37.274  34.385  49.9500  0.00  0.00     0.000 OA
ATOM     36   O  A00 X   2      37.164  32.168  49.2740  0.00  0.00     0.000 O
ATOM     37   O  A00 X   2      37.986  33.769  47.7810  0.00  0.00     0.000 OA
ATOM     38   S  A00 X   2      36.962  33.644  48.7730  0.00  0.00     0.000 S
ATOM     39   O  A00 X   2      35.601  33.742  48.3380  0.00  0.00     0.000 OA
ENDBRANCH 24 34
BRANCH 20 40
ATOM     40  O4  A00 X   3      38.089  28.607  45.6970  0.00  0.00     0.000 O
BRANCH 40 44
ATOM     41  C1  A00 X   3      34.645  27.490  45.5840  0.00  0.00     0.000 C
ATOM     42  C2  A00 X   3      35.873  26.581  45.3580  0.00  0.00     0.000 C
ATOM     43  C3  A00 X   3      36.831  27.195  44.3040  0.00  0.00     0.000 C
ATOM     44  C4  A00 X   3      37.203  28.650  44.5580  0.00  0.00     0.000 C
ATOM     45  C5  A00 X   3      35.918  29.499  44.7700  0.00  0.00     0.000 C
ATOM     46  O5  A00 X   3      35.040  28.878  45.7640  0.00  0.00     0.000 O
ATOM     47   O  A00 X   3      37.960  26.398  43.9500  0.00  0.00     0.000 O
ATOM     49  HD  A00 X   3      38.359  27.166  43.9490  0.00  0.00     0.000 HD
BRANCH 42 49
ATOM     49   O  A00 X   3      36.525  26.426  46.6370  0.00  0.00     0.000 O
ATOM     50   O  A00 X   3      38.497  25.342  47.4560  0.00  0.00     0.000 OA
ATOM     51   O  A00 X   3      37.156  24.221  45.8630  0.00  0.00     0.000 OA
ATOM     52   O  A00 X   3      36.285  24.554  48.0350  0.00  0.00     0.000 OA
ATOM     53   S  A00 X   3      37.160  25.061  47.0350  0.00  0.00     0.000 S
ENDBRANCH 42 49
BRANCH 45 54
ATOM     54   C  A00 X   3      35.211  29.799  43.4430  0.00  0.00     0.000 C
ATOM     55   O  A00 X   3      34.265  30.559  43.4050  0.00  0.00     0.000 OA
ATOM     56   O  A00 X   3      35.584  29.279  42.4040  0.00  0.00     0.000 OA
ENDBRANCH 45 54
BRANCH 41 57
ATOM     57  O4  A00 X   4      33.640  27.293  44.5640  0.00  0.00     0.000 O
BRANCH 57 61
ATOM     58  C1  A00 X   4      29.326  27.458  44.6220  0.00  0.00     0.000 C
ATOM     59  C2  A00 X   4      30.122  28.735  44.9880  0.00  0.00     0.000 C
ATOM     60  C3  A00 X   4      31.610  28.668  44.5900  0.00  0.00     0.000 C
ATOM     61  C4  A00 X   4      32.263  27.342  45.0360  0.00  0.00     0.000 C
ATOM     62  C5  A00 X   4      31.433  26.207  44.3860  0.00  0.00     0.000 C
ATOM     63  O5  A00 X   4      30.077  26.254  44.8990  0.00  0.00     0.000 O
BRANCH 59 66
ATOM     64   N  A00 X   4      30.106  28.920  46.4500  0.00  0.00     0.000 N
ATOM     66  HD  A00 X   4      30.022  28.212  46.9420  0.00  0.00     0.000 HD
ATOM     66   O  A00 X   4      27.939  29.940  46.1970  0.00  0.00     0.000 OA
ATOM     67   S  A00 X   4      29.070  29.971  47.0700  0.00  0.00     0.000 S
ATOM     68   O  A00 X   4      28.865  29.397  48.3670  0.00  0.00     0.000 OA
ATOM     69   O  A00 X   4      29.882  31.154  47.0720  0.00  0.00     0.000 OA
ENDBRANCH 59 66
BRANCH 62 70
ATOM     70   C  A00 X   4      32.002  24.789  44.6280  0.00  0.00     0.000 C
ATOM     71   O  A00 X   4      32.126  22.899  47.7140  0.00  0.00     0.000 OA
ATOM     72   O  A00 X   4      33.801  23.345  46.1200  0.00  0.00     0.000 OA
ATOM     73   O  A00 X   4      31.619  24.341  45.9380  0.00  0.00     0.000 O
ATOM     74   O  A00 X   4      33.115  25.098  47.6690  0.00  0.00     0.000 OA
ATOM     75   S  A00 X   4      32.757  23.927  46.9350  0.00  0.00     0.000 S
ENDBRANCH 62 70
ENDBRANCH 57 61
ENDBRANCH 41 57
ENDBRANCH 40 44
ENDBRANCH 20 40
ENDBRANCH 19 23
ENDBRANCH 1 19
TORSDOF 14
ENDMDL
MODEL 30
REMARK VINA RESULT:      -0.2     64.291     68.272
ROOT
ATOM      1  C1  A00 X   1      14.066  34.406  64.5090  0.00  0.00     0.000 C
ATOM      2  C2  A00 X   1      13.331  33.220  65.1900  0.00  0.00     0.000 C
ATOM      3  C3  A00 X   1      13.744  32.913  66.6670  0.00  0.00     0.000 C
ATOM      4  C4  A00 X   1      15.066  33.570  67.1420  0.00  0.00     0.000 C
ATOM      5  C5  A00 X   1      15.983  33.931  65.9740  0.00  0.00     0.000 C
ATOM      6  O5  A00 X   1      15.235  34.901  65.2060  0.00  0.00     0.000 O
ATOM      7   O  A00 X   1      13.917  31.506  66.8110  0.00  0.00     0.000 O
ATOM      9  HD  A00 X   1      14.561  31.888  67.2460  0.00  0.00     0.000 HD
ATOM      9   O  A00 X   1      14.817  34.730  67.9360  0.00  0.00     0.000 O
ATOM     11  HD  A00 X   1      15.460  35.112  68.3720  0.00  0.00     0.000 HD
ENDROOT
BRANCH 2 11
ATOM     11   O  A00 X   1      11.918  33.497  65.1460  0.00  0.00     0.000 O
ATOM     12   O  A00 X   1      10.291  31.926  65.9540  0.00  0.00     0.000 OA
ATOM     13   O  A00 X   1      11.676  31.330  64.0450  0.00  0.00     0.000 OA
ATOM     14   O  A00 X   1      10.029  33.035  63.8530  0.00  0.00     0.000 OA
ATOM     15   S  A00 X   1      10.933  32.348  64.7350  0.00  0.00     0.000 S
ENDBRANCH 2 11
BRANCH 5 16
ATOM     16   C  A00 X   1      16.475  32.741  65.1440  0.00  0.00     0.000 C
ATOM     17   O  A00 X   1      17.028  32.959  64.0860  0.00  0.00     0.000 OA
ATOM     18   O  A00 X   1      16.338  31.591  65.5100  0.00  0.00     0.000 OA
ENDBRANCH 5 16
BRANCH 1 19
ATOM     19  O4  A00 X   2      14.349  34.161  63.1100  0.00  0.00     0.000 O
BRANCH 19 23
ATOM     20  C1  A00 X   2      13.603  38.214  61.9350  0.00  0.00     0.000 C
ATOM     21  C2  A00 X   2      12.461  37.189  61.7290  0.00  0.00     0.000 C
ATOM     22  C3  A00 X   2      12.705  35.919  62.5730  0.00  0.00     0.000 C
ATOM     23  C4  A00 X   2      14.102  35.330  62.2760  0.00  0.00     0.000 C
ATOM     24  C5  A00 X   2      15.149  36.455  62.5000  0.00  0.00     0.000 C
ATOM     25  O5  A00 X   2      14.853  37.554  61.6000  0.00  0.00     0.000 O
ATOM     26   O  A00 X   2      11.587  35.031  62.4010  0.00  0.00     0.000 O
ATOM     28  HD  A00 X   2      11.617  35.079  61.5370  0.00  0.00     0.000 HD
BRANCH 21 30
ATOM     28   N  A00 X   2      12.075  37.922  60.5200  0.00  0.00     0.000 N
ATOM     30  HD  A00 X   2      11.410  37.405  60.7230  0.00  0.00     0.000 HD
ATOM     30   O  A00 X   2       9.762  37.722  60.2560  0.00  0.00     0.000 OA
ATOM     31   S  A00 X   2      10.949  37.314  59.5920  0.00  0.00     0.000 S
ATOM     32   O  A00 X   2      11.179  37.940  58.3260  0.00  0.00     0.000 OA
ATOM     33   O  A00 X   2      11.191  35.905  59.5010  0.00  0.00     0.000 OA
ENDBRANCH 21 30
BRANCH 24 34
ATOM     34   C  A00 X   2      16.646  36.064  62.4930  0.00  0.00     0.000 C
ATOM     35   O  A00 X   2      19.070  37.316  60.0810  0.00  0.00     0.000 OA
ATOM     36   O  A00 X   2      17.272  36.418  61.2430  0.00  0.00     0.000 O
ATOM     37   O  A00 X   2      17.727  38.703  61.4460  0.00  0.00     0.000 OA
ATOM     38   S  A00 X   2      18.440  37.466  61.3510  0.00  0.00     0.000 S
ATOM     39   O  A00 X   2      19.236  37.071  62.4740  0.00  0.00     0.000 OA
ENDBRANCH 24 34
BRANCH 20 40
ATOM     40  O4  A00 X   3      13.589  38.535  63.3340  0.00  0.00     0.000 O
BRANCH 40 44
ATOM     41  C1  A00 X   3      15.460  39.120  66.3800  0.00  0.00     0.000 C
ATOM     42  C2  A00 X   3      13.920  39.154  66.2730  0.00  0.00     0.000 C
ATOM     43  C3  A00 X   3      13.465  40.070  65.1080  0.00  0.00     0.000 C
ATOM     44  C4  A00 X   3      14.150  39.789  63.7760  0.00  0.00     0.000 C
ATOM     45  C5  A00 X   3      15.693  39.776  63.9640  0.00  0.00     0.000 C
ATOM     46  O5  A00 X   3      16.077  38.908  65.0790  0.00  0.00     0.000 O
ATOM     47   O  A00 X   3      12.056  40.246  64.9680  0.00  0.00     0.000 O
ATOM     49  HD  A00 X   3      12.248  40.203  64.1250  0.00  0.00     0.000 HD
BRANCH 42 49
ATOM     49   O  A00 X   3      13.480  37.792  66.0770  0.00  0.00     0.000 O
ATOM     50   O  A00 X   3      11.389  36.681  65.7240  0.00  0.00     0.000 OA
ATOM     51   O  A00 X   3      11.499  38.427  67.3140  0.00  0.00     0.000 OA
ATOM     52   O  A00 X   3      12.637  36.408  67.7770  0.00  0.00     0.000 OA
ATOM     53   S  A00 X   3      12.175  37.283  66.7550  0.00  0.00     0.000 S
ENDBRANCH 42 49
BRANCH 45 54
ATOM     54   C  A00 X   3      16.262  41.195  64.0800  0.00  0.00     0.000 C
ATOM     55   O  A00 X   3      17.461  41.385  64.0560  0.00  0.00     0.000 OA
ATOM     56   O  A00 X   3      15.521  42.159  64.2010  0.00  0.00     0.000 OA
ENDBRANCH 45 54
BRANCH 41 57
ATOM     57  O4  A00 X   4      15.971  40.270  67.0910  0.00  0.00     0.000 O
BRANCH 57 61
ATOM     58  C1  A00 X   4      19.354  40.839  69.7120  0.00  0.00     0.000 C
ATOM     59  C2  A00 X   4      19.616  40.406  68.2480  0.00  0.00     0.000 C
ATOM     60  C3  A00 X   4      18.391  40.583  67.3270  0.00  0.00     0.000 C
ATOM     61  C4  A00 X   4      17.109  40.003  67.9600  0.00  0.00     0.000 C
ATOM     62  C5  A00 X   4      16.927  40.727  69.3180  0.00  0.00     0.000 C
ATOM     63  O5  A00 X   4      18.053  40.416  70.1780  0.00  0.00     0.000 O
BRANCH 59 66
ATOM     64   N  A00 X   4      19.954  38.974  68.1540  0.00  0.00     0.000 N
ATOM     66  HD  A00 X   4      19.626  38.446  68.7570  0.00  0.00     0.000 HD
ATOM     66   O  A00 X   4      22.200  39.566  68.7910  0.00  0.00     0.000 OA
ATOM     67   S  A00 X   4      21.497  38.566  68.0500  0.00  0.00     0.000 S
ATOM     68   O  A00 X   4      21.461  37.264  68.6500  0.00  0.00     0.000 OA
ATOM     69   O  A00 X   4      21.659  38.552  66.6230  0.00  0.00     0.000 OA
ENDBRANCH 59 66
BRANCH 62 70
ATOM     70   C  A00 X   4      15.622  40.356  70.0620  0.00  0.00     0.000 C
ATOM     71   O  A00 X   4      14.731  37.223  71.6420  0.00  0.00     0.000 OA
ATOM     72   O  A00 X   4      13.535  38.572  70.1260  0.00  0.00     0.000 OA
ATOM     73   O  A00 X   4      15.801  39.101  70.7380  0.00  0.00     0.000 O
ATOM     74   O  A00 X   4      15.380  37.199  69.3190  0.00  0.00     0.000 OA
ATOM     75   S  A00 X   4      14.806  37.937  70.3980  0.00  0.00     0.000 S
ENDBRANCH 62 70
ENDBRANCH 57 61
ENDBRANCH 41 57
ENDBRANCH 40 44
ENDBRANCH 20 40
ENDBRANCH 19 23
ENDBRANCH 1 19
TORSDOF 14
ENDMDL
MODEL 31
REMARK VINA RESULT:      -0.2     64.700     68.780
ROOT
ATOM      1  C1  A00 X   1      12.932  34.264  64.9260  0.00  0.00     0.000 C
ATOM      2  C2  A00 X   1      12.437  32.920  65.5230  0.00  0.00     0.000 C
ATOM      3  C3  A00 X   1      12.829  32.643  67.0120  0.00  0.00     0.000 C
ATOM      4  C4  A00 X   1      13.951  33.546  67.5860  0.00  0.00     0.000 C
ATOM      5  C5  A00 X   1      14.828  34.146  66.4870  0.00  0.00     0.000 C
ATOM      6  O5  A00 X   1      13.929  34.967  65.7080  0.00  0.00     0.000 O
ATOM      7   O  A00 X   1      13.295  31.300  67.1200  0.00  0.00     0.000 O
ATOM      9  HD  A00 X   1      13.817  31.791  67.6060  0.00  0.00     0.000 HD
ATOM      9   O  A00 X   1      13.417  34.589  68.4010  0.00  0.00     0.000 O
ATOM     11  HD  A00 X   1      13.939  35.080  68.8860  0.00  0.00     0.000 HD
ENDROOT
BRANCH 2 11
ATOM     11   O  A00 X   1      11.001  32.889  65.4030  0.00  0.00     0.000 O
ATOM     12   O  A00 X   1       9.713  30.972  66.0610  0.00  0.00     0.000 OA
ATOM     13   O  A00 X   1      11.291  30.771  64.2210  0.00  0.00     0.000 OA
ATOM     14   O  A00 X   1       9.327  32.091  63.9840  0.00  0.00     0.000 OA
ATOM     15   S  A00 X   1      10.311  31.575  64.8970  0.00  0.00     0.000 S
ENDBRANCH 2 11
BRANCH 5 16
ATOM     16   C  A00 X   1      15.608  33.127  65.6510  0.00  0.00     0.000 C
ATOM     17   O  A00 X   1      16.155  33.505  64.6350  0.00  0.00     0.000 OA
ATOM     18   O  A00 X   1      15.704  31.959  65.9710  0.00  0.00     0.000 OA
ENDBRANCH 5 16
BRANCH 1 19
ATOM     19  O4  A00 X   2      13.334  34.147  63.5390  0.00  0.00     0.000 O
BRANCH 19 23
ATOM     20  C1  A00 X   2      11.790  37.995  62.4520  0.00  0.00     0.000 C
ATOM     21  C2  A00 X   2      10.910  36.759  62.1460  0.00  0.00     0.000 C
ATOM     22  C3  A00 X   2      11.378  35.535  62.9610  0.00  0.00     0.000 C
ATOM     23  C4  A00 X   2      12.883  35.272  62.7300  0.00  0.00     0.000 C
ATOM     24  C5  A00 X   2      13.649  36.584  63.0520  0.00  0.00     0.000 C
ATOM     25  O5  A00 X   2      13.169  37.633  62.1720  0.00  0.00     0.000 O
ATOM     26   O  A00 X   2      10.490  34.436  62.6940  0.00  0.00     0.000 O
ATOM     28  HD  A00 X   2      10.553  34.528  61.8350  0.00  0.00     0.000 HD
BRANCH 21 30
ATOM     28   N  A00 X   2      10.437  37.445  60.9390  0.00  0.00     0.000 N
ATOM     30  HD  A00 X   2       9.891  36.790  61.0850  0.00  0.00     0.000 HD
ATOM     30   O  A00 X   2       8.239  36.766  60.5300  0.00  0.00     0.000 OA
ATOM     31   S  A00 X   2       9.519  36.652  59.9260  0.00  0.00     0.000 S
ATOM     32   O  A00 X   2       9.673  37.368  58.6980  0.00  0.00     0.000 OA
ATOM     33   O  A00 X   2      10.064  35.333  59.8040  0.00  0.00     0.000 OA
ENDBRANCH 21 30
BRANCH 24 34
ATOM     34   C  A00 X   2      15.193  36.524  63.1230  0.00  0.00     0.000 C
ATOM     35   O  A00 X   2      17.411  38.370  60.9020  0.00  0.00     0.000 OA
ATOM     36   O  A00 X   2      15.792  37.058  61.9250  0.00  0.00     0.000 O
ATOM     37   O  A00 X   2      15.731  39.377  62.2280  0.00  0.00     0.000 OA
ATOM     38   S  A00 X   2      16.698  38.326  62.1370  0.00  0.00     0.000 S
ATOM     39   O  A00 X   2      17.502  38.061  63.2920  0.00  0.00     0.000 OA
ENDBRANCH 24 34
BRANCH 20 40
ATOM     40  O4  A00 X   3      11.635  38.243  63.8570  0.00  0.00     0.000 O
BRANCH 40 44
ATOM     41  C1  A00 X   3      13.176  39.080  67.0270  0.00  0.00     0.000 C
ATOM     42  C2  A00 X   3      11.672  38.788  66.8290  0.00  0.00     0.000 C
ATOM     43  C3  A00 X   3      11.090  39.635  65.6690  0.00  0.00     0.000 C
ATOM     44  C4  A00 X   3      11.888  39.567  64.3730  0.00  0.00     0.000 C
ATOM     45  C5  A00 X   3      13.385  39.877  64.6520  0.00  0.00     0.000 C
ATOM     46  O5  A00 X   3      13.890  39.063  65.7600  0.00  0.00     0.000 O
ATOM     47   O  A00 X   3       9.686  39.512  65.4510  0.00  0.00     0.000 O
ATOM     49  HD  A00 X   3       9.926  39.548  64.6190  0.00  0.00     0.000 HD
BRANCH 42 49
ATOM     49   O  A00 X   3      11.548  37.373  66.5640  0.00  0.00     0.000 O
ATOM     50   O  A00 X   3       9.767  35.857  66.0500  0.00  0.00     0.000 OA
ATOM     51   O  A00 X   3       9.415  37.514  67.6990  0.00  0.00     0.000 OA
ATOM     52   O  A00 X   3      10.937  35.767  68.1640  0.00  0.00     0.000 OA
ATOM     53   S  A00 X   3      10.350  36.567  67.1450  0.00  0.00     0.000 S
ENDBRANCH 42 49
BRANCH 45 54
ATOM     54   C  A00 X   3      13.628  41.378  64.8480  0.00  0.00     0.000 C
ATOM     55   O  A00 X   3      14.757  41.821  64.9020  0.00  0.00     0.000 OA
ATOM     56   O  A00 X   3      12.691  42.154  64.9550  0.00  0.00     0.000 OA
ENDBRANCH 45 54
BRANCH 41 57
ATOM     57  O4  A00 X   4      13.388  40.279  67.8050  0.00  0.00     0.000 O
BRANCH 57 61
ATOM     58  C1  A00 X   4      16.428  41.442  70.6420  0.00  0.00     0.000 C
ATOM     59  C2  A00 X   4      16.852  41.141  69.1830  0.00  0.00     0.000 C
ATOM     60  C3  A00 X   4      15.668  41.093  68.1960  0.00  0.00     0.000 C
ATOM     61  C4  A00 X   4      14.510  40.224  68.7320  0.00  0.00     0.000 C
ATOM     62  C5  A00 X   4      14.106  40.831  70.0980  0.00  0.00     0.000 C
ATOM     63  O5  A00 X   4      15.226  40.730  71.0150  0.00  0.00     0.000 O
BRANCH 59 66
ATOM     64   N  A00 X   4      17.496  39.821  69.0630  0.00  0.00     0.000 N
ATOM     66  HD  A00 X   4      17.260  39.208  69.6280  0.00  0.00     0.000 HD
ATOM     66   O  A00 X   4      19.525  40.850  69.8530  0.00  0.00     0.000 OA
ATOM     67   S  A00 X   4      19.094  39.757  69.0390  0.00  0.00     0.000 S
ATOM     68   O  A00 X   4      19.310  38.452  69.5930  0.00  0.00     0.000 OA
ATOM     69   O  A00 X   4      19.329  39.841  67.6250  0.00  0.00     0.000 OA
ENDBRANCH 59 66
BRANCH 62 70
ATOM     70   C  A00 X   4      12.875  40.157  70.7500  0.00  0.00     0.000 C
ATOM     71   O  A00 X   4      12.602  36.839  72.1720  0.00  0.00     0.000 OA
ATOM     72   O  A00 X   4      11.223  37.967  70.6320  0.00  0.00     0.000 OA
ATOM     73   O  A00 X   4      13.286  38.941  71.3950  0.00  0.00     0.000 O
ATOM     74   O  A00 X   4      13.360  37.058  69.8940  0.00  0.00     0.000 OA
ATOM     75   S  A00 X   4      12.585  37.607  70.9590  0.00  0.00     0.000 S
ENDBRANCH 62 70
ENDBRANCH 57 61
ENDBRANCH 41 57
ENDBRANCH 40 44
ENDBRANCH 20 40
ENDBRANCH 19 23
ENDBRANCH 1 19
TORSDOF 14
ENDMDL
MODEL 32
REMARK VINA RESULT:      -0.2     28.579     34.032
ROOT
ATOM      1  C1  A00 X   1      43.760  10.032  14.1710  0.00  0.00     0.000 C
ATOM      2  C2  A00 X   1      43.691  11.575  14.0200  0.00  0.00     0.000 C
ATOM      3  C3  A00 X   1      44.715  12.396  14.8710  0.00  0.00     0.000 C
ATOM      4  C4  A00 X   1      45.410  11.615  16.0160  0.00  0.00     0.000 C
ATOM      5  C5  A00 X   1      44.604  10.392  16.4530  0.00  0.00     0.000 C
ATOM      6  O5  A00 X   1      44.556   9.547  15.2820  0.00  0.00     0.000 O
ATOM      7   O  A00 X   1      44.032  13.488  15.4820  0.00  0.00     0.000 O
ATOM      9  HD  A00 X   1      44.574  13.162  16.0740  0.00  0.00     0.000 HD
ATOM      9   O  A00 X   1      46.731  11.217  15.6500  0.00  0.00     0.000 O
ATOM     11  HD  A00 X   1      47.273  10.892  16.2420  0.00  0.00     0.000 HD
ENDROOT
BRANCH 2 11
ATOM     11   O  A00 X   1      43.882  11.888  12.6270  0.00  0.00     0.000 O
ATOM     12   O  A00 X   1      44.123  14.149  11.8540  0.00  0.00     0.000 OA
ATOM     13   O  A00 X   1      42.026  13.457  12.8750  0.00  0.00     0.000 OA
ATOM     14   O  A00 X   1      42.677  12.595  10.7560  0.00  0.00     0.000 OA
ATOM     15   S  A00 X   1      43.128  13.119  12.0160  0.00  0.00     0.000 S
ENDBRANCH 2 11
BRANCH 5 16
ATOM     16   C  A00 X   1      43.225  10.702  17.0430  0.00  0.00     0.000 C
ATOM     17   O  A00 X   1      42.446   9.787  17.2120  0.00  0.00     0.000 OA
ATOM     18   O  A00 X   1      42.886  11.827  17.3530  0.00  0.00     0.000 OA
ENDBRANCH 5 16
BRANCH 1 19
ATOM     19  O4  A00 X   2      42.454   9.406  14.1440  0.00  0.00     0.000 O
BRANCH 19 23
ATOM     20  C1  A00 X   2      43.773   6.053  11.8250  0.00  0.00     0.000 C
ATOM     21  C2  A00 X   2      43.070   7.208  11.0740  0.00  0.00     0.000 C
ATOM     22  C3  A00 X   2      43.050   8.490  11.9320  0.00  0.00     0.000 C
ATOM     23  C4  A00 X   2      42.426   8.207  13.3180  0.00  0.00     0.000 C
ATOM     24  C5  A00 X   2      43.204   7.024  13.9560  0.00  0.00     0.000 C
ATOM     25  O5  A00 X   2      43.084   5.865  13.0900  0.00  0.00     0.000 O
ATOM     26   O  A00 X   2      42.450   9.549  11.1670  0.00  0.00     0.000 O
ATOM     28  HD  A00 X   2      41.760   9.071  10.9520  0.00  0.00     0.000 HD
BRANCH 21 30
ATOM     28   N  A00 X   2      42.486   6.214  10.1680  0.00  0.00     0.000 N
ATOM     30  HD  A00 X   2      42.392   6.986   9.7870  0.00  0.00     0.000 HD
ATOM     30   O  A00 X   2      42.241   7.202   8.0650  0.00  0.00     0.000 OA
ATOM     31   S  A00 X   2      41.419   6.692   9.1040  0.00  0.00     0.000 S
ATOM     32   O  A00 X   2      40.706   5.495   8.7780  0.00  0.00     0.000 OA
ATOM     33   O  A00 X   2      40.552   7.623   9.7630  0.00  0.00     0.000 OA
ENDBRANCH 21 30
BRANCH 24 34
ATOM     34   C  A00 X   2      42.927   6.691  15.4410  0.00  0.00     0.000 C
ATOM     35   O  A00 X   2      39.643   5.845  16.7660  0.00  0.00     0.000 OA
ATOM     36   O  A00 X   2      41.517   6.747  15.7350  0.00  0.00     0.000 O
ATOM     37   O  A00 X   2      40.682   4.698  14.9770  0.00  0.00     0.000 OA
ATOM     38   S  A00 X   2      40.878   5.392  16.2130  0.00  0.00     0.000 S
ATOM     39   O  A00 X   2      41.792   4.823  17.1570  0.00  0.00     0.000 OA
ENDBRANCH 24 34
BRANCH 20 40
ATOM     40  O4  A00 X   3      45.112   6.508  12.0710  0.00  0.00     0.000 O
BRANCH 40 44
ATOM     41  C1  A00 X   3      47.840   6.804  14.4360  0.00  0.00     0.000 C
ATOM     42  C2  A00 X   3      47.860   7.360  12.9950  0.00  0.00     0.000 C
ATOM     43  C3  A00 X   3      47.447   6.269  11.9740  0.00  0.00     0.000 C
ATOM     44  C4  A00 X   3      46.154   5.539  12.3150  0.00  0.00     0.000 C
ATOM     45  C5  A00 X   3      46.213   5.006  13.7740  0.00  0.00     0.000 C
ATOM     46  O5  A00 X   3      46.616   6.066  14.7020  0.00  0.00     0.000 O
ATOM     47   O  A00 X   3      47.512   6.646  10.6000  0.00  0.00     0.000 O
ATOM     49  HD  A00 X   3      46.783   6.180  10.5540  0.00  0.00     0.000 HD
BRANCH 42 49
ATOM     49   O  A00 X   3      46.953   8.484  12.9630  0.00  0.00     0.000 O
ATOM     50   O  A00 X   3      46.159  10.023  11.3100  0.00  0.00     0.000 OA
ATOM     51   O  A00 X   3      48.449   9.435  11.3160  0.00  0.00     0.000 OA
ATOM     52   O  A00 X   3      47.614  10.732  13.1060  0.00  0.00     0.000 OA
ATOM     53   S  A00 X   3      47.300   9.750  12.1270  0.00  0.00     0.000 S
ENDBRANCH 42 49
BRANCH 45 54
ATOM     54   C  A00 X   3      47.079   3.746  13.8840  0.00  0.00     0.000 C
ATOM     55   O  A00 X   3      47.097   3.094  14.9080  0.00  0.00     0.000 OA
ATOM     56   O  A00 X   3      47.768   3.377  12.9450  0.00  0.00     0.000 OA
ENDBRANCH 45 54
BRANCH 41 57
ATOM     57  O4  A00 X   4      49.047   6.070  14.7410  0.00  0.00     0.000 O
BRANCH 57 61
ATOM     58  C1  A00 X   4      51.335   5.554  18.3650  0.00  0.00     0.000 C
ATOM     59  C2  A00 X   4      49.868   5.058  18.3380  0.00  0.00     0.000 C
ATOM     60  C3  A00 X   4      49.278   4.964  16.9170  0.00  0.00     0.000 C
ATOM     61  C4  A00 X   4      49.550   6.243  16.0960  0.00  0.00     0.000 C
ATOM     62  C5  A00 X   4      51.087   6.430  16.0780  0.00  0.00     0.000 C
ATOM     63  O5  A00 X   4      51.559   6.638  17.4340  0.00  0.00     0.000 O
BRANCH 59 66
ATOM     64   N  A00 X   4      49.007   6.010  19.0640  0.00  0.00     0.000 N
ATOM     66  HD  A00 X   4      49.261   6.837  19.0920  0.00  0.00     0.000 HD
ATOM     66   O  A00 X   4      49.696   4.925  21.1010  0.00  0.00     0.000 OA
ATOM     67   S  A00 X   4      48.591   5.659  20.5680  0.00  0.00     0.000 S
ATOM     68   O  A00 X   4      48.413   6.978  21.1010  0.00  0.00     0.000 OA
ATOM     69   O  A00 X   4      47.366   4.950  20.3330  0.00  0.00     0.000 OA
ENDBRANCH 59 66
BRANCH 62 70
ATOM     70   C  A00 X   4      51.570   7.612  15.2040  0.00  0.00     0.000 C
ATOM     71   O  A00 X   4      51.160  11.163  15.7750  0.00  0.00     0.000 OA
ATOM     72   O  A00 X   4      50.743   9.859  13.8590  0.00  0.00     0.000 OA
ATOM     73   O  A00 X   4      51.409   8.839  15.9330  0.00  0.00     0.000 O
ATOM     74   O  A00 X   4      49.194   9.767  15.7380  0.00  0.00     0.000 OA
ATOM     75   S  A00 X   4      50.533   9.967  15.2860  0.00  0.00     0.000 S
ENDBRANCH 62 70
ENDBRANCH 57 61
ENDBRANCH 41 57
ENDBRANCH 40 44
ENDBRANCH 20 40
ENDBRANCH 19 23
ENDBRANCH 1 19
TORSDOF 14
ENDMDL
MODEL 33
REMARK VINA RESULT:      -0.2     50.326     55.609
ROOT
ATOM      1  C1  A00 X   1      51.258  47.070  11.5320  0.00  0.00     0.000 C
ATOM      2  C2  A00 X   1      51.513  48.446  10.8610  0.00  0.00     0.000 C
ATOM      3  C3  A00 X   1      52.996  48.944  10.8580  0.00  0.00     0.000 C
ATOM      4  C4  A00 X   1      53.952  48.204  11.8280  0.00  0.00     0.000 C
ATOM      5  C5  A00 X   1      53.200  47.521  12.9710  0.00  0.00     0.000 C
ATOM      6  O5  A00 X   1      52.354  46.546  12.3220  0.00  0.00     0.000 O
ATOM      7   O  A00 X   1      53.017  50.318  11.2400  0.00  0.00     0.000 O
ATOM      9  HD  A00 X   1      53.682  49.932  11.6390  0.00  0.00     0.000 HD
ATOM      9   O  A00 X   1      54.755  47.245  11.1390  0.00  0.00     0.000 O
ATOM     11  HD  A00 X   1      55.420  46.859  11.5380  0.00  0.00     0.000 HD
ENDROOT
BRANCH 2 11
ATOM     11   O  A00 X   1      51.044  48.364   9.5010  0.00  0.00     0.000 O
ATOM     12   O  A00 X   1      51.445  50.120   7.9120  0.00  0.00     0.000 OA
ATOM     13   O  A00 X   1      50.062  50.572   9.8610  0.00  0.00     0.000 OA
ATOM     14   O  A00 X   1      49.291  49.110   8.1500  0.00  0.00     0.000 OA
ATOM     15   S  A00 X   1      50.440  49.646   8.8300  0.00  0.00     0.000 S
ENDBRANCH 2 11
BRANCH 5 16
ATOM     16   C  A00 X   1      52.439  48.469  13.9030  0.00  0.00     0.000 C
ATOM     17   O  A00 X   1      51.654  47.996  14.6990  0.00  0.00     0.000 OA
ATOM     18   O  A00 X   1      52.599  49.674  13.8800  0.00  0.00     0.000 OA
ENDBRANCH 5 16
BRANCH 1 19
ATOM     19  O4  A00 X   2      50.009  47.026  12.2650  0.00  0.00     0.000 O
BRANCH 19 23
ATOM     20  C1  A00 X   2      49.076  43.026  11.0420  0.00  0.00     0.000 C
ATOM     21  C2  A00 X   2      48.419  44.186  10.2550  0.00  0.00     0.000 C
ATOM     22  C3  A00 X   2      49.162  45.513  10.5090  0.00  0.00     0.000 C
ATOM     23  C4  A00 X   2      49.263  45.798  12.0250  0.00  0.00     0.000 C
ATOM     24  C5  A00 X   2      49.918  44.561  12.6980  0.00  0.00     0.000 C
ATOM     25  O5  A00 X   2      49.087  43.398  12.4460  0.00  0.00     0.000 O
ATOM     26   O  A00 X   2      48.559  46.541   9.7060  0.00  0.00     0.000 O
ATOM     28  HD  A00 X   2      47.758  46.349   9.9720  0.00  0.00     0.000 HD
BRANCH 21 30
ATOM     28   N  A00 X   2      47.228  43.347  10.0890  0.00  0.00     0.000 N
ATOM     30  HD  A00 X   2      47.160  43.995   9.5180  0.00  0.00     0.000 HD
ATOM     30   O  A00 X   2      46.232  43.894   8.0470  0.00  0.00     0.000 OA
ATOM     31   S  A00 X   2      45.937  43.983   9.4330  0.00  0.00     0.000 S
ATOM     32   O  A00 X   2      44.877  43.134   9.8810  0.00  0.00     0.000 OA
ATOM     33   O  A00 X   2      45.788  45.297   9.9830  0.00  0.00     0.000 OA
ENDBRANCH 21 30
BRANCH 24 34
ATOM     34   C  A00 X   2      50.343  44.681  14.1800  0.00  0.00     0.000 C
ATOM     35   O  A00 X   2      48.938  42.676  16.8760  0.00  0.00     0.000 OA
ATOM     36   O  A00 X   2      49.391  44.038  15.0510  0.00  0.00     0.000 O
ATOM     37   O  A00 X   2      49.939  41.767  14.9350  0.00  0.00     0.000 OA
ATOM     38   S  A00 X   2      49.956  42.833  15.8890  0.00  0.00     0.000 S
ATOM     39   O  A00 X   2      51.230  43.253  16.3930  0.00  0.00     0.000 OA
ENDBRANCH 24 34
BRANCH 20 40
ATOM     40  O4  A00 X   3      50.424  42.943  10.5570  0.00  0.00     0.000 O
BRANCH 40 44
ATOM     41  C1  A00 X   3      53.943  42.559  11.3280  0.00  0.00     0.000 C
ATOM     42  C2  A00 X   3      53.370  42.768   9.9100  0.00  0.00     0.000 C
ATOM     43  C3  A00 X   3      52.226  41.763   9.6200  0.00  0.00     0.000 C
ATOM     44  C4  A00 X   3      51.149  41.702  10.6950  0.00  0.00     0.000 C
ATOM     45  C5  A00 X   3      51.801  41.486  12.0900  0.00  0.00     0.000 C
ATOM     46  O5  A00 X   3      52.881  42.448  12.3160  0.00  0.00     0.000 O
ATOM     47   O  A00 X   3      51.678  41.805   8.3030  0.00  0.00     0.000 O
ATOM     49  HD  A00 X   3      50.935  41.677   8.7300  0.00  0.00     0.000 HD
BRANCH 42 49
ATOM     49   O  A00 X   3      52.904  44.133   9.8370  0.00  0.00     0.000 O
ATOM     50   O  A00 X   3      51.802  45.504   8.2140  0.00  0.00     0.000 OA
ATOM     51   O  A00 X   3      53.522  44.049   7.4990  0.00  0.00     0.000 OA
ATOM     52   O  A00 X   3      54.101  45.897   8.8530  0.00  0.00     0.000 OA
ATOM     53   S  A00 X   3      53.084  44.957   8.5290  0.00  0.00     0.000 S
ENDBRANCH 42 49
BRANCH 45 54
ATOM     54   C  A00 X   3      52.237  40.030  12.2930  0.00  0.00     0.000 C
ATOM     55   O  A00 X   3      52.655  39.654  13.3690  0.00  0.00     0.000 OA
ATOM     56   O  A00 X   3      52.174  39.225  11.3770  0.00  0.00     0.000 OA
ENDBRANCH 45 54
BRANCH 41 57
ATOM     57  O4  A00 X   4      54.895  41.473  11.3660  0.00  0.00     0.000 O
BRANCH 57 61
ATOM     58  C1  A00 X   4      58.495  40.797  13.6510  0.00  0.00     0.000 C
ATOM     59  C2  A00 X   4      57.151  40.935  14.4090  0.00  0.00     0.000 C
ATOM     60  C3  A00 X   4      55.915  40.812  13.4950  0.00  0.00     0.000 C
ATOM     61  C4  A00 X   4      56.045  41.689  12.2310  0.00  0.00     0.000 C
ATOM     62  C5  A00 X   4      57.345  41.237  11.5200  0.00  0.00     0.000 C
ATOM     63  O5  A00 X   4      58.479  41.497  12.3860  0.00  0.00     0.000 O
BRANCH 59 66
ATOM     64   N  A00 X   4      57.052  42.270  15.0260  0.00  0.00     0.000 N
ATOM     66  HD  A00 X   4      57.481  42.919  14.6470  0.00  0.00     0.000 HD
ATOM     66   O  A00 X   4      58.390  41.420  16.8390  0.00  0.00     0.000 OA
ATOM     67   S  A00 X   4      57.392  42.412  16.5830  0.00  0.00     0.000 S
ATOM     68   O  A00 X   4      57.847  43.771  16.6250  0.00  0.00     0.000 OA
ATOM     69   O  A00 X   4      56.088  42.210  17.1470  0.00  0.00     0.000 OA
ENDBRANCH 59 66
BRANCH 62 70
ATOM     70   C  A00 X   4      57.595  41.932  10.1600  0.00  0.00     0.000 C
ATOM     71   O  A00 X   4      58.476  45.383   9.5130  0.00  0.00     0.000 OA
ATOM     72   O  A00 X   4      56.810  44.020   8.5580  0.00  0.00     0.000 OA
ATOM     73   O  A00 X   4      58.158  43.234  10.3890  0.00  0.00     0.000 O
ATOM     74   O  A00 X   4      56.489  44.923  10.7990  0.00  0.00     0.000 OA
ATOM     75   S  A00 X   4      57.402  44.474   9.7970  0.00  0.00     0.000 S
ENDBRANCH 62 70
ENDBRANCH 57 61
ENDBRANCH 41 57
ENDBRANCH 40 44
ENDBRANCH 20 40
ENDBRANCH 19 23
ENDBRANCH 1 19
TORSDOF 14
ENDMDL
MODEL 34
REMARK VINA RESULT:      -0.2     29.517     36.135
ROOT
ATOM      1  C1  A00 X   1      45.384   8.562  18.8040  0.00  0.00     0.000 C
ATOM      2  C2  A00 X   1      45.477  10.110  18.7410  0.00  0.00     0.000 C
ATOM      3  C3  A00 X   1      46.913  10.718  18.8580  0.00  0.00     0.000 C
ATOM      4  C4  A00 X   1      48.007   9.753  19.3830  0.00  0.00     0.000 C
ATOM      5  C5  A00 X   1      47.417   8.595  20.1880  0.00  0.00     0.000 C
ATOM      6  O5  A00 X   1      46.584   7.881  19.2470  0.00  0.00     0.000 O
ATOM      7   O  A00 X   1      46.873  11.817  19.7660  0.00  0.00     0.000 O
ATOM      9  HD  A00 X   1      47.598  11.374  19.9330  0.00  0.00     0.000 HD
ATOM      9   O  A00 X   1      48.807   9.241  18.3170  0.00  0.00     0.000 O
ATOM     11  HD  A00 X   1      49.532   8.798  18.4850  0.00  0.00     0.000 HD
ENDROOT
BRANCH 2 11
ATOM     11   O  A00 X   1      44.887  10.535  17.4960  0.00  0.00     0.000 O
ATOM     12   O  A00 X   1      44.621  12.856  16.9440  0.00  0.00     0.000 OA
ATOM     13   O  A00 X   1      43.409  11.938  18.8420  0.00  0.00     0.000 OA
ATOM     14   O  A00 X   1      42.853  11.280  16.6250  0.00  0.00     0.000 OA
ATOM     15   S  A00 X   1      43.893  11.746  17.5030  0.00  0.00     0.000 S
ENDBRANCH 2 11
BRANCH 5 16
ATOM     16   C  A00 X   1      46.682   9.004  21.4680  0.00  0.00     0.000 C
ATOM     17   O  A00 X   1      46.026   8.168  22.0540  0.00  0.00     0.000 OA
ATOM     18   O  A00 X   1      46.739  10.130  21.9210  0.00  0.00     0.000 OA
ENDBRANCH 5 16
BRANCH 1 19
ATOM     19  O4  A00 X   2      44.216   8.099  19.5250  0.00  0.00     0.000 O
BRANCH 19 23
ATOM     20  C1  A00 X   2      43.569   4.746  16.9360  0.00  0.00     0.000 C
ATOM     21  C2  A00 X   2      42.729   6.020  16.6790  0.00  0.00     0.000 C
ATOM     22  C3  A00 X   2      43.359   7.244  17.3760  0.00  0.00     0.000 C
ATOM     23  C4  A00 X   2      43.575   6.962  18.8800  0.00  0.00     0.000 C
ATOM     24  C5  A00 X   2      44.410   5.657  19.0020  0.00  0.00     0.000 C
ATOM     25  O5  A00 X   2      43.677   4.573  18.3740  0.00  0.00     0.000 O
ATOM     26   O  A00 X   2      42.584   8.410  17.0510  0.00  0.00     0.000 O
ATOM     28  HD  A00 X   2      41.834   8.034  17.2660  0.00  0.00     0.000 HD
BRANCH 21 30
ATOM     28   N  A00 X   2      41.616   5.157  16.2700  0.00  0.00     0.000 N
ATOM     30  HD  A00 X   2      41.430   5.956  15.9900  0.00  0.00     0.000 HD
ATOM     30   O  A00 X   2      40.381   6.287  14.6400  0.00  0.00     0.000 OA
ATOM     31   S  A00 X   2      40.213   5.820  15.9700  0.00  0.00     0.000 S
ATOM     32   O  A00 X   2      39.289   4.739  16.1190  0.00  0.00     0.000 OA
ATOM     33   O  A00 X   2      39.987   6.810  16.9810  0.00  0.00     0.000 OA
ENDBRANCH 21 30
BRANCH 24 34
ATOM     34   C  A00 X   2      44.960   5.277  20.3970  0.00  0.00     0.000 C
ATOM     35   O  A00 X   2      44.045   2.246  22.1950  0.00  0.00     0.000 OA
ATOM     36   O  A00 X   2      44.171   4.234  21.0040  0.00  0.00     0.000 O
ATOM     37   O  A00 X   2      44.945   2.264  20.0080  0.00  0.00     0.000 OA
ATOM     38   S  A00 X   2      44.940   2.893  21.2930  0.00  0.00     0.000 S
ATOM     39   O  A00 X   2      46.204   3.265  21.8560  0.00  0.00     0.000 OA
ENDBRANCH 24 34
BRANCH 20 40
ATOM     40  O4  A00 X   3      44.866   5.019  16.3870  0.00  0.00     0.000 O
BRANCH 40 44
ATOM     41  C1  A00 X   3      48.468   4.820  16.7240  0.00  0.00     0.000 C
ATOM     42  C2  A00 X   3      47.730   5.469  15.5330  0.00  0.00     0.000 C
ATOM     43  C3  A00 X   3      46.658   4.510  14.9550  0.00  0.00     0.000 C
ATOM     44  C4  A00 X   3      45.712   3.917  15.9920  0.00  0.00     0.000 C
ATOM     45  C5  A00 X   3      46.527   3.281  17.1530  0.00  0.00     0.000 C
ATOM     46  O5  A00 X   3      47.533   4.216  17.6610  0.00  0.00     0.000 O
ATOM     47   O  A00 X   3      45.971   4.971  13.7930  0.00  0.00     0.000 O
ATOM     49  HD  A00 X   3      45.293   4.601  14.1850  0.00  0.00     0.000 HD
BRANCH 42 49
ATOM     49   O  A00 X   3      47.136   6.693  16.0190  0.00  0.00     0.000 O
ATOM     50   O  A00 X   3      45.754   8.426  15.1160  0.00  0.00     0.000 OA
ATOM     51   O  A00 X   3      47.519   7.570  13.7960  0.00  0.00     0.000 OA
ATOM     52   O  A00 X   3      48.060   8.831  15.7210  0.00  0.00     0.000 OA
ATOM     53   S  A00 X   3      47.106   7.963  15.1200  0.00  0.00     0.000 S
ENDBRANCH 42 49
BRANCH 45 54
ATOM     54   C  A00 X   3      47.114   1.921  16.7550  0.00  0.00     0.000 C
ATOM     55   O  A00 X   3      47.053   1.533  15.6060  0.00  0.00     0.000 OA
ATOM     56   O  A00 X   3      47.652   1.205  17.5850  0.00  0.00     0.000 OA
ENDBRANCH 45 54
BRANCH 41 57
ATOM     57  O4  A00 X   4      49.514   3.927  16.2810  0.00  0.00     0.000 O
BRANCH 57 61
ATOM     58  C1  A00 X   4      53.368   2.876  17.9180  0.00  0.00     0.000 C
ATOM     59  C2  A00 X   4      52.099   2.557  18.7470  0.00  0.00     0.000 C
ATOM     60  C3  A00 X   4      50.794   2.639  17.9290  0.00  0.00     0.000 C
ATOM     61  C4  A00 X   4      50.721   3.937  17.0960  0.00  0.00     0.000 C
ATOM     62  C5  A00 X   4      51.978   3.945  16.1910  0.00  0.00     0.000 C
ATOM     63  O5  A00 X   4      53.165   3.994  17.0240  0.00  0.00     0.000 O
BRANCH 59 66
ATOM     64   N  A00 X   4      51.910   3.512  19.8530  0.00  0.00     0.000 N
ATOM     66  HD  A00 X   4      52.216   4.315  19.7450  0.00  0.00     0.000 HD
ATOM     66   O  A00 X   4      53.525   2.235  21.1010  0.00  0.00     0.000 OA
ATOM     67   S  A00 X   4      52.395   3.084  21.3150  0.00  0.00     0.000 S
ATOM     68   O  A00 X   4      52.689   4.370  21.8770  0.00  0.00     0.000 OA
ATOM     69   O  A00 X   4      51.192   2.484  21.8160  0.00  0.00     0.000 OA
ENDBRANCH 59 66
BRANCH 62 70
ATOM     70   C  A00 X   4      52.030   5.126  15.1920  0.00  0.00     0.000 C
ATOM     71   O  A00 X   4      52.524   8.647  15.8770  0.00  0.00     0.000 OA
ATOM     72   O  A00 X   4      50.905   7.552  14.5640  0.00  0.00     0.000 OA
ATOM     73   O  A00 X   4      52.491   6.304  15.8730  0.00  0.00     0.000 O
ATOM     74   O  A00 X   4      50.723   7.498  16.9940  0.00  0.00     0.000 OA
ATOM     75   S  A00 X   4      51.570   7.574  15.8480  0.00  0.00     0.000 S
ENDBRANCH 62 70
ENDBRANCH 57 61
ENDBRANCH 41 57
ENDBRANCH 40 44
ENDBRANCH 20 40
ENDBRANCH 19 23
ENDBRANCH 1 19
TORSDOF 14
ENDMDL
MODEL 35
REMARK VINA RESULT:      -0.2     58.949     63.407
ROOT
ATOM      1  C1  A00 X   1      49.309  27.324  53.1940  0.00  0.00     0.000 C
ATOM      2  C2  A00 X   1      48.537  26.748  54.4120  0.00  0.00     0.000 C
ATOM      3  C3  A00 X   1      47.906  27.798  55.3840  0.00  0.00     0.000 C
ATOM      4  C4  A00 X   1      48.426  29.250  55.2300  0.00  0.00     0.000 C
ATOM      5  C5  A00 X   1      49.803  29.303  54.5690  0.00  0.00     0.000 C
ATOM      6  O5  A00 X   1      49.600  28.743  53.2520  0.00  0.00     0.000 O
ATOM      7   O  A00 X   1      48.189  27.407  56.7260  0.00  0.00     0.000 O
ATOM      9  HD  A00 X   1      48.295  28.265  56.6820  0.00  0.00     0.000 HD
ATOM      9   O  A00 X   1      47.507  30.058  54.4950  0.00  0.00     0.000 O
ATOM     11  HD  A00 X   1      47.612  30.916  54.4520  0.00  0.00     0.000 HD
ENDROOT
BRANCH 2 11
ATOM     11   O  A00 X   1      47.496  25.891  53.9050  0.00  0.00     0.000 O
ATOM     12   O  A00 X   1      45.827  24.934  55.3420  0.00  0.00     0.000 OA
ATOM     13   O  A00 X   1      48.158  24.303  55.6390  0.00  0.00     0.000 OA
ATOM     14   O  A00 X   1      46.964  23.627  53.6950  0.00  0.00     0.000 OA
ATOM     15   S  A00 X   1      47.092  24.620  54.7280  0.00  0.00     0.000 S
ENDBRANCH 2 11
BRANCH 5 16
ATOM     16   C  A00 X   1      50.927  28.622  55.3570  0.00  0.00     0.000 C
ATOM     17   O  A00 X   1      51.993  28.437  54.8070  0.00  0.00     0.000 OA
ATOM     18   O  A00 X   1      50.791  28.270  56.5120  0.00  0.00     0.000 OA
ENDBRANCH 5 16
BRANCH 1 19
ATOM     19  O4  A00 X   2      50.492  26.555  52.8650  0.00  0.00     0.000 O
BRANCH 19 23
ATOM     20  C1  A00 X   2      49.914  26.911  48.6330  0.00  0.00     0.000 C
ATOM     21  C2  A00 X   2      49.436  25.605  49.3130  0.00  0.00     0.000 C
ATOM     22  C3  A00 X   2      49.308  25.794  50.8390  0.00  0.00     0.000 C
ATOM     23  C4  A00 X   2      50.630  26.330  51.4330  0.00  0.00     0.000 C
ATOM     24  C5  A00 X   2      51.009  27.622  50.6590  0.00  0.00     0.000 C
ATOM     25  O5  A00 X   2      51.170  27.295  49.2540  0.00  0.00     0.000 O
ATOM     26   O  A00 X   2      48.797  24.579  51.4130  0.00  0.00     0.000 O
ATOM     28  HD  A00 X   2      49.382  24.083  51.0100  0.00  0.00     0.000 HD
BRANCH 21 30
ATOM     28   N  A00 X   2      49.799  24.892  48.0840  0.00  0.00     0.000 N
ATOM     30  HD  A00 X   2      49.302  24.355  48.5470  0.00  0.00     0.000 HD
ATOM     30   O  A00 X   2      48.362  23.066  47.8500  0.00  0.00     0.000 OA
ATOM     31   S  A00 X   2      49.741  23.313  48.0770  0.00  0.00     0.000 S
ATOM     32   O  A00 X   2      50.606  22.946  46.9990  0.00  0.00     0.000 OA
ATOM     33   O  A00 X   2      50.284  22.864  49.3250  0.00  0.00     0.000 OA
ENDBRANCH 21 30
BRANCH 24 34
ATOM     34   C  A00 X   2      52.171  28.483  51.2080  0.00  0.00     0.000 C
ATOM     35   O  A00 X   2      55.557  27.249  51.7260  0.00  0.00     0.000 OA
ATOM     36   O  A00 X   2      53.274  27.660  51.6360  0.00  0.00     0.000 O
ATOM     37   O  A00 X   2      54.412  27.139  49.6600  0.00  0.00     0.000 OA
ATOM     38   S  A00 X   2      54.623  27.889  50.8600  0.00  0.00     0.000 S
ATOM     39   O  A00 X   2      54.782  29.307  50.7370  0.00  0.00     0.000 OA
ENDBRANCH 24 34
BRANCH 20 40
ATOM     40  O4  A00 X   3      48.912  27.893  48.9310  0.00  0.00     0.000 O
BRANCH 40 44
ATOM     41  C1  A00 X   3      48.203  31.280  50.0030  0.00  0.00     0.000 C
ATOM     42  C2  A00 X   3      47.131  30.210  49.7020  0.00  0.00     0.000 C
ATOM     43  C3  A00 X   3      47.372  29.557  48.3170  0.00  0.00     0.000 C
ATOM     44  C4  A00 X   3      48.793  29.060  48.0890  0.00  0.00     0.000 C
ATOM     45  C5  A00 X   3      49.811  30.192  48.4070  0.00  0.00     0.000 C
ATOM     46  O5  A00 X   3      49.540  30.785  49.7180  0.00  0.00     0.000 O
ATOM     47   O  A00 X   3      46.391  28.612  47.8940  0.00  0.00     0.000 O
ATOM     49  HD  A00 X   3      47.087  28.193  47.5950  0.00  0.00     0.000 HD
BRANCH 42 49
ATOM     49   O  A00 X   3      47.199  29.233  50.7650  0.00  0.00     0.000 O
ATOM     50   O  A00 X   3      46.110  27.167  51.2910  0.00  0.00     0.000 OA
ATOM     51   O  A00 X   3      44.817  28.954  50.4400  0.00  0.00     0.000 OA
ATOM     52   O  A00 X   3      45.742  29.164  52.6050  0.00  0.00     0.000 OA
ATOM     53   S  A00 X   3      45.898  28.580  51.3170  0.00  0.00     0.000 S
ENDBRANCH 42 49
BRANCH 45 54
ATOM     54   C  A00 X   3      49.878  31.228  47.2780  0.00  0.00     0.000 C
ATOM     55   O  A00 X   3      49.124  31.158  46.3290  0.00  0.00     0.000 OA
ATOM     56   O  A00 X   3      50.691  32.138  47.3130  0.00  0.00     0.000 OA
ENDBRANCH 45 54
BRANCH 41 57
ATOM     57  O4  A00 X   4      47.894  32.539  49.3640  0.00  0.00     0.000 O
BRANCH 57 61
ATOM     58  C1  A00 X   4      48.552  36.652  50.5000  0.00  0.00     0.000 C
ATOM     59  C2  A00 X   4      49.783  35.732  50.2990  0.00  0.00     0.000 C
ATOM     60  C3  A00 X   4      49.455  34.419  49.5590  0.00  0.00     0.000 C
ATOM     61  C4  A00 X   4      48.209  33.724  50.1480  0.00  0.00     0.000 C
ATOM     62  C5  A00 X   4      47.052  34.751  50.0560  0.00  0.00     0.000 C
ATOM     63  O5  A00 X   4      47.373  35.905  50.8750  0.00  0.00     0.000 O
BRANCH 59 66
ATOM     64   N  A00 X   4      50.312  35.328  51.6150  0.00  0.00     0.000 N
ATOM     66  HD  A00 X   4      49.756  35.300  52.2780  0.00  0.00     0.000 HD
ATOM     66   O  A00 X   4      51.479  37.434  51.6790  0.00  0.00     0.000 OA
ATOM     67   S  A00 X   4      51.590  36.103  52.1860  0.00  0.00     0.000 S
ATOM     68   O  A00 X   4      51.370  35.959  53.5960  0.00  0.00     0.000 OA
ATOM     69   O  A00 X   4      52.641  35.274  51.6680  0.00  0.00     0.000 OA
ENDBRANCH 59 66
BRANCH 62 70
ATOM     70   C  A00 X   4      45.678  34.197  50.5030  0.00  0.00     0.000 C
ATOM     71   O  A00 X   4      44.574  33.304  53.8330  0.00  0.00     0.000 OA
ATOM     72   O  A00 X   4      44.441  32.119  51.8030  0.00  0.00     0.000 OA
ATOM     73   O  A00 X   4      45.600  34.222  51.9370  0.00  0.00     0.000 O
ATOM     74   O  A00 X   4      46.575  32.275  52.9680  0.00  0.00     0.000 OA
ATOM     75   S  A00 X   4      45.311  32.871  52.6790  0.00  0.00     0.000 S
ENDBRANCH 62 70
ENDBRANCH 57 61
ENDBRANCH 41 57
ENDBRANCH 40 44
ENDBRANCH 20 40
ENDBRANCH 19 23
ENDBRANCH 1 19
TORSDOF 14
ENDMDL
MODEL 36
REMARK VINA RESULT:      -0.2     79.963     84.708
ROOT
ATOM      1  C1  A00 X   1      59.860  58.398  53.4410  0.00  0.00     0.000 C
ATOM      2  C2  A00 X   1      60.687  57.789  52.2780  0.00  0.00     0.000 C
ATOM      3  C3  A00 X   1      60.251  56.367  51.7950  0.00  0.00     0.000 C
ATOM      4  C4  A00 X   1      59.308  55.595  52.7540  0.00  0.00     0.000 C
ATOM      5  C5  A00 X   1      59.409  56.100  54.1930  0.00  0.00     0.000 C
ATOM      6  O5  A00 X   1      58.977  57.478  54.1300  0.00  0.00     0.000 O
ATOM      7   O  A00 X   1      61.415  55.560  51.6360  0.00  0.00     0.000 O
ATOM      9  HD  A00 X   1      60.809  55.064  52.0060  0.00  0.00     0.000 HD
ATOM      9   O  A00 X   1      57.951  55.659  52.3150  0.00  0.00     0.000 O
ATOM     11  HD  A00 X   1      57.345  55.163  52.6840  0.00  0.00     0.000 HD
ENDROOT
BRANCH 2 11
ATOM     11   O  A00 X   1      60.620  58.703  51.1670  0.00  0.00     0.000 O
ATOM     12   O  A00 X   1      61.881  58.351  49.1540  0.00  0.00     0.000 OA
ATOM     13   O  A00 X   1      63.061  58.749  51.2430  0.00  0.00     0.000 OA
ATOM     14   O  A00 X   1      61.796  60.486  50.2240  0.00  0.00     0.000 OA
ATOM     15   S  A00 X   1      61.940  59.067  50.4030  0.00  0.00     0.000 S
ENDBRANCH 2 11
BRANCH 5 16
ATOM     16   C  A00 X   1      60.782  55.918  54.8480  0.00  0.00     0.000 C
ATOM     17   O  A00 X   1      60.995  56.462  55.9120  0.00  0.00     0.000 OA
ATOM     18   O  A00 X   1      61.659  55.244  54.3460  0.00  0.00     0.000 OA
ENDBRANCH 5 16
BRANCH 1 19
ATOM     19  O4  A00 X   2      60.673  59.149  54.3760  0.00  0.00     0.000 O
BRANCH 19 23
ATOM     20  C1  A00 X   2      57.672  62.129  55.0650  0.00  0.00     0.000 C
ATOM     21  C2  A00 X   2      58.788  62.462  54.0460  0.00  0.00     0.000 C
ATOM     22  C3  A00 X   2      59.515  61.180  53.5890  0.00  0.00     0.000 C
ATOM     23  C4  A00 X   2      60.032  60.383  54.8080  0.00  0.00     0.000 C
ATOM     24  C5  A00 X   2      58.828  60.131  55.7560  0.00  0.00     0.000 C
ATOM     25  O5  A00 X   2      58.283  61.411  56.1700  0.00  0.00     0.000 O
ATOM     26   O  A00 X   2      60.493  61.533  52.5960  0.00  0.00     0.000 O
ATOM     28  HD  A00 X   2      60.833  62.163  53.0830  0.00  0.00     0.000 HD
BRANCH 21 30
ATOM     28   N  A00 X   2      58.721  63.859  54.4870  0.00  0.00     0.000 N
ATOM     30  HD  A00 X   2      59.153  63.853  53.7360  0.00  0.00     0.000 HD
ATOM     30   O  A00 X   2      59.244  65.222  52.6630  0.00  0.00     0.000 OA
ATOM     31   S  A00 X   2      59.788  64.882  53.9290  0.00  0.00     0.000 S
ATOM     32   O  A00 X   2      59.780  65.939  54.8930  0.00  0.00     0.000 OA
ATOM     33   O  A00 X   2      61.056  64.215  53.9330  0.00  0.00     0.000 OA
ENDBRANCH 21 30
BRANCH 24 34
ATOM     34   C  A00 X   2      59.029  59.156  56.9400  0.00  0.00     0.000 C
ATOM     35   O  A00 X   2      58.736  60.112  60.4410  0.00  0.00     0.000 OA
ATOM     36   O  A00 X   2      59.203  59.870  58.1800  0.00  0.00     0.000 O
ATOM     37   O  A00 X   2      57.030  60.436  58.8360  0.00  0.00     0.000 OA
ATOM     38   S  A00 X   2      58.104  59.596  59.2710  0.00  0.00     0.000 S
ATOM     39   O  A00 X   2      57.880  58.182  59.2750  0.00  0.00     0.000 OA
ENDBRANCH 24 34
BRANCH 20 40
ATOM     40  O4  A00 X   3      56.762  61.261  54.3730  0.00  0.00     0.000 O
BRANCH 40 44
ATOM     41  C1  A00 X   3      54.689  58.291  54.4320  0.00  0.00     0.000 C
ATOM     42  C2  A00 X   3      54.862  59.219  53.2110  0.00  0.00     0.000 C
ATOM     43  C3  A00 X   3      54.616  60.700  53.5990  0.00  0.00     0.000 C
ATOM     44  C4  A00 X   3      55.393  61.171  54.8220  0.00  0.00     0.000 C
ATOM     45  C5  A00 X   3      55.164  60.191  56.0080  0.00  0.00     0.000 C
ATOM     46  O5  A00 X   3      55.397  58.806  55.5930  0.00  0.00     0.000 O
ATOM     47   O  A00 X   3      54.664  61.641  52.5290  0.00  0.00     0.000 O
ATOM     49  HD  A00 X   3      55.061  62.128  53.1250  0.00  0.00     0.000 HD
BRANCH 42 49
ATOM     49   O  A00 X   3      56.204  59.020  52.7140  0.00  0.00     0.000 O
ATOM     50   O  A00 X   3      57.558  59.935  50.9660  0.00  0.00     0.000 OA
ATOM     51   O  A00 X   3      55.284  59.467  50.5210  0.00  0.00     0.000 OA
ATOM     52   O  A00 X   3      56.757  57.655  50.8850  0.00  0.00     0.000 OA
ATOM     53   S  A00 X   3      56.484  59.019  51.1830  0.00  0.00     0.000 S
ENDBRANCH 42 49
BRANCH 45 54
ATOM     54   C  A00 X   3      53.794  60.402  56.6630  0.00  0.00     0.000 C
ATOM     55   O  A00 X   3      52.965  61.121  56.1440  0.00  0.00     0.000 OA
ATOM     56   O  A00 X   3      53.514  59.853  57.7170  0.00  0.00     0.000 OA
ENDBRANCH 45 54
BRANCH 41 57
ATOM     57  O4  A00 X   4      53.298  57.988  54.6800  0.00  0.00     0.000 O
BRANCH 57 61
ATOM     58  C1  A00 X   4      51.280  54.503  56.2360  0.00  0.00     0.000 C
ATOM     59  C2  A00 X   4      52.298  55.238  57.1440  0.00  0.00     0.000 C
ATOM     60  C3  A00 X   4      52.675  56.643  56.6330  0.00  0.00     0.000 C
ATOM     61  C4  A00 X   4      53.031  56.630  55.1310  0.00  0.00     0.000 C
ATOM     62  C5  A00 X   4      51.796  56.053  54.3950  0.00  0.00     0.000 C
ATOM     63  O5  A00 X   4      51.574  54.688  54.8330  0.00  0.00     0.000 O
BRANCH 59 66
ATOM     64   N  A00 X   4      53.574  54.505  57.2230  0.00  0.00     0.000 N
ATOM     66  HD  A00 X   4      53.798  54.019  56.5420  0.00  0.00     0.000 HD
ATOM     66   O  A00 X   4      52.545  53.088  58.8750  0.00  0.00     0.000 OA
ATOM     67   S  A00 X   4      53.835  53.572  58.4950  0.00  0.00     0.000 S
ATOM     68   O  A00 X   4      54.716  52.596  57.9230  0.00  0.00     0.000 OA
ATOM     69   O  A00 X   4      54.483  54.509  59.3680  0.00  0.00     0.000 OA
ENDBRANCH 59 66
BRANCH 62 70
ATOM     70   C  A00 X   4      51.918  56.062  52.8530  0.00  0.00     0.000 C
ATOM     71   O  A00 X   4      54.079  54.064  50.7450  0.00  0.00     0.000 OA
ATOM     72   O  A00 X   4      53.677  56.384  50.7680  0.00  0.00     0.000 OA
ATOM     73   O  A00 X   4      52.713  54.941  52.4330  0.00  0.00     0.000 O
ATOM     74   O  A00 X   4      55.079  55.388  52.4940  0.00  0.00     0.000 OA
ATOM     75   S  A00 X   4      53.995  55.230  51.5790  0.00  0.00     0.000 S
ENDBRANCH 62 70
ENDBRANCH 57 61
ENDBRANCH 41 57
ENDBRANCH 40 44
ENDBRANCH 20 40
ENDBRANCH 19 23
ENDBRANCH 1 19
TORSDOF 14
ENDMDL
MODEL 37
REMARK VINA RESULT:      -0.2     25.472     30.835
ROOT
ATOM      1  C1  A00 X   1      10.575  28.463  24.0660  0.00  0.00     0.000 C
ATOM      2  C2  A00 X   1      11.426  29.277  25.0770  0.00  0.00     0.000 C
ATOM      3  C3  A00 X   1      11.597  30.800  24.7610  0.00  0.00     0.000 C
ATOM      4  C4  A00 X   1      11.221  31.231  23.3200  0.00  0.00     0.000 C
ATOM      5  C5  A00 X   1      11.279  30.063  22.3350  0.00  0.00     0.000 C
ATOM      6  O5  A00 X   1      10.283  29.131  22.8130  0.00  0.00     0.000 O
ATOM      7   O  A00 X   1      12.966  31.155  24.9460  0.00  0.00     0.000 O
ATOM      9  HD  A00 X   1      12.692  31.557  24.2300  0.00  0.00     0.000 HD
ATOM      9   O  A00 X   1       9.929  31.836  23.2760  0.00  0.00     0.000 O
ATOM     11  HD  A00 X   1       9.656  32.238  22.5600  0.00  0.00     0.000 HD
ENDROOT
BRANCH 2 11
ATOM     11   O  A00 X   1      10.821  29.132  26.3760  0.00  0.00     0.000 O
ATOM     12   O  A00 X   1      11.794  30.100  28.3460  0.00  0.00     0.000 OA
ATOM     13   O  A00 X   1      13.007  28.365  27.1490  0.00  0.00     0.000 OA
ATOM     14   O  A00 X   1      11.000  27.846  28.3160  0.00  0.00     0.000 OA
ATOM     15   S  A00 X   1      11.741  28.860  27.6150  0.00  0.00     0.000 S
ENDBRANCH 2 11
BRANCH 5 16
ATOM     16   C  A00 X   1      12.665  29.438  22.1520  0.00  0.00     0.000 C
ATOM     17   O  A00 X   1      12.757  28.399  21.5310  0.00  0.00     0.000 OA
ATOM     18   O  A00 X   1      13.674  29.947  22.5980  0.00  0.00     0.000 OA
ENDBRANCH 5 16
BRANCH 1 19
ATOM     19  O4  A00 X   2      11.092  27.128  23.8440  0.00  0.00     0.000 O
BRANCH 19 23
ATOM     20  C1  A00 X   2       7.207  25.346  23.5390  0.00  0.00     0.000 C
ATOM     21  C2  A00 X   2       7.937  25.241  24.9000  0.00  0.00     0.000 C
ATOM     22  C3  A00 X   2       9.083  26.269  24.9900  0.00  0.00     0.000 C
ATOM     23  C4  A00 X   2      10.039  26.124  23.7840  0.00  0.00     0.000 C
ATOM     24  C5  A00 X   2       9.188  26.228  22.4890  0.00  0.00     0.000 C
ATOM     25  O5  A00 X   2       8.199  25.166  22.4930  0.00  0.00     0.000 O
ATOM     26   O  A00 X   2       9.683  26.179  26.2940  0.00  0.00     0.000 O
ATOM     28  HD  A00 X   2       9.775  25.319  26.2470  0.00  0.00     0.000 HD
BRANCH 21 30
ATOM     28   N  A00 X   2       7.325  23.921  25.0820  0.00  0.00     0.000 N
ATOM     30  HD  A00 X   2       7.622  24.168  25.8570  0.00  0.00     0.000 HD
ATOM     30   O  A00 X   2       6.981  23.587  27.3690  0.00  0.00     0.000 OA
ATOM     31   S  A00 X   2       7.768  23.043  26.3200  0.00  0.00     0.000 S
ATOM     32   O  A00 X   2       7.420  21.711  25.9320  0.00  0.00     0.000 OA
ATOM     33   O  A00 X   2       9.190  23.170  26.4410  0.00  0.00     0.000 OA
ENDBRANCH 21 30
BRANCH 24 34
ATOM     34   C  A00 X   2       9.934  26.344  21.1390  0.00  0.00     0.000 C
ATOM     35   O  A00 X   2      12.300  23.872  19.8950  0.00  0.00     0.000 OA
ATOM     36   O  A00 X   2      11.045  25.428  21.0750  0.00  0.00     0.000 O
ATOM     37   O  A00 X   2      10.074  23.374  20.5190  0.00  0.00     0.000 OA
ATOM     38   S  A00 X   2      10.954  24.342  19.9410  0.00  0.00     0.000 S
ATOM     39   O  A00 X   2      10.509  25.023  18.7620  0.00  0.00     0.000 OA
ENDBRANCH 24 34
BRANCH 20 40
ATOM     40  O4  A00 X   3       6.685  26.681  23.4810  0.00  0.00     0.000 O
BRANCH 40 44
ATOM     41  C1  A00 X   3       6.191  29.676  21.5040  0.00  0.00     0.000 C
ATOM     42  C2  A00 X   3       5.771  29.518  22.9810  0.00  0.00     0.000 C
ATOM     43  C3  A00 X   3       4.939  28.225  23.1870  0.00  0.00     0.000 C
ATOM     44  C4  A00 X   3       5.572  26.966  22.6070  0.00  0.00     0.000 C
ATOM     45  C5  A00 X   3       5.961  27.202  21.1210  0.00  0.00     0.000 C
ATOM     46  O5  A00 X   3       6.735  28.436  20.9720  0.00  0.00     0.000 O
ATOM     47   O  A00 X   3       4.422  28.019  24.5000  0.00  0.00     0.000 O
ATOM     49  HD  A00 X   3       4.631  27.196  24.3310  0.00  0.00     0.000 HD
BRANCH 42 49
ATOM     49   O  A00 X   3       6.984  29.495  23.7660  0.00  0.00     0.000 O
ATOM     50   O  A00 X   3       7.549  29.217  26.0750  0.00  0.00     0.000 OA
ATOM     51   O  A00 X   3       5.682  30.554  25.5100  0.00  0.00     0.000 OA
ATOM     52   O  A00 X   3       7.840  31.335  24.9460  0.00  0.00     0.000 OA
ATOM     53   S  A00 X   3       7.031  30.185  25.1600  0.00  0.00     0.000 S
ENDBRANCH 42 49
BRANCH 45 54
ATOM     54   C  A00 X   3       4.738  27.143  20.1970  0.00  0.00     0.000 C
ATOM     55   O  A00 X   3       3.615  27.108  20.6590  0.00  0.00     0.000 OA
ATOM     56   O  A00 X   3       4.871  27.127  18.9840  0.00  0.00     0.000 OA
ENDBRANCH 45 54
BRANCH 41 57
ATOM     57  O4  A00 X   4       5.127  30.241  20.7050  0.00  0.00     0.000 O
BRANCH 57 61
ATOM     58  C1  A00 X   4       5.106  32.864  17.2750  0.00  0.00     0.000 C
ATOM     59  C2  A00 X   4       5.806  31.487  17.1520  0.00  0.00     0.000 C
ATOM     60  C3  A00 X   4       5.445  30.510  18.2880  0.00  0.00     0.000 C
ATOM     61  C4  A00 X   4       5.557  31.177  19.6760  0.00  0.00     0.000 C
ATOM     62  C5  A00 X   4       4.618  32.408  19.6450  0.00  0.00     0.000 C
ATOM     63  O5  A00 X   4       5.089  33.342  18.6400  0.00  0.00     0.000 O
BRANCH 59 66
ATOM     64   N  A00 X   4       7.266  31.673  17.2300  0.00  0.00     0.000 N
ATOM     66  HD  A00 X   4       7.559  32.357  17.6720  0.00  0.00     0.000 HD
ATOM     66   O  A00 X   4       7.220  32.233  14.8890  0.00  0.00     0.000 OA
ATOM     67   S  A00 X   4       8.103  31.680  15.8670  0.00  0.00     0.000 S
ATOM     68   O  A00 X   4       9.206  32.514  16.2450  0.00  0.00     0.000 OA
ATOM     69   O  A00 X   4       8.429  30.285  15.7630  0.00  0.00     0.000 OA
ENDBRANCH 59 66
BRANCH 62 70
ATOM     70   C  A00 X   4       4.508  33.154  20.9960  0.00  0.00     0.000 C
ATOM     71   O  A00 X   4       7.027  35.108  22.7120  0.00  0.00     0.000 OA
ATOM     72   O  A00 X   4       5.620  33.390  23.4960  0.00  0.00     0.000 OA
ATOM     73   O  A00 X   4       5.659  33.996  21.1690  0.00  0.00     0.000 O
ATOM     74   O  A00 X   4       7.546  32.831  22.1110  0.00  0.00     0.000 OA
ATOM     75   S  A00 X   4       6.538  33.783  22.4500  0.00  0.00     0.000 S
ENDBRANCH 62 70
ENDBRANCH 57 61
ENDBRANCH 41 57
ENDBRANCH 40 44
ENDBRANCH 20 40
ENDBRANCH 19 23
ENDBRANCH 1 19
TORSDOF 14
ENDMDL
MODEL 38
REMARK VINA RESULT:      -0.2     60.767     64.989
ROOT
ATOM      1  C1  A00 X   1      38.132  45.325  47.6610  0.00  0.00     0.000 C
ATOM      2  C2  A00 X   1      37.172  44.855  46.5350  0.00  0.00     0.000 C
ATOM      3  C3  A00 X   1      37.578  45.252  45.0770  0.00  0.00     0.000 C
ATOM      4  C4  A00 X   1      38.660  46.355  44.9600  0.00  0.00     0.000 C
ATOM      5  C5  A00 X   1      38.740  47.221  46.2180  0.00  0.00     0.000 C
ATOM      6  O5  A00 X   1      39.123  46.307  47.2690  0.00  0.00     0.000 O
ATOM      7   O  A00 X   1      36.424  45.744  44.3990  0.00  0.00     0.000 O
ATOM      9  HD  A00 X   1      37.087  46.256  44.1790  0.00  0.00     0.000 HD
ATOM      9   O  A00 X   1      39.944  45.799  44.6760  0.00  0.00     0.000 O
ATOM     11  HD  A00 X   1      40.607  46.311  44.4560  0.00  0.00     0.000 HD
ENDROOT
BRANCH 2 11
ATOM     11   O  A00 X   1      37.066  43.421  46.6190  0.00  0.00     0.000 O
ATOM     12   O  A00 X   1      35.909  42.133  44.9550  0.00  0.00     0.000 OA
ATOM     13   O  A00 X   1      34.663  43.726  46.3070  0.00  0.00     0.000 OA
ATOM     14   O  A00 X   1      35.570  41.759  47.2910  0.00  0.00     0.000 OA
ATOM     15   S  A00 X   1      35.705  42.738  46.2470  0.00  0.00     0.000 S
ENDBRANCH 2 11
BRANCH 5 16
ATOM     16   C  A00 X   1      37.472  48.022  46.5340  0.00  0.00     0.000 C
ATOM     17   O  A00 X   1      37.380  48.560  47.6180  0.00  0.00     0.000 OA
ATOM     18   O  A00 X   1      36.563  48.143  45.7370  0.00  0.00     0.000 OA
ENDBRANCH 5 16
BRANCH 1 19
ATOM     19  O4  A00 X   2      37.432  45.730  48.8620  0.00  0.00     0.000 O
BRANCH 19 23
ATOM     20  C1  A00 X   2      40.316  43.983  51.5060  0.00  0.00     0.000 C
ATOM     21  C2  A00 X   2      39.044  43.160  51.1920  0.00  0.00     0.000 C
ATOM     22  C3  A00 X   2      38.337  43.700  49.9320  0.00  0.00     0.000 C
ATOM     23  C4  A00 X   2      38.053  45.212  50.0730  0.00  0.00     0.000 C
ATOM     24  C5  A00 X   2      39.397  45.918  50.4030  0.00  0.00     0.000 C
ATOM     25  O5  A00 X   2      39.918  45.373  51.6430  0.00  0.00     0.000 O
ATOM     26   O  A00 X   2      37.204  42.863  49.6430  0.00  0.00     0.000 O
ATOM     28  HD  A00 X   2      36.901  42.908  50.4540  0.00  0.00     0.000 HD
BRANCH 21 30
ATOM     28   N  A00 X   2      39.089  42.637  52.5610  0.00  0.00     0.000 N
ATOM     30  HD  A00 X   2      38.554  42.124  52.1150  0.00  0.00     0.000 HD
ATOM     30   O  A00 X   2      38.224  40.467  52.5410  0.00  0.00     0.000 OA
ATOM     31   S  A00 X   2      37.891  41.741  53.0710  0.00  0.00     0.000 S
ATOM     32   O  A00 X   2      37.974  41.843  54.4960  0.00  0.00     0.000 OA
ATOM     33   O  A00 X   2      36.680  42.345  52.5990  0.00  0.00     0.000 OA
ENDBRANCH 21 30
BRANCH 24 34
ATOM     34   C  A00 X   2      39.432  47.464  50.3700  0.00  0.00     0.000 C
ATOM     35   O  A00 X   2      37.290  49.599  52.3980  0.00  0.00     0.000 OA
ATOM     36   O  A00 X   2      38.259  48.027  50.9910  0.00  0.00     0.000 O
ATOM     37   O  A00 X   2      38.712  47.930  53.2840  0.00  0.00     0.000 OA
ATOM     38   S  A00 X   2      38.533  48.914  52.2610  0.00  0.00     0.000 S
ATOM     39   O  A00 X   2      39.653  49.747  51.9380  0.00  0.00     0.000 OA
ENDBRANCH 24 34
BRANCH 20 40
ATOM     40  O4  A00 X   3      41.165  43.838  50.3580  0.00  0.00     0.000 O
BRANCH 40 44
ATOM     41  C1  A00 X   3      43.328  45.468  47.9520  0.00  0.00     0.000 C
ATOM     42  C2  A00 X   3      42.971  43.966  47.9390  0.00  0.00     0.000 C
ATOM     43  C3  A00 X   3      43.214  43.325  49.3290  0.00  0.00     0.000 C
ATOM     44  C4  A00 X   3      42.582  44.078  50.4930  0.00  0.00     0.000 C
ATOM     45  C5  A00 X   3      42.991  45.577  50.4410  0.00  0.00     0.000 C
ATOM     46  O5  A00 X   3      42.755  46.138  49.1090  0.00  0.00     0.000 O
ATOM     47   O  A00 X   3      42.999  41.917  49.4120  0.00  0.00     0.000 O
ATOM     49  HD  A00 X   3      42.665  42.127  50.1830  0.00  0.00     0.000 HD
BRANCH 42 49
ATOM     49   O  A00 X   3      41.585  43.864  47.5450  0.00  0.00     0.000 O
ATOM     50   O  A00 X   3      39.984  42.104  47.2800  0.00  0.00     0.000 OA
ATOM     51   O  A00 X   3      42.198  41.756  46.5270  0.00  0.00     0.000 OA
ATOM     52   O  A00 X   3      40.851  43.324  45.3810  0.00  0.00     0.000 OA
ATOM     53   S  A00 X   3      41.110  42.697  46.6310  0.00  0.00     0.000 S
ENDBRANCH 42 49
BRANCH 45 54
ATOM     54   C  A00 X   3      44.425  45.792  50.9400  0.00  0.00     0.000 C
ATOM     55   O  A00 X   3      44.851  46.912  51.1360  0.00  0.00     0.000 OA
ATOM     56   O  A00 X   3      45.164  44.842  51.1470  0.00  0.00     0.000 OA
ENDBRANCH 45 54
BRANCH 41 57
ATOM     57  O4  A00 X   4      44.749  45.680  47.7950  0.00  0.00     0.000 O
BRANCH 57 61
ATOM     58  C1  A00 X   4      47.062  48.779  45.8740  0.00  0.00     0.000 C
ATOM     59  C2  A00 X   4      46.136  49.168  47.0540  0.00  0.00     0.000 C
ATOM     60  C3  A00 X   4      45.650  47.959  47.8790  0.00  0.00     0.000 C
ATOM     61  C4  A00 X   4      45.116  46.827  46.9760  0.00  0.00     0.000 C
ATOM     62  C5  A00 X   4      46.272  46.451  46.0160  0.00  0.00     0.000 C
ATOM     63  O5  A00 X   4      46.594  47.597  45.1860  0.00  0.00     0.000 O
BRANCH 59 66
ATOM     64   N  A00 X   4      44.916  49.814  46.5390  0.00  0.00     0.000 N
ATOM     66  HD  A00 X   4      44.654  49.597  45.7430  0.00  0.00     0.000 HD
ATOM     66   O  A00 X   4      46.176  51.861  46.4040  0.00  0.00     0.000 OA
ATOM     67   S  A00 X   4      44.831  51.411  46.5760  0.00  0.00     0.000 S
ATOM     68   O  A00 X   4      43.954  51.649  45.4670  0.00  0.00     0.000 OA
ATOM     69   O  A00 X   4      44.219  51.602  47.8600  0.00  0.00     0.000 OA
ENDBRANCH 59 66
BRANCH 62 70
ATOM     70   C  A00 X   4      45.964  45.247  45.0950  0.00  0.00     0.000 C
ATOM     71   O  A00 X   4      43.640  45.055  42.3260  0.00  0.00     0.000 OA
ATOM     72   O  A00 X   4      43.954  43.621  44.1670  0.00  0.00     0.000 OA
ATOM     73   O  A00 X   4      45.167  45.690  43.9850  0.00  0.00     0.000 O
ATOM     74   O  A00 X   4      42.810  45.750  44.4810  0.00  0.00     0.000 OA
ATOM     75   S  A00 X   4      43.780  44.996  43.7540  0.00  0.00     0.000 S
ENDBRANCH 62 70
ENDBRANCH 57 61
ENDBRANCH 41 57
ENDBRANCH 40 44
ENDBRANCH 20 40
ENDBRANCH 19 23
ENDBRANCH 1 19
TORSDOF 14
ENDMDL
MODEL 39
REMARK VINA RESULT:      -0.2     52.593     57.376
ROOT
ATOM      1  C1  A00 X   1      41.839  51.449  22.2150  0.00  0.00     0.000 C
ATOM      2  C2  A00 X   1      41.826  50.484  21.0000  0.00  0.00     0.000 C
ATOM      3  C3  A00 X   1      41.337  49.026  21.2860  0.00  0.00     0.000 C
ATOM      4  C4  A00 X   1      41.278  48.621  22.7810  0.00  0.00     0.000 C
ATOM      5  C5  A00 X   1      42.196  49.483  23.6490  0.00  0.00     0.000 C
ATOM      6  O5  A00 X   1      41.675  50.824  23.5130  0.00  0.00     0.000 O
ATOM      7   O  A00 X   1      42.230  48.111  20.6540  0.00  0.00     0.000 O
ATOM      9  HD  A00 X   1      42.039  47.785  21.4330  0.00  0.00     0.000 HD
ATOM      9   O  A00 X   1      39.944  48.678  23.2860  0.00  0.00     0.000 O
ATOM     11  HD  A00 X   1      39.754  48.351  24.0650  0.00  0.00     0.000 HD
ENDROOT
BRANCH 2 11
ATOM     11   O  A00 X   1      40.989  51.069  19.9840  0.00  0.00     0.000 O
ATOM     12   O  A00 X   1      40.722  50.059  17.8210  0.00  0.00     0.000 OA
ATOM     13   O  A00 X   1      42.913  50.875  18.4920  0.00  0.00     0.000 OA
ATOM     14   O  A00 X   1      41.137  52.400  18.0710  0.00  0.00     0.000 OA
ATOM     15   S  A00 X   1      41.490  51.073  18.4980  0.00  0.00     0.000 S
ENDBRANCH 2 11
BRANCH 5 16
ATOM     16   C  A00 X   1      43.689  49.369  23.3250  0.00  0.00     0.000 C
ATOM     17   O  A00 X   1      44.456  50.162  23.8310  0.00  0.00     0.000 OA
ATOM     18   O  A00 X   1      44.132  48.511  22.5870  0.00  0.00     0.000 OA
ENDBRANCH 5 16
BRANCH 1 19
ATOM     19  O4  A00 X   2      42.971  52.352  22.2030  0.00  0.00     0.000 O
BRANCH 19 23
ATOM     20  C1  A00 X   2      40.741  55.656  23.7760  0.00  0.00     0.000 C
ATOM     21  C2  A00 X   2      40.958  55.605  22.2450  0.00  0.00     0.000 C
ATOM     22  C3  A00 X   2      41.376  54.189  21.7950  0.00  0.00     0.000 C
ATOM     23  C4  A00 X   2      42.609  53.708  22.5920  0.00  0.00     0.000 C
ATOM     24  C5  A00 X   2      42.272  53.824  24.1040  0.00  0.00     0.000 C
ATOM     25  O5  A00 X   2      41.970  55.211  24.4100  0.00  0.00     0.000 O
ATOM     26   O  A00 X   2      41.498  54.177  20.3630  0.00  0.00     0.000 O
ATOM     28  HD  A00 X   2      42.000  54.883  20.3490  0.00  0.00     0.000 HD
BRANCH 21 30
ATOM     28   N  A00 X   2      41.034  57.069  22.2450  0.00  0.00     0.000 N
ATOM     30  HD  A00 X   2      40.913  56.825  21.4230  0.00  0.00     0.000 HD
ATOM     30   O  A00 X   2      40.188  57.842  20.2090  0.00  0.00     0.000 OA
ATOM     31   S  A00 X   2      41.425  57.809  20.9050  0.00  0.00     0.000 S
ATOM     32   O  A00 X   2      41.904  59.082  21.3480  0.00  0.00     0.000 OA
ATOM     33   O  A00 X   2      42.488  57.061  20.3030  0.00  0.00     0.000 OA
ENDBRANCH 21 30
BRANCH 24 34
ATOM     34   C  A00 X   2      43.254  53.190  25.1170  0.00  0.00     0.000 C
ATOM     35   O  A00 X   2      45.108  55.078  27.6190  0.00  0.00     0.000 OA
ATOM     36   O  A00 X   2      44.092  54.190  25.7300  0.00  0.00     0.000 O
ATOM     37   O  A00 X   2      42.753  55.127  27.4030  0.00  0.00     0.000 OA
ATOM     38   S  A00 X   2      43.938  54.332  27.2880  0.00  0.00     0.000 S
ATOM     39   O  A00 X   2      43.898  53.001  27.8140  0.00  0.00     0.000 OA
ENDBRANCH 24 34
BRANCH 20 40
ATOM     40  O4  A00 X   3      39.692  54.716  24.0510  0.00  0.00     0.000 O
BRANCH 40 44
ATOM     41  C1  A00 X   3      38.431  52.053  26.1590  0.00  0.00     0.000 C
ATOM     42  C2  A00 X   3      37.714  52.596  24.9040  0.00  0.00     0.000 C
ATOM     43  C3  A00 X   3      37.601  54.142  24.9550  0.00  0.00     0.000 C
ATOM     44  C4  A00 X   3      38.909  54.863  25.2550  0.00  0.00     0.000 C
ATOM     45  C5  A00 X   3      39.566  54.265  26.5300  0.00  0.00     0.000 C
ATOM     46  O5  A00 X   3      39.643  52.805  26.4430  0.00  0.00     0.000 O
ATOM     47   O  A00 X   3      36.878  54.749  23.8860  0.00  0.00     0.000 O
ATOM     49  HD  A00 X   3      37.501  55.346  23.9530  0.00  0.00     0.000 HD
BRANCH 42 49
ATOM     49   O  A00 X   3      38.478  52.161  23.7580  0.00  0.00     0.000 O
ATOM     50   O  A00 X   3      38.361  52.454  21.3850  0.00  0.00     0.000 OA
ATOM     51   O  A00 X   3      36.362  52.070  22.5870  0.00  0.00     0.000 OA
ATOM     52   O  A00 X   3      37.931  50.311  22.4190  0.00  0.00     0.000 OA
ATOM     53   S  A00 X   3      37.754  51.722  22.4520  0.00  0.00     0.000 S
ENDBRANCH 42 49
BRANCH 45 54
ATOM     54   C  A00 X   3      38.877  54.758  27.8080  0.00  0.00     0.000 C
ATOM     55   O  A00 X   3      37.851  55.404  27.7480  0.00  0.00     0.000 OA
ATOM     56   O  A00 X   3      39.347  54.510  28.9080  0.00  0.00     0.000 OA
ENDBRANCH 45 54
BRANCH 41 57
ATOM     57  O4  A00 X   4      37.530  51.944  27.2830  0.00  0.00     0.000 O
BRANCH 57 61
ATOM     58  C1  A00 X   4      37.274  49.171  30.5820  0.00  0.00     0.000 C
ATOM     59  C2  A00 X   4      38.558  50.023  30.4290  0.00  0.00     0.000 C
ATOM     60  C3  A00 X   4      38.396  51.210  29.4570  0.00  0.00     0.000 C
ATOM     61  C4  A00 X   4      37.737  50.777  28.1290  0.00  0.00     0.000 C
ATOM     62  C5  A00 X   4      36.375  50.141  28.5060  0.00  0.00     0.000 C
ATOM     63  O5  A00 X   4      36.608  48.960  29.3160  0.00  0.00     0.000 O
BRANCH 59 66
ATOM     64   N  A00 X   4      39.648  49.204  29.8700  0.00  0.00     0.000 N
ATOM     66  HD  A00 X   4      39.428  48.536  29.3640  0.00  0.00     0.000 HD
ATOM     66   O  A00 X   4      40.037  48.382  32.1000  0.00  0.00     0.000 OA
ATOM     67   S  A00 X   4      40.740  48.609  30.8770  0.00  0.00     0.000 S
ATOM     68   O  A00 X   4      41.135  47.430  30.1630  0.00  0.00     0.000 OA
ATOM     69   O  A00 X   4      41.712  49.666  30.8490  0.00  0.00     0.000 OA
ENDBRANCH 59 66
BRANCH 62 70
ATOM     70   C  A00 X   4      35.508  49.739  27.2890  0.00  0.00     0.000 C
ATOM     71   O  A00 X   4      36.049  47.064  24.9100  0.00  0.00     0.000 OA
ATOM     72   O  A00 X   4      35.546  49.339  24.5720  0.00  0.00     0.000 OA
ATOM     73   O  A00 X   4      35.963  48.475  26.7780  0.00  0.00     0.000 O
ATOM     74   O  A00 X   4      37.800  48.690  25.2340  0.00  0.00     0.000 OA
ATOM     75   S  A00 X   4      36.401  48.408  25.2740  0.00  0.00     0.000 S
ENDBRANCH 62 70
ENDBRANCH 57 61
ENDBRANCH 41 57
ENDBRANCH 40 44
ENDBRANCH 20 40
ENDBRANCH 19 23
ENDBRANCH 1 19
TORSDOF 14
ENDMDL
MODEL 40
REMARK VINA RESULT:      -0.2     59.590     63.786
ROOT
ATOM      1  C1  A00 X   1       4.698  64.815  25.1310  0.00  0.00     0.000 C
ATOM      2  C2  A00 X   1       3.176  65.102  25.0270  0.00  0.00     0.000 C
ATOM      3  C3  A00 X   1       2.270  64.404  26.0930  0.00  0.00     0.000 C
ATOM      4  C4  A00 X   1       2.934  63.242  26.8770  0.00  0.00     0.000 C
ATOM      5  C5  A00 X   1       4.119  62.640  26.1230  0.00  0.00     0.000 C
ATOM      6  O5  A00 X   1       5.070  63.723  26.0080  0.00  0.00     0.000 O
ATOM      7   O  A00 X   1       1.133  63.850  25.4350  0.00  0.00     0.000 O
ATOM      9  HD  A00 X   1       1.396  63.269  26.0210  0.00  0.00     0.000 HD
ATOM      9   O  A00 X   1       3.351  63.661  28.1760  0.00  0.00     0.000 O
ATOM     11  HD  A00 X   1       3.615  63.081  28.7620  0.00  0.00     0.000 HD
ENDROOT
BRANCH 2 11
ATOM     11   O  A00 X   1       2.992  66.529  25.1170  0.00  0.00     0.000 O
ATOM     12   O  A00 X   1       0.810  67.520  25.2710  0.00  0.00     0.000 OA
ATOM     13   O  A00 X   1       1.422  66.297  23.2600  0.00  0.00     0.000 OA
ATOM     14   O  A00 X   1       2.471  68.368  23.7760  0.00  0.00     0.000 OA
ATOM     15   S  A00 X   1       1.829  67.196  24.3050  0.00  0.00     0.000 S
ENDBRANCH 2 11
BRANCH 5 16
ATOM     16   C  A00 X   1       3.769  61.987  24.7810  0.00  0.00     0.000 C
ATOM     17   O  A00 X   1       4.673  61.674  24.0350  0.00  0.00     0.000 OA
ATOM     18   O  A00 X   1       2.624  61.767  24.4430  0.00  0.00     0.000 OA
ENDBRANCH 5 16
BRANCH 1 19
ATOM     19  O4  A00 X   2       5.336  64.694  23.8370  0.00  0.00     0.000 O
BRANCH 19 23
ATOM     20  C1  A00 X   2       8.877  66.784  25.0460  0.00  0.00     0.000 C
ATOM     21  C2  A00 X   2       7.797  67.589  24.2820  0.00  0.00     0.000 C
ATOM     22  C3  A00 X   2       6.444  66.849  24.3020  0.00  0.00     0.000 C
ATOM     23  C4  A00 X   2       6.605  65.407  23.7710  0.00  0.00     0.000 C
ATOM     24  C5  A00 X   2       7.721  64.717  24.6010  0.00  0.00     0.000 C
ATOM     25  O5  A00 X   2       8.954  65.466  24.4410  0.00  0.00     0.000 O
ATOM     26   O  A00 X   2       5.462  67.666  23.6410  0.00  0.00     0.000 O
ATOM     28  HD  A00 X   2       5.961  67.792  22.9450  0.00  0.00     0.000 HD
BRANCH 21 30
ATOM     28   N  A00 X   2       8.873  68.364  23.6550  0.00  0.00     0.000 N
ATOM     30  HD  A00 X   2       8.139  68.805  23.5280  0.00  0.00     0.000 HD
ATOM     30   O  A00 X   2       8.080  70.526  23.2640  0.00  0.00     0.000 OA
ATOM     31   S  A00 X   2       8.501  69.395  22.5170  0.00  0.00     0.000 S
ATOM     32   O  A00 X   2       9.727  69.566  21.8010  0.00  0.00     0.000 OA
ATOM     33   O  A00 X   2       7.521  68.767  21.6810  0.00  0.00     0.000 OA
ENDBRANCH 21 30
BRANCH 24 34
ATOM     34   C  A00 X   2       7.921  63.193  24.4240  0.00  0.00     0.000 C
ATOM     35   O  A00 X   2      10.966  61.672  23.1310  0.00  0.00     0.000 OA
ATOM     36   O  A00 X   2       9.054  62.910  23.5790  0.00  0.00     0.000 O
ATOM     37   O  A00 X   2      10.904  63.128  24.9940  0.00  0.00     0.000 OA
ATOM     38   S  A00 X   2      10.218  62.105  24.2650  0.00  0.00     0.000 S
ATOM     39   O  A00 X   2       9.596  61.057  25.0180  0.00  0.00     0.000 OA
ENDBRANCH 24 34
BRANCH 20 40
ATOM     40  O4  A00 X   3       8.392  66.666  26.3920  0.00  0.00     0.000 O
BRANCH 40 44
ATOM     41  C1  A00 X   3       7.872  64.558  29.2910  0.00  0.00     0.000 C
ATOM     42  C2  A00 X   3       7.448  66.039  29.1930  0.00  0.00     0.000 C
ATOM     43  C3  A00 X   3       8.628  66.924  28.7150  0.00  0.00     0.000 C
ATOM     44  C4  A00 X   3       9.331  66.419  27.4610  0.00  0.00     0.000 C
ATOM     45  C5  A00 X   3       9.730  64.927  27.6390  0.00  0.00     0.000 C
ATOM     46  O5  A00 X   3       8.589  64.132  28.1000  0.00  0.00     0.000 O
ATOM     47   O  A00 X   3       8.377  68.327  28.6700  0.00  0.00     0.000 O
ATOM     49  HD  A00 X   3       8.848  68.274  27.9450  0.00  0.00     0.000 HD
BRANCH 42 49
ATOM     49   O  A00 X   3       6.336  66.101  28.2740  0.00  0.00     0.000 O
ATOM     50   O  A00 X   3       4.958  67.818  27.3340  0.00  0.00     0.000 OA
ATOM     51   O  A00 X   3       5.532  67.942  29.6240  0.00  0.00     0.000 OA
ATOM     52   O  A00 X   3       4.081  66.216  28.9180  0.00  0.00     0.000 OA
ATOM     53   S  A00 X   3       5.150  67.074  28.5380  0.00  0.00     0.000 S
ENDBRANCH 42 49
BRANCH 45 54
ATOM     54   C  A00 X   3      10.971  64.773  28.5260  0.00  0.00     0.000 C
ATOM     55   O  A00 X   3      11.446  65.733  29.0960  0.00  0.00     0.000 OA
ATOM     56   O  A00 X   3      11.503  63.684  28.6730  0.00  0.00     0.000 OA
ENDBRANCH 45 54
BRANCH 41 57
ATOM     57  O4  A00 X   4       8.570  64.283  30.5270  0.00  0.00     0.000 O
BRANCH 57 61
ATOM     58  C1  A00 X   4       8.732  60.825  33.1060  0.00  0.00     0.000 C
ATOM     59  C2  A00 X   4       9.242  60.688  31.6490  0.00  0.00     0.000 C
ATOM     60  C3  A00 X   4       9.471  62.043  30.9490  0.00  0.00     0.000 C
ATOM     61  C4  A00 X   4       8.270  62.994  31.1330  0.00  0.00     0.000 C
ATOM     62  C5  A00 X   4       8.071  63.154  32.6610  0.00  0.00     0.000 C
ATOM     63  O5  A00 X   4       7.736  61.865  33.2360  0.00  0.00     0.000 O
BRANCH 59 66
ATOM     64   N  A00 X   4       8.248  59.983  30.8210  0.00  0.00     0.000 N
ATOM     66  HD  A00 X   4       7.415  60.050  31.0510  0.00  0.00     0.000 HD
ATOM     66   O  A00 X   4       9.125  57.920  31.7010  0.00  0.00     0.000 OA
ATOM     67   S  A00 X   4       8.467  58.424  30.5360  0.00  0.00     0.000 S
ATOM     68   O  A00 X   4       7.109  57.999  30.3610  0.00  0.00     0.000 OA
ATOM     69   O  A00 X   4       9.223  58.494  29.3180  0.00  0.00     0.000 OA
ENDBRANCH 59 66
BRANCH 62 70
ATOM     70   C  A00 X   4       6.969  64.168  33.0520  0.00  0.00     0.000 C
ATOM     71   O  A00 X   4       3.383  63.881  32.6450  0.00  0.00     0.000 OA
ATOM     72   O  A00 X   4       4.856  65.631  32.0850  0.00  0.00     0.000 OA
ATOM     73   O  A00 X   4       5.683  63.539  32.9370  0.00  0.00     0.000 O
ATOM     74   O  A00 X   4       4.788  63.626  30.7020  0.00  0.00     0.000 OA
ATOM     75   S  A00 X   4       4.622  64.207  31.9950  0.00  0.00     0.000 S
ENDBRANCH 62 70
ENDBRANCH 57 61
ENDBRANCH 41 57
ENDBRANCH 40 44
ENDBRANCH 20 40
ENDBRANCH 19 23
ENDBRANCH 1 19
TORSDOF 14
ENDMDL
MODEL 41
REMARK VINA RESULT:      -0.2     51.390     56.102
ROOT
ATOM      1  C1  A00 X   1      14.076  38.065  47.9980  0.00  0.00     0.000 C
ATOM      2  C2  A00 X   1      15.270  38.156  47.0110  0.00  0.00     0.000 C
ATOM      3  C3  A00 X   1      14.924  38.608  45.5540  0.00  0.00     0.000 C
ATOM      4  C4  A00 X   1      13.422  38.552  45.1760  0.00  0.00     0.000 C
ATOM      5  C5  A00 X   1      12.639  37.583  46.0620  0.00  0.00     0.000 C
ATOM      6  O5  A00 X   1      12.760  38.126  47.3960  0.00  0.00     0.000 O
ATOM      7   O  A00 X   1      15.605  37.754  44.6370  0.00  0.00     0.000 O
ATOM      9  HD  A00 X   1      14.808  37.884  44.3230  0.00  0.00     0.000 HD
ATOM      9   O  A00 X   1      12.822  39.846  45.2290  0.00  0.00     0.000 O
ATOM     11  HD  A00 X   1      12.025  39.975  44.9150  0.00  0.00     0.000 HD
ENDROOT
BRANCH 2 11
ATOM     11   O  A00 X   1      16.232  39.072  47.5700  0.00  0.00     0.000 O
ATOM     12   O  A00 X   1      18.166  39.790  46.3410  0.00  0.00     0.000 OA
ATOM     13   O  A00 X   1      17.937  37.442  46.9340  0.00  0.00     0.000 OA
ATOM     14   O  A00 X   1      18.319  39.079  48.6180  0.00  0.00     0.000 OA
ATOM     15   S  A00 X   1      17.758  38.815  47.3200  0.00  0.00     0.000 S
ENDBRANCH 2 11
BRANCH 5 16
ATOM     16   C  A00 X   1      13.070  36.116  45.9560  0.00  0.00     0.000 C
ATOM     17   O  A00 X   1      12.649  35.326  46.7750  0.00  0.00     0.000 OA
ATOM     18   O  A00 X   1      13.810  35.716  45.0790  0.00  0.00     0.000 OA
ENDBRANCH 5 16
BRANCH 1 19
ATOM     19  O4  A00 X   2      14.188  36.946  48.9120  0.00  0.00     0.000 O
BRANCH 19 23
ATOM     20  C1  A00 X   2      12.668  39.137  52.2660  0.00  0.00     0.000 C
ATOM     21  C2  A00 X   2      14.204  39.004  52.1360  0.00  0.00     0.000 C
ATOM     22  C3  A00 X   2      14.601  38.590  50.7040  0.00  0.00     0.000 C
ATOM     23  C4  A00 X   2      13.850  37.307  50.2820  0.00  0.00     0.000 C
ATOM     24  C5  A00 X   2      12.330  37.562  50.4740  0.00  0.00     0.000 C
ATOM     25  O5  A00 X   2      12.081  37.869  51.8710  0.00  0.00     0.000 O
ATOM     26   O  A00 X   2      16.036  38.547  50.6170  0.00  0.00     0.000 O
ATOM     28  HD  A00 X   2      16.114  38.058  51.3270  0.00  0.00     0.000 HD
BRANCH 21 30
ATOM     28   N  A00 X   2      14.285  38.951  53.5990  0.00  0.00     0.000 N
ATOM     30  HD  A00 X   2      15.085  39.114  53.3100  0.00  0.00     0.000 HD
ATOM     30   O  A00 X   2      16.308  39.921  54.2520  0.00  0.00     0.000 OA
ATOM     31   S  A00 X   2      15.683  38.646  54.2710  0.00  0.00     0.000 S
ATOM     32   O  A00 X   2      15.336  38.163  55.5720  0.00  0.00     0.000 OA
ATOM     33   O  A00 X   2      16.304  37.607  53.5050  0.00  0.00     0.000 OA
ENDBRANCH 21 30
BRANCH 24 34
ATOM     34   C  A00 X   2      11.341  36.516  49.9070  0.00  0.00     0.000 C
ATOM     35   O  A00 X   2      11.336  32.997  50.8420  0.00  0.00     0.000 OA
ATOM     36   O  A00 X   2      11.792  35.173  50.1750  0.00  0.00     0.000 O
ATOM     37   O  A00 X   2      11.156  34.775  52.3900  0.00  0.00     0.000 OA
ATOM     38   S  A00 X   2      10.834  34.311  51.0760  0.00  0.00     0.000 S
ATOM     39   O  A00 X   2       9.505  34.547  50.5960  0.00  0.00     0.000 OA
ENDBRANCH 24 34
BRANCH 20 40
ATOM     40  O4  A00 X   3      12.286  40.155  51.3290  0.00  0.00     0.000 O
BRANCH 40 44
ATOM     41  C1  A00 X   3       9.976  41.228  48.7530  0.00  0.00     0.000 C
ATOM     42  C2  A00 X   3      11.207  42.033  49.2230  0.00  0.00     0.000 C
ATOM     43  C3  A00 X   3      11.223  42.173  50.7670  0.00  0.00     0.000 C
ATOM     44  C4  A00 X   3      11.043  40.863  51.5230  0.00  0.00     0.000 C
ATOM     45  C5  A00 X   3       9.785  40.115  50.9990  0.00  0.00     0.000 C
ATOM     46  O5  A00 X   3       9.806  40.015  49.5380  0.00  0.00     0.000 O
ATOM     47   O  A00 X   3      12.271  42.974  51.3090  0.00  0.00     0.000 O
ATOM     49  HD  A00 X   3      12.273  42.359  51.9180  0.00  0.00     0.000 HD
BRANCH 42 49
ATOM     49   O  A00 X   3      12.377  41.336  48.7430  0.00  0.00     0.000 O
ATOM     50   O  A00 X   3      14.749  41.602  48.9250  0.00  0.00     0.000 OA
ATOM     51   O  A00 X   3      13.409  43.518  48.5750  0.00  0.00     0.000 OA
ATOM     52   O  A00 X   3      13.594  41.937  46.8270  0.00  0.00     0.000 OA
ATOM     53   S  A00 X   3      13.615  42.132  48.2360  0.00  0.00     0.000 S
ENDBRANCH 42 49
BRANCH 45 54
ATOM     54   C  A00 X   3       8.490  40.731  51.5420  0.00  0.00     0.000 C
ATOM     55   O  A00 X   3       7.422  40.182  51.3660  0.00  0.00     0.000 OA
ATOM     56   O  A00 X   3       8.511  41.784  52.1600  0.00  0.00     0.000 OA
ENDBRANCH 45 54
BRANCH 41 57
ATOM     57  O4  A00 X   4       8.792  42.054  48.6850  0.00  0.00     0.000 O
BRANCH 57 61
ATOM     58  C1  A00 X   4       5.358  42.058  46.0680  0.00  0.00     0.000 C
ATOM     59  C2  A00 X   4       5.623  40.807  46.9400  0.00  0.00     0.000 C
ATOM     60  C3  A00 X   4       6.639  41.052  48.0750  0.00  0.00     0.000 C
ATOM     61  C4  A00 X   4       7.906  41.772  47.5650  0.00  0.00     0.000 C
ATOM     62  C5  A00 X   4       7.424  43.094  46.9170  0.00  0.00     0.000 C
ATOM     63  O5  A00 X   4       6.574  42.787  45.7820  0.00  0.00     0.000 O
BRANCH 59 66
ATOM     64   N  A00 X   4       6.205  39.735  46.1110  0.00  0.00     0.000 N
ATOM     66  HD  A00 X   4       6.661  39.972  45.4140  0.00  0.00     0.000 HD
ATOM     66   O  A00 X   4       3.964  39.196  45.4140  0.00  0.00     0.000 OA
ATOM     67   S  A00 X   4       5.238  38.573  45.5890  0.00  0.00     0.000 S
ATOM     68   O  A00 X   4       5.913  38.199  44.3800  0.00  0.00     0.000 OA
ATOM     69   O  A00 X   4       5.379  37.626  46.6590  0.00  0.00     0.000 OA
ENDBRANCH 59 66
BRANCH 62 70
ATOM     70   C  A00 X   4       8.570  44.017  46.4380  0.00  0.00     0.000 C
ATOM     71   O  A00 X   4      10.865  43.529  43.6810  0.00  0.00     0.000 OA
ATOM     72   O  A00 X   4      11.265  44.124  45.9240  0.00  0.00     0.000 OA
ATOM     73   O  A00 X   4       9.055  43.552  45.1680  0.00  0.00     0.000 O
ATOM     74   O  A00 X   4      10.713  41.815  45.3710  0.00  0.00     0.000 OA
ATOM     75   S  A00 X   4      10.578  43.200  45.0490  0.00  0.00     0.000 S
ENDBRANCH 62 70
ENDBRANCH 57 61
ENDBRANCH 41 57
ENDBRANCH 40 44
ENDBRANCH 20 40
ENDBRANCH 19 23
ENDBRANCH 1 19
TORSDOF 14
ENDMDL
MODEL 42
REMARK VINA RESULT:      -0.2     52.943     57.403
ROOT
ATOM      1  C1  A00 X   1      17.296  60.205  10.1140  0.00  0.00     0.000 C
ATOM      2  C2  A00 X   1      16.196  60.421   9.0410  0.00  0.00     0.000 C
ATOM      3  C3  A00 X   1      15.130  61.520   9.3620  0.00  0.00     0.000 C
ATOM      4  C4  A00 X   1      15.080  61.992  10.8380  0.00  0.00     0.000 C
ATOM      5  C5  A00 X   1      15.667  60.956  11.7950  0.00  0.00     0.000 C
ATOM      6  O5  A00 X   1      17.050  60.830  11.3980  0.00  0.00     0.000 O
ATOM      7   O  A00 X   1      13.836  61.005   9.0570  0.00  0.00     0.000 O
ATOM      9  HD  A00 X   1      13.768  61.443   9.8010  0.00  0.00     0.000 HD
ATOM      9   O  A00 X   1      15.749  63.241  11.0090  0.00  0.00     0.000 O
ATOM     11  HD  A00 X   1      15.681  63.679  11.7530  0.00  0.00     0.000 HD
ENDROOT
BRANCH 2 11
ATOM     11   O  A00 X   1      16.851  60.750   7.8010  0.00  0.00     0.000 O
ATOM     12   O  A00 X   1      15.620  61.445   5.8590  0.00  0.00     0.000 OA
ATOM     13   O  A00 X   1      15.295  59.199   6.7340  0.00  0.00     0.000 OA
ATOM     14   O  A00 X   1      17.360  59.811   5.7240  0.00  0.00     0.000 OA
ATOM     15   S  A00 X   1      16.209  60.272   6.4530  0.00  0.00     0.000 S
ENDBRANCH 2 11
BRANCH 5 16
ATOM     16   C  A00 X   1      14.919  59.619  11.8420  0.00  0.00     0.000 C
ATOM     17   O  A00 X   1      15.439  58.681  12.4090  0.00  0.00     0.000 OA
ATOM     18   O  A00 X   1      13.824  59.468  11.3380  0.00  0.00     0.000 OA
ENDBRANCH 5 16
BRANCH 1 19
ATOM     19  O4  A00 X   2      17.665  58.812  10.2670  0.00  0.00     0.000 O
BRANCH 19 23
ATOM     20  C1  A00 X   2      21.840  59.653  10.7430  0.00  0.00     0.000 C
ATOM     21  C2  A00 X   2      21.353  59.224   9.3370  0.00  0.00     0.000 C
ATOM     22  C3  A00 X   2      19.823  59.379   9.2150  0.00  0.00     0.000 C
ATOM     23  C4  A00 X   2      19.106  58.622  10.3550  0.00  0.00     0.000 C
ATOM     24  C5  A00 X   2      19.693  59.127  11.7020  0.00  0.00     0.000 C
ATOM     25  O5  A00 X   2      21.119  58.857  11.7210  0.00  0.00     0.000 O
ATOM     26   O  A00 X   2      19.431  59.035   7.8750  0.00  0.00     0.000 O
ATOM     28  HD  A00 X   2      19.865  58.286   7.8870  0.00  0.00     0.000 HD
BRANCH 21 30
ATOM     28   N  A00 X   2      22.632  58.531   9.1470  0.00  0.00     0.000 N
ATOM     30  HD  A00 X   2      22.268  58.605   8.3650  0.00  0.00     0.000 HD
ATOM     30   O  A00 X   2      23.172  58.612   6.8760  0.00  0.00     0.000 OA
ATOM     31   S  A00 X   2      22.828  57.643   7.8550  0.00  0.00     0.000 S
ATOM     32   O  A00 X   2      23.885  56.749   8.2160  0.00  0.00     0.000 OA
ATOM     33   O  A00 X   2      21.610  56.917   7.6510  0.00  0.00     0.000 OA
ENDBRANCH 21 30
BRANCH 24 34
ATOM     34   C  A00 X   2      18.987  58.696  13.0090  0.00  0.00     0.000 C
ATOM     35   O  A00 X   2      18.479  55.231  14.0050  0.00  0.00     0.000 OA
ATOM     36   O  A00 X   2      18.619  57.302  12.9680  0.00  0.00     0.000 O
ATOM     37   O  A00 X   2      20.592  56.163  13.4960  0.00  0.00     0.000 OA
ATOM     38   S  A00 X   2      19.298  56.397  14.0600  0.00  0.00     0.000 S
ATOM     39   O  A00 X   2      19.232  57.128  15.2900  0.00  0.00     0.000 OA
ENDBRANCH 24 34
BRANCH 20 40
ATOM     40  O4  A00 X   3      21.467  61.032  10.8770  0.00  0.00     0.000 O
BRANCH 40 44
ATOM     41  C1  A00 X   3      20.032  63.617  12.9710  0.00  0.00     0.000 C
ATOM     42  C2  A00 X   3      20.512  63.826  11.5190  0.00  0.00     0.000 C
ATOM     43  C3  A00 X   3      21.953  63.287  11.3270  0.00  0.00     0.000 C
ATOM     44  C4  A00 X   3      22.168  61.864  11.8270  0.00  0.00     0.000 C
ATOM     45  C5  A00 X   3      21.666  61.734  13.2930  0.00  0.00     0.000 C
ATOM     46  O5  A00 X   3      20.308  62.264  13.4300  0.00  0.00     0.000 O
ATOM     47   O  A00 X   3      22.533  63.505  10.0430  0.00  0.00     0.000 O
ATOM     49  HD  A00 X   3      22.846  62.708  10.1730  0.00  0.00     0.000 HD
BRANCH 42 49
ATOM     49   O  A00 X   3      19.573  63.143  10.6600  0.00  0.00     0.000 O
ATOM     50   O  A00 X   3      19.350  62.740   8.3110  0.00  0.00     0.000 OA
ATOM     51   O  A00 X   3      20.038  64.880   9.0410  0.00  0.00     0.000 OA
ATOM     52   O  A00 X   3      17.824  64.193   9.4980  0.00  0.00     0.000 OA
ATOM     53   S  A00 X   3      19.164  63.762   9.2920  0.00  0.00     0.000 S
ENDBRANCH 42 49
BRANCH 45 54
ATOM     54   C  A00 X   3      22.658  62.349  14.2880  0.00  0.00     0.000 C
ATOM     55   O  A00 X   3      23.599  63.007  13.8970  0.00  0.00     0.000 OA
ATOM     56   O  A00 X   3      22.518  62.186  15.4910  0.00  0.00     0.000 OA
ENDBRANCH 45 54
BRANCH 41 57
ATOM     57  O4  A00 X   4      20.530  64.649  13.8520  0.00  0.00     0.000 O
BRANCH 57 61
ATOM     58  C1  A00 X   4      18.882  66.577  17.3450  0.00  0.00     0.000 C
ATOM     59  C2  A00 X   4      19.130  65.049  17.3910  0.00  0.00     0.000 C
ATOM     60  C3  A00 X   4      20.037  64.540  16.2520  0.00  0.00     0.000 C
ATOM     61  C4  A00 X   4      19.596  65.090  14.8780  0.00  0.00     0.000 C
ATOM     62  C5  A00 X   4      19.620  66.634  14.9980  0.00  0.00     0.000 C
ATOM     63  O5  A00 X   4      18.655  67.050  15.9980  0.00  0.00     0.000 O
BRANCH 59 66
ATOM     64   N  A00 X   4      17.851  64.334  17.2320  0.00  0.00     0.000 N
ATOM     66  HD  A00 X   4      17.222  64.732  16.7890  0.00  0.00     0.000 HD
ATOM     66   O  A00 X   4      17.478  64.685  19.5850  0.00  0.00     0.000 OA
ATOM     67   S  A00 X   4      17.132  63.769  18.5440  0.00  0.00     0.000 S
ATOM     68   O  A00 X   4      15.762  63.802  18.1220  0.00  0.00     0.000 OA
ATOM     69   O  A00 X   4      17.699  62.451  18.5960  0.00  0.00     0.000 OA
ENDBRANCH 59 66
BRANCH 62 70
ATOM     70   C  A00 X   4      19.310  67.375  13.6760  0.00  0.00     0.000 C
ATOM     71   O  A00 X   4      16.170  67.589  11.8860  0.00  0.00     0.000 OA
ATOM     72   O  A00 X   4      18.334  67.054  11.1290  0.00  0.00     0.000 OA
ATOM     73   O  A00 X   4      17.889  67.398  13.4670  0.00  0.00     0.000 O
ATOM     74   O  A00 X   4      17.061  65.406  12.3940  0.00  0.00     0.000 OA
ATOM     75   S  A00 X   4      17.333  66.784  12.1360  0.00  0.00     0.000 S
ENDBRANCH 62 70
ENDBRANCH 57 61
ENDBRANCH 41 57
ENDBRANCH 40 44
ENDBRANCH 20 40
ENDBRANCH 19 23
ENDBRANCH 1 19
TORSDOF 14
ENDMDL
MODEL 43
REMARK VINA RESULT:      -0.2     65.250     69.819
ROOT
ATOM      1  C1  A00 X   1      36.198  56.819  45.8720  0.00  0.00     0.000 C
ATOM      2  C2  A00 X   1      36.417  58.252  45.3180  0.00  0.00     0.000 C
ATOM      3  C3  A00 X   1      35.183  59.211  45.3860  0.00  0.00     0.000 C
ATOM      4  C4  A00 X   1      33.817  58.525  45.6460  0.00  0.00     0.000 C
ATOM      5  C5  A00 X   1      33.829  57.047  45.2540  0.00  0.00     0.000 C
ATOM      6  O5  A00 X   1      34.820  56.447  46.1180  0.00  0.00     0.000 O
ATOM      7   O  A00 X   1      35.064  59.891  44.1380  0.00  0.00     0.000 O
ATOM      9  HD  A00 X   1      34.264  59.670  44.3860  0.00  0.00     0.000 HD
ATOM      9   O  A00 X   1      33.417  58.659  47.0090  0.00  0.00     0.000 O
ATOM     11  HD  A00 X   1      32.617  58.438  47.2570  0.00  0.00     0.000 HD
ENDROOT
BRANCH 2 11
ATOM     11   O  A00 X   1      37.510  58.842  46.0490  0.00  0.00     0.000 O
ATOM     12   O  A00 X   1      38.376  61.015  45.5030  0.00  0.00     0.000 OA
ATOM     13   O  A00 X   1      38.569  59.215  43.8790  0.00  0.00     0.000 OA
ATOM     14   O  A00 X   1      39.820  59.152  45.9010  0.00  0.00     0.000 OA
ATOM     15   S  A00 X   1      38.620  59.616  45.2580  0.00  0.00     0.000 S
ENDBRANCH 2 11
BRANCH 5 16
ATOM     16   C  A00 X   1      34.068  56.774  43.7650  0.00  0.00     0.000 C
ATOM     17   O  A00 X   1      34.286  55.633  43.4120  0.00  0.00     0.000 OA
ATOM     18   O  A00 X   1      34.039  57.654  42.9280  0.00  0.00     0.000 OA
ENDBRANCH 5 16
BRANCH 1 19
ATOM     19  O4  A00 X   2      36.889  55.807  45.1000  0.00  0.00     0.000 O
BRANCH 19 23
ATOM     20  C1  A00 X   2      37.885  53.435  48.5270  0.00  0.00     0.000 C
ATOM     21  C2  A00 X   2      38.974  54.387  47.9760  0.00  0.00     0.000 C
ATOM     22  C3  A00 X   2      38.353  55.457  47.0540  0.00  0.00     0.000 C
ATOM     23  C4  A00 X   2      37.515  54.794  45.9380  0.00  0.00     0.000 C
ATOM     24  C5  A00 X   2      36.478  53.857  46.6160  0.00  0.00     0.000 C
ATOM     25  O5  A00 X   2      37.190  52.856  47.3910  0.00  0.00     0.000 O
ATOM     26   O  A00 X   2      39.391  56.354  46.6250  0.00  0.00     0.000 O
ATOM     28  HD  A00 X   2      39.914  55.710  46.3740  0.00  0.00     0.000 HD
BRANCH 21 30
ATOM     28   N  A00 X   2      39.982  53.392  48.3570  0.00  0.00     0.000 N
ATOM     30  HD  A00 X   2      40.404  54.135  48.2150  0.00  0.00     0.000 HD
ATOM     30   O  A00 X   2      41.941  54.527  48.9340  0.00  0.00     0.000 OA
ATOM     31   S  A00 X   2      41.484  53.633  47.9300  0.00  0.00     0.000 S
ATOM     32   O  A00 X   2      42.063  52.326  47.9770  0.00  0.00     0.000 OA
ATOM     33   O  A00 X   2      41.468  54.122  46.5840  0.00  0.00     0.000 OA
ENDBRANCH 21 30
BRANCH 24 34
ATOM     34   C  A00 X   2      35.364  53.247  45.7330  0.00  0.00     0.000 C
ATOM     35   O  A00 X   2      34.942  49.677  45.1550  0.00  0.00     0.000 OA
ATOM     36   O  A00 X   2      35.651  51.873  45.4040  0.00  0.00     0.000 O
ATOM     37   O  A00 X   2      34.996  50.672  47.3010  0.00  0.00     0.000 OA
ATOM     38   S  A00 X   2      34.605  50.825  45.9320  0.00  0.00     0.000 S
ATOM     39   O  A00 X   2      33.310  51.377  45.6700  0.00  0.00     0.000 OA
ENDBRANCH 24 34
BRANCH 20 40
ATOM     40  O4  A00 X   3      36.981  54.268  49.2690  0.00  0.00     0.000 O
BRANCH 40 44
ATOM     41  C1  A00 X   3      33.558  55.115  50.0970  0.00  0.00     0.000 C
ATOM     42  C2  A00 X   3      34.802  55.848  50.6420  0.00  0.00     0.000 C
ATOM     43  C3  A00 X   3      35.825  54.843  51.2310  0.00  0.00     0.000 C
ATOM     44  C4  A00 X   3      36.173  53.680  50.3110  0.00  0.00     0.000 C
ATOM     45  C5  A00 X   3      34.872  52.992  49.8090  0.00  0.00     0.000 C
ATOM     46  O5  A00 X   3      33.933  53.978  49.2710  0.00  0.00     0.000 O
ATOM     47   O  A00 X   3      36.979  55.416  51.8440  0.00  0.00     0.000 O
ATOM     49  HD  A00 X   3      37.374  54.745  51.4650  0.00  0.00     0.000 HD
BRANCH 42 49
ATOM     49   O  A00 X   3      35.369  56.595  49.5430  0.00  0.00     0.000 O
ATOM     50   O  A00 X   3      37.284  57.990  49.2000  0.00  0.00     0.000 OA
ATOM     51   O  A00 X   3      36.055  58.212  51.2080  0.00  0.00     0.000 OA
ATOM     52   O  A00 X   3      35.041  58.892  49.1840  0.00  0.00     0.000 OA
ATOM     53   S  A00 X   3      35.979  58.006  49.7830  0.00  0.00     0.000 S
ENDBRANCH 42 49
BRANCH 45 54
ATOM     54   C  A00 X   3      34.253  52.094  50.8860  0.00  0.00     0.000 C
ATOM     55   O  A00 X   3      33.328  51.355  50.6200  0.00  0.00     0.000 OA
ATOM     56   O  A00 X   3      34.679  52.107  52.0310  0.00  0.00     0.000 OA
ENDBRANCH 45 54
BRANCH 41 57
ATOM     57  O4  A00 X   4      32.624  54.792  51.1510  0.00  0.00     0.000 O
BRANCH 57 61
ATOM     58  C1  A00 X   4      28.315  54.570  51.2960  0.00  0.00     0.000 C
ATOM     59  C2  A00 X   4      29.075  53.612  50.3450  0.00  0.00     0.000 C
ATOM     60  C3  A00 X   4      30.587  53.528  50.6370  0.00  0.00     0.000 C
ATOM     61  C4  A00 X   4      31.219  54.928  50.7960  0.00  0.00     0.000 C
ATOM     62  C5  A00 X   4      30.442  55.629  51.9370  0.00  0.00     0.000 C
ATOM     63  O5  A00 X   4      29.055  55.787  51.5440  0.00  0.00     0.000 O
BRANCH 59 66
ATOM     64   N  A00 X   4      28.975  54.075  48.9490  0.00  0.00     0.000 N
ATOM     66  HD  A00 X   4      28.877  54.925  48.8160  0.00  0.00     0.000 HD
ATOM     66   O  A00 X   4      26.807  53.029  48.8630  0.00  0.00     0.000 OA
ATOM     67   S  A00 X   4      27.889  53.386  47.9980  0.00  0.00     0.000 S
ATOM     68   O  A00 X   4      27.622  54.461  47.0880  0.00  0.00     0.000 OA
ATOM     69   O  A00 X   4      28.678  52.324  47.4400  0.00  0.00     0.000 OA
ENDBRANCH 59 66
BRANCH 62 70
ATOM     70   C  A00 X   4      31.004  57.018  52.3240  0.00  0.00     0.000 C
ATOM     71   O  A00 X   4      30.927  60.098  50.4230  0.00  0.00     0.000 OA
ATOM     72   O  A00 X   4      32.705  59.023  51.5290  0.00  0.00     0.000 OA
ATOM     73   O  A00 X   4      30.533  57.999  51.3850  0.00  0.00     0.000 O
ATOM     74   O  A00 X   4      31.899  58.140  49.4050  0.00  0.00     0.000 OA
ATOM     75   S  A00 X   4      31.602  58.845  50.6110  0.00  0.00     0.000 S
ENDBRANCH 62 70
ENDBRANCH 57 61
ENDBRANCH 41 57
ENDBRANCH 40 44
ENDBRANCH 20 40
ENDBRANCH 19 23
ENDBRANCH 1 19
TORSDOF 14
ENDMDL
MODEL 44
REMARK VINA RESULT:      -0.2     31.732     36.298
ROOT
ATOM      1  C1  A00 X   1      24.983  31.182  24.3050  0.00  0.00     0.000 C
ATOM      2  C2  A00 X   1      23.515  31.158  24.8070  0.00  0.00     0.000 C
ATOM      3  C3  A00 X   1      23.060  32.388  25.6600  0.00  0.00     0.000 C
ATOM      4  C4  A00 X   1      24.202  33.283  26.2050  0.00  0.00     0.000 C
ATOM      5  C5  A00 X   1      25.534  32.536  26.2830  0.00  0.00     0.000 C
ATOM      6  O5  A00 X   1      25.837  32.182  24.9150  0.00  0.00     0.000 O
ATOM      7   O  A00 X   1      22.339  31.915  26.7960  0.00  0.00     0.000 O
ATOM      9  HD  A00 X   1      22.850  32.560  27.0680  0.00  0.00     0.000 HD
ATOM      9   O  A00 X   1      24.358  34.465  25.4210  0.00  0.00     0.000 O
ATOM     11  HD  A00 X   1      24.868  35.110  25.6930  0.00  0.00     0.000 HD
ENDROOT
BRANCH 2 11
ATOM     11   O  A00 X   1      22.659  31.045  23.6530  0.00  0.00     0.000 O
ATOM     12   O  A00 X   1      20.270  31.227  23.8210  0.00  0.00     0.000 OA
ATOM     13   O  A00 X   1      21.404  29.381  24.9270  0.00  0.00     0.000 OA
ATOM     14   O  A00 X   1      21.311  29.488  22.5530  0.00  0.00     0.000 OA
ATOM     15   S  A00 X   1      21.320  30.240  23.7790  0.00  0.00     0.000 S
ENDBRANCH 2 11
BRANCH 5 16
ATOM     16   C  A00 X   1      25.551  31.342  27.2430  0.00  0.00     0.000 C
ATOM     17   O  A00 X   1      26.492  30.577  27.2020  0.00  0.00     0.000 OA
ATOM     18   O  A00 X   1      24.663  31.139  28.0470  0.00  0.00     0.000 OA
ENDBRANCH 5 16
BRANCH 1 19
ATOM     19  O4  A00 X   2      25.605  29.874  24.3250  0.00  0.00     0.000 O
BRANCH 19 23
ATOM     20  C1  A00 X   2      27.694  30.470  20.6310  0.00  0.00     0.000 C
ATOM     21  C2  A00 X   2      26.357  29.690  20.5780  0.00  0.00     0.000 C
ATOM     22  C3  A00 X   2      25.531  29.929  21.8600  0.00  0.00     0.000 C
ATOM     23  C4  A00 X   2      26.369  29.600  23.1160  0.00  0.00     0.000 C
ATOM     24  C5  A00 X   2      27.682  30.426  23.0400  0.00  0.00     0.000 C
ATOM     25  O5  A00 X   2      28.397  30.056  21.8320  0.00  0.00     0.000 O
ATOM     26   O  A00 X   2      24.275  29.242  21.7330  0.00  0.00     0.000 O
ATOM     28  HD  A00 X   2      24.648  28.496  21.5020  0.00  0.00     0.000 HD
BRANCH 21 30
ATOM     28   N  A00 X   2      26.922  28.873  19.5000  0.00  0.00     0.000 N
ATOM     30  HD  A00 X   2      26.066  28.743  19.4910  0.00  0.00     0.000 HD
ATOM     30   O  A00 X   2      25.179  28.239  18.0790  0.00  0.00     0.000 OA
ATOM     31   S  A00 X   2      26.095  27.631  18.9770  0.00  0.00     0.000 S
ATOM     32   O  A00 X   2      27.084  26.802  18.3610  0.00  0.00     0.000 OA
ATOM     33   O  A00 X   2      25.543  26.977  20.1250  0.00  0.00     0.000 OA
ENDBRANCH 21 30
BRANCH 24 34
ATOM     34   C  A00 X   2      28.595  30.454  24.2890  0.00  0.00     0.000 C
ATOM     35   O  A00 X   2      32.003  29.174  24.3560  0.00  0.00     0.000 OA
ATOM     36   O  A00 X   2      29.729  29.578  24.1280  0.00  0.00     0.000 O
ATOM     37   O  A00 X   2      31.235  30.809  22.8290  0.00  0.00     0.000 OA
ATOM     38   S  A00 X   2      31.132  30.286  24.1570  0.00  0.00     0.000 S
ATOM     39   O  A00 X   2      31.090  31.224  25.2390  0.00  0.00     0.000 OA
ENDBRANCH 24 34
BRANCH 20 40
ATOM     40  O4  A00 X   3      27.331  31.854  20.7390  0.00  0.00     0.000 O
BRANCH 40 44
ATOM     41  C1  A00 X   3      27.907  35.069  22.3060  0.00  0.00     0.000 C
ATOM     42  C2  A00 X   3      26.815  34.787  21.2530  0.00  0.00     0.000 C
ATOM     43  C3  A00 X   3      27.413  34.085  20.0070  0.00  0.00     0.000 C
ATOM     44  C4  A00 X   3      28.272  32.865  20.3180  0.00  0.00     0.000 C
ATOM     45  C5  A00 X   3      29.348  33.229  21.3800  0.00  0.00     0.000 C
ATOM     46  O5  A00 X   3      28.740  33.898  22.5320  0.00  0.00     0.000 O
ATOM     47   O  A00 X   3      26.510  33.852  18.9280  0.00  0.00     0.000 O
ATOM     49  HD  A00 X   3      26.946  33.106  18.8710  0.00  0.00     0.000 HD
BRANCH 42 49
ATOM     49   O  A00 X   3      25.813  33.965  21.8910  0.00  0.00     0.000 O
ATOM     50   O  A00 X   3      23.776  32.892  21.2340  0.00  0.00     0.000 OA
ATOM     51   O  A00 X   3      24.217  35.080  20.4540  0.00  0.00     0.000 OA
ATOM     52   O  A00 X   3      23.784  34.771  22.7570  0.00  0.00     0.000 OA
ATOM     53   S  A00 X   3      24.304  34.176  21.5740  0.00  0.00     0.000 S
ENDBRANCH 42 49
BRANCH 45 54
ATOM     54   C  A00 X   3      30.507  34.022  20.7640  0.00  0.00     0.000 C
ATOM     55   O  A00 X   3      30.441  34.429  19.6220  0.00  0.00     0.000 OA
ATOM     56   O  A00 X   3      31.517  34.255  21.4090  0.00  0.00     0.000 OA
ENDBRANCH 45 54
BRANCH 41 57
ATOM     57  O4  A00 X   4      28.652  36.268  21.9960  0.00  0.00     0.000 O
BRANCH 57 61
ATOM     58  C1  A00 X   4      30.504  39.297  24.4520  0.00  0.00     0.000 C
ATOM     59  C2  A00 X   4      31.013  37.838  24.5640  0.00  0.00     0.000 C
ATOM     60  C3  A00 X   4      30.542  36.932  23.4080  0.00  0.00     0.000 C
ATOM     61  C4  A00 X   4      29.028  37.077  23.1460  0.00  0.00     0.000 C
ATOM     62  C5  A00 X   4      28.778  38.577  22.8510  0.00  0.00     0.000 C
ATOM     63  O5  A00 X   4      29.124  39.358  24.0230  0.00  0.00     0.000 O
BRANCH 59 66
ATOM     64   N  A00 X   4      30.467  37.245  25.7990  0.00  0.00     0.000 N
ATOM     66  HD  A00 X   4      29.719  37.563  26.0980  0.00  0.00     0.000 HD
ATOM     66   O  A00 X   4      32.277  38.299  26.9860  0.00  0.00     0.000 OA
ATOM     67   S  A00 X   4      31.416  37.162  27.0830  0.00  0.00     0.000 S
ATOM     68   O  A00 X   4      30.439  37.215  28.1310  0.00  0.00     0.000 OA
ATOM     69   O  A00 X   4      31.996  35.864  26.8850  0.00  0.00     0.000 OA
ENDBRANCH 59 66
BRANCH 62 70
ATOM     70   C  A00 X   4      27.321  38.909  22.4520  0.00  0.00     0.000 C
ATOM     71   O  A00 X   4      24.340  38.826  24.5040  0.00  0.00     0.000 OA
ATOM     72   O  A00 X   4      24.761  37.916  22.3740  0.00  0.00     0.000 OA
ATOM     73   O  A00 X   4      26.509  38.983  23.6350  0.00  0.00     0.000 O
ATOM     74   O  A00 X   4      25.689  36.833  24.3500  0.00  0.00     0.000 OA
ATOM     75   S  A00 X   4      25.258  38.042  23.7260  0.00  0.00     0.000 S
ENDBRANCH 62 70
ENDBRANCH 57 61
ENDBRANCH 41 57
ENDBRANCH 40 44
ENDBRANCH 20 40
ENDBRANCH 19 23
ENDBRANCH 1 19
TORSDOF 14
ENDMDL
MODEL 45
REMARK VINA RESULT:      -0.2     41.421     45.494
ROOT
ATOM      1  C1  A00 X   1      14.504  15.603  48.2430  0.00  0.00     0.000 C
ATOM      2  C2  A00 X   1      13.866  16.881  48.8490  0.00  0.00     0.000 C
ATOM      3  C3  A00 X   1      12.858  16.656  50.0240  0.00  0.00     0.000 C
ATOM      4  C4  A00 X   1      12.343  15.204  50.1940  0.00  0.00     0.000 C
ATOM      5  C5  A00 X   1      12.467  14.393  48.9040  0.00  0.00     0.000 C
ATOM      6  O5  A00 X   1      13.886  14.351  48.6320  0.00  0.00     0.000 O
ATOM      7   O  A00 X   1      11.709  17.470  49.8030  0.00  0.00     0.000 O
ATOM      9  HD  A00 X   1      11.427  16.702  50.0880  0.00  0.00     0.000 HD
ATOM      9   O  A00 X   1      13.021  14.530  51.2540  0.00  0.00     0.000 O
ATOM     11  HD  A00 X   1      12.740  13.763  51.5400  0.00  0.00     0.000 HD
ENDROOT
BRANCH 2 11
ATOM     11   O  A00 X   1      14.937  17.731  49.3060  0.00  0.00     0.000 O
ATOM     12   O  A00 X   1      14.521  19.724  50.5790  0.00  0.00     0.000 OA
ATOM     13   O  A00 X   1      13.706  19.582  48.2920  0.00  0.00     0.000 OA
ATOM     14   O  A00 X   1      16.040  19.708  48.7330  0.00  0.00     0.000 OA
ATOM     15   S  A00 X   1      14.757  19.286  49.2270  0.00  0.00     0.000 S
ENDBRANCH 2 11
BRANCH 5 16
ATOM     16   C  A00 X   1      11.633  14.913  47.7290  0.00  0.00     0.000 C
ATOM     17   O  A00 X   1      11.839  14.457  46.6230  0.00  0.00     0.000 OA
ATOM     18   O  A00 X   1      10.771  15.758  47.8660  0.00  0.00     0.000 OA
ENDBRANCH 5 16
BRANCH 1 19
ATOM     19  O4  A00 X   2      14.671  15.686  46.8070  0.00  0.00     0.000 O
BRANCH 19 23
ATOM     20  C1  A00 X   2      18.482  13.727  46.8310  0.00  0.00     0.000 C
ATOM     21  C2  A00 X   2      18.474  15.273  46.7670  0.00  0.00     0.000 C
ATOM     22  C3  A00 X   2      17.102  15.834  47.1970  0.00  0.00     0.000 C
ATOM     23  C4  A00 X   2      15.968  15.193  46.3650  0.00  0.00     0.000 C
ATOM     24  C5  A00 X   2      16.097  13.650  46.4970  0.00  0.00     0.000 C
ATOM     25  O5  A00 X   2      17.397  13.246  45.9940  0.00  0.00     0.000 O
ATOM     26   O  A00 X   2      17.167  17.270  47.1870  0.00  0.00     0.000 O
ATOM     28  HD  A00 X   2      17.500  17.299  46.3880  0.00  0.00     0.000 HD
BRANCH 21 30
ATOM     28   N  A00 X   2      19.670  15.207  45.9220  0.00  0.00     0.000 N
ATOM     30  HD  A00 X   2      19.608  16.023  46.2040  0.00  0.00     0.000 HD
ATOM     30   O  A00 X   2      20.967  17.103  46.3460  0.00  0.00     0.000 OA
ATOM     31   S  A00 X   2      20.219  16.542  45.2780  0.00  0.00     0.000 S
ATOM     32   O  A00 X   2      20.998  16.087  44.1680  0.00  0.00     0.000 OA
ATOM     33   O  A00 X   2      19.085  17.287  44.8170  0.00  0.00     0.000 OA
ENDBRANCH 21 30
BRANCH 24 34
ATOM     34   C  A00 X   2      14.945  12.777  45.9460  0.00  0.00     0.000 C
ATOM     35   O  A00 X   2      13.831  12.817  42.4800  0.00  0.00     0.000 OA
ATOM     36   O  A00 X   2      14.498  13.251  44.6600  0.00  0.00     0.000 O
ATOM     37   O  A00 X   2      16.059  12.391  43.1470  0.00  0.00     0.000 OA
ATOM     38   S  A00 X   2      14.674  12.237  43.4720  0.00  0.00     0.000 S
ATOM     39   O  A00 X   2      14.246  10.961  43.9620  0.00  0.00     0.000 OA
ENDBRANCH 24 34
BRANCH 20 40
ATOM     40  O4  A00 X   3      18.215  13.394  48.2010  0.00  0.00     0.000 O
BRANCH 40 44
ATOM     41  C1  A00 X   3      16.374  11.304  50.5180  0.00  0.00     0.000 C
ATOM     42  C2  A00 X   3      17.340  12.435  50.9300  0.00  0.00     0.000 C
ATOM     43  C3  A00 X   3      18.707  12.287  50.2140  0.00  0.00     0.000 C
ATOM     44  C4  A00 X   3      18.615  12.101  48.7050  0.00  0.00     0.000 C
ATOM     45  C5  A00 X   3      17.631  10.945  48.3710  0.00  0.00     0.000 C
ATOM     46  O5  A00 X   3      16.359  11.120  49.0750  0.00  0.00     0.000 O
ATOM     47   O  A00 X   3      19.710  13.230  50.5860  0.00  0.00     0.000 O
ATOM     49  HD  A00 X   3      19.890  13.203  49.7390  0.00  0.00     0.000 HD
BRANCH 42 49
ATOM     49   O  A00 X   3      16.699  13.684  50.5900  0.00  0.00     0.000 O
ATOM     50   O  A00 X   3      17.263  16.008  50.6970  0.00  0.00     0.000 OA
ATOM     51   O  A00 X   3      17.842  14.608  52.5120  0.00  0.00     0.000 OA
ATOM     52   O  A00 X   3      15.555  15.053  52.1170  0.00  0.00     0.000 OA
ATOM     53   S  A00 X   3      16.841  14.921  51.5240  0.00  0.00     0.000 S
ENDBRANCH 42 49
BRANCH 45 54
ATOM     54   C  A00 X   3      18.268   9.571  48.6090  0.00  0.00     0.000 C
ATOM     55   O  A00 X   3      19.347   9.476  49.1590  0.00  0.00     0.000 OA
ATOM     56   O  A00 X   3      17.704   8.549  48.2500  0.00  0.00     0.000 OA
ENDBRANCH 45 54
BRANCH 41 57
ATOM     57  O4  A00 X   4      16.625  10.090  51.2620  0.00  0.00     0.000 O
BRANCH 57 61
ATOM     58  C1  A00 X   4      14.052   6.927  52.6780  0.00  0.00     0.000 C
ATOM     59  C2  A00 X   4      14.145   7.180  51.1530  0.00  0.00     0.000 C
ATOM     60  C3  A00 X   4      15.340   8.067  50.7490  0.00  0.00     0.000 C
ATOM     61  C4  A00 X   4      15.437   9.332  51.6280  0.00  0.00     0.000 C
ATOM     62  C5  A00 X   4      15.546   8.838  53.0920  0.00  0.00     0.000 C
ATOM     63  O5  A00 X   4      14.336   8.120  53.4440  0.00  0.00     0.000 O
BRANCH 59 66
ATOM     64   N  A00 X   4      12.939   7.899  50.7040  0.00  0.00     0.000 N
ATOM     66  HD  A00 X   4      12.534   8.401  51.2820  0.00  0.00     0.000 HD
ATOM     66   O  A00 X   4      11.821   5.768  50.6180  0.00  0.00     0.000 OA
ATOM     67   S  A00 X   4      11.772   7.059  50.0050  0.00  0.00     0.000 S
ATOM     68   O  A00 X   4      10.634   7.862  50.3470  0.00  0.00     0.000 OA
ATOM     69   O  A00 X   4      12.173   7.163  48.6300  0.00  0.00     0.000 OA
ENDBRANCH 59 66
BRANCH 62 70
ATOM     70   C  A00 X   4      15.765   9.969  54.1250  0.00  0.00     0.000 C
ATOM     71   O  A00 X   4      13.452  12.546  55.1820  0.00  0.00     0.000 OA
ATOM     72   O  A00 X   4      15.696  12.691  54.4840  0.00  0.00     0.000 OA
ATOM     73   O  A00 X   4      14.507  10.602  54.4110  0.00  0.00     0.000 O
ATOM     74   O  A00 X   4      13.941  12.331  52.8310  0.00  0.00     0.000 OA
ATOM     75   S  A00 X   4      14.392  12.147  54.1730  0.00  0.00     0.000 S
ENDBRANCH 62 70
ENDBRANCH 57 61
ENDBRANCH 41 57
ENDBRANCH 40 44
ENDBRANCH 20 40
ENDBRANCH 19 23
ENDBRANCH 1 19
TORSDOF 14
ENDMDL
MODEL 46
REMARK VINA RESULT:      -0.2     22.615     26.860
ROOT
ATOM      1  C1  A00 X   1      15.990  20.356  28.3100  0.00  0.00     0.000 C
ATOM      2  C2  A00 X   1      14.691  19.837  28.9830  0.00  0.00     0.000 C
ATOM      3  C3  A00 X   1      13.371  20.026  28.1650  0.00  0.00     0.000 C
ATOM      4  C4  A00 X   1      13.458  21.016  26.9750  0.00  0.00     0.000 C
ATOM      5  C5  A00 X   1      14.604  22.014  27.1370  0.00  0.00     0.000 C
ATOM      6  O5  A00 X   1      15.799  21.201  27.1490  0.00  0.00     0.000 O
ATOM      7   O  A00 X   1      12.361  20.527  29.0370  0.00  0.00     0.000 O
ATOM      9  HD  A00 X   1      12.286  20.954  28.2870  0.00  0.00     0.000 HD
ATOM      9   O  A00 X   1      13.589  20.328  25.7320  0.00  0.00     0.000 O
ATOM     11  HD  A00 X   1      13.515  20.755  24.9820  0.00  0.00     0.000 HD
ENDROOT
BRANCH 2 11
ATOM     11   O  A00 X   1      14.873  18.436  29.2650  0.00  0.00     0.000 O
ATOM     12   O  A00 X   1      13.205  17.146  30.4140  0.00  0.00     0.000 OA
ATOM     13   O  A00 X   1      14.305  18.977  31.5780  0.00  0.00     0.000 OA
ATOM     14   O  A00 X   1      15.518  17.014  31.0010  0.00  0.00     0.000 OA
ATOM     15   S  A00 X   1      14.421  17.879  30.6590  0.00  0.00     0.000 S
ENDBRANCH 2 11
BRANCH 5 16
ATOM     16   C  A00 X   1      14.485  22.947  28.3470  0.00  0.00     0.000 C
ATOM     17   O  A00 X   1      15.440  23.635  28.6460  0.00  0.00     0.000 OA
ATOM     18   O  A00 X   1      13.471  23.028  29.0100  0.00  0.00     0.000 OA
ENDBRANCH 5 16
BRANCH 1 19
ATOM     19  O4  A00 X   2      16.911  20.955  29.2550  0.00  0.00     0.000 O
BRANCH 19 23
ATOM     20  C1  A00 X   2      20.399  19.412  27.3000  0.00  0.00     0.000 C
ATOM     21  C2  A00 X   2      19.869  18.639  28.5320  0.00  0.00     0.000 C
ATOM     22  C3  A00 X   2      18.413  19.041  28.8480  0.00  0.00     0.000 C
ATOM     23  C4  A00 X   2      18.294  20.573  29.0060  0.00  0.00     0.000 C
ATOM     24  C5  A00 X   2      18.872  21.229  27.7210  0.00  0.00     0.000 C
ATOM     25  O5  A00 X   2      20.261  20.831  27.5780  0.00  0.00     0.000 O
ATOM     26   O  A00 X   2      17.945  18.248  29.9530  0.00  0.00     0.000 O
ATOM     28  HD  A00 X   2      18.639  18.427  30.4400  0.00  0.00     0.000 HD
BRANCH 21 30
ATOM     28   N  A00 X   2      21.256  18.312  28.8740  0.00  0.00     0.000 N
ATOM     30  HD  A00 X   2      20.752  17.778  29.3340  0.00  0.00     0.000 HD
ATOM     30   O  A00 X   2      21.273  16.224  29.9230  0.00  0.00     0.000 OA
ATOM     31   S  A00 X   2      21.546  17.579  30.2450  0.00  0.00     0.000 S
ATOM     32   O  A00 X   2      22.922  17.874  30.5020  0.00  0.00     0.000 OA
ATOM     33   O  A00 X   2      20.713  18.192  31.2370  0.00  0.00     0.000 OA
ENDBRANCH 21 30
BRANCH 24 34
ATOM     34   C  A00 X   2      18.663  22.749  27.5250  0.00  0.00     0.000 C
ATOM     35   O  A00 X   2      19.826  25.287  29.8620  0.00  0.00     0.000 OA
ATOM     36   O  A00 X   2      18.902  23.471  28.7490  0.00  0.00     0.000 O
ATOM     37   O  A00 X   2      21.230  23.667  28.8640  0.00  0.00     0.000 OA
ATOM     38   S  A00 X   2      20.084  24.507  28.6960  0.00  0.00     0.000 S
ATOM     39   O  A00 X   2      19.952  25.209  27.4550  0.00  0.00     0.000 OA
ENDBRANCH 24 34
BRANCH 20 40
ATOM     40  O4  A00 X   3      19.534  19.050  26.2130  0.00  0.00     0.000 O
BRANCH 40 44
ATOM     41  C1  A00 X   3      17.621  20.144  23.3380  0.00  0.00     0.000 C
ATOM     42  C2  A00 X   3      17.678  18.691  23.8560  0.00  0.00     0.000 C
ATOM     43  C3  A00 X   3      19.144  18.226  24.0480  0.00  0.00     0.000 C
ATOM     44  C4  A00 X   3      20.011  19.183  24.8570  0.00  0.00     0.000 C
ATOM     45  C5  A00 X   3      19.906  20.620  24.2730  0.00  0.00     0.000 C
ATOM     46  O5  A00 X   3      18.506  21.013  24.0990  0.00  0.00     0.000 O
ATOM     47   O  A00 X   3      19.321  16.867  24.4420  0.00  0.00     0.000 O
ATOM     49  HD  A00 X   3      19.948  17.208  24.9320  0.00  0.00     0.000 HD
BRANCH 42 49
ATOM     49   O  A00 X   3      16.946  18.657  25.1010  0.00  0.00     0.000 O
ATOM     50   O  A00 X   3      16.460  17.023  26.7810  0.00  0.00     0.000 OA
ATOM     51   O  A00 X   3      16.360  16.386  24.5070  0.00  0.00     0.000 OA
ATOM     52   O  A00 X   3      14.736  17.895  25.3270  0.00  0.00     0.000 OA
ATOM     53   S  A00 X   3      16.071  17.423  25.4660  0.00  0.00     0.000 S
ENDBRANCH 42 49
BRANCH 45 54
ATOM     54   C  A00 X   3      20.739  20.775  22.9950  0.00  0.00     0.000 C
ATOM     55   O  A00 X   3      20.947  21.874  22.5220  0.00  0.00     0.000 OA
ATOM     56   O  A00 X   3      21.206  19.798  22.4300  0.00  0.00     0.000 OA
ENDBRANCH 45 54
BRANCH 41 57
ATOM     57  O4  A00 X   4      17.822  20.209  21.9080  0.00  0.00     0.000 O
BRANCH 57 61
ATOM     58  C1  A00 X   4      16.296  22.837  18.8410  0.00  0.00     0.000 C
ATOM     59  C2  A00 X   4      17.163  23.443  19.9730  0.00  0.00     0.000 C
ATOM     60  C3  A00 X   4      17.937  22.387  20.7880  0.00  0.00     0.000 C
ATOM     61  C4  A00 X   4      17.028  21.215  21.2170  0.00  0.00     0.000 C
ATOM     62  C5  A00 X   4      16.432  20.626  19.9150  0.00  0.00     0.000 C
ATOM     63  O5  A00 X   4      15.616  21.634  19.2650  0.00  0.00     0.000 O
BRANCH 59 66
ATOM     64   N  A00 X   4      16.328  24.152  20.9600  0.00  0.00     0.000 N
ATOM     66  HD  A00 X   4      15.513  23.876  21.0650  0.00  0.00     0.000 HD
ATOM     66   O  A00 X   4      16.315  26.029  19.4520  0.00  0.00     0.000 OA
ATOM     67   S  A00 X   4      16.209  25.743  20.8490  0.00  0.00     0.000 S
ATOM     68   O  A00 X   4      14.911  25.946  21.4230  0.00  0.00     0.000 OA
ATOM     69   O  A00 X   4      17.297  26.138  21.6980  0.00  0.00     0.000 OA
ENDBRANCH 59 66
BRANCH 62 70
ATOM     70   C  A00 X   4      15.570  19.359  20.1310  0.00  0.00     0.000 C
ATOM     71   O  A00 X   4      12.344  19.068  21.7480  0.00  0.00     0.000 OA
ATOM     72   O  A00 X   4      14.322  17.824  22.0360  0.00  0.00     0.000 OA
ATOM     73   O  A00 X   4      14.265  19.746  20.5910  0.00  0.00     0.000 O
ATOM     74   O  A00 X   4      14.163  20.066  22.9770  0.00  0.00     0.000 OA
ATOM     75   S  A00 X   4      13.763  19.155  21.9540  0.00  0.00     0.000 S
ENDBRANCH 62 70
ENDBRANCH 57 61
ENDBRANCH 41 57
ENDBRANCH 40 44
ENDBRANCH 20 40
ENDBRANCH 19 23
ENDBRANCH 1 19
TORSDOF 14
ENDMDL
MODEL 47
REMARK VINA RESULT:      -0.2     32.370     37.035
ROOT
ATOM      1  C1  A00 X   1       9.409  17.667  36.8900  0.00  0.00     0.000 C
ATOM      2  C2  A00 X   1      10.435  16.815  36.0950  0.00  0.00     0.000 C
ATOM      3  C3  A00 X   1      10.792  15.421  36.7080  0.00  0.00     0.000 C
ATOM      4  C4  A00 X   1      10.378  15.215  38.1880  0.00  0.00     0.000 C
ATOM      5  C5  A00 X   1      10.202  16.541  38.9280  0.00  0.00     0.000 C
ATOM      6  O5  A00 X   1       9.123  17.208  38.2350  0.00  0.00     0.000 O
ATOM      7   O  A00 X   1      12.207  15.248  36.6560  0.00  0.00     0.000 O
ATOM      9  HD  A00 X   1      11.941  14.949  37.4250  0.00  0.00     0.000 HD
ATOM      9   O  A00 X   1       9.182  14.442  38.2930  0.00  0.00     0.000 O
ATOM     11  HD  A00 X   1       8.917  14.144  39.0610  0.00  0.00     0.000 HD
ENDROOT
BRANCH 2 11
ATOM     11   O  A00 X   1       9.910  16.623  34.7670  0.00  0.00     0.000 O
ATOM     12   O  A00 X   1      11.149  15.467  33.0670  0.00  0.00     0.000 OA
ATOM     13   O  A00 X   1      12.015  17.558  33.9560  0.00  0.00     0.000 OA
ATOM     14   O  A00 X   1      10.045  17.540  32.6240  0.00  0.00     0.000 OA
ATOM     15   S  A00 X   1      10.869  16.798  33.5400  0.00  0.00     0.000 S
ENDBRANCH 2 11
BRANCH 5 16
ATOM     16   C  A00 X   1      11.472  17.390  39.0470  0.00  0.00     0.000 C
ATOM     17   O  A00 X   1      11.371  18.534  39.4420  0.00  0.00     0.000 OA
ATOM     18   O  A00 X   1      12.572  16.959  38.7680  0.00  0.00     0.000 OA
ENDBRANCH 5 16
BRANCH 1 19
ATOM     19  O4  A00 X   2       9.719  19.082  36.8690  0.00  0.00     0.000 O
BRANCH 19 23
ATOM     20  C1  A00 X   2       5.612  20.289  36.6590  0.00  0.00     0.000 C
ATOM     21  C2  A00 X   2       6.411  20.239  35.3340  0.00  0.00     0.000 C
ATOM     22  C3  A00 X   2       7.693  19.395  35.4970  0.00  0.00     0.000 C
ATOM     23  C4  A00 X   2       8.535  19.910  36.6860  0.00  0.00     0.000 C
ATOM     24  C5  A00 X   2       7.621  19.930  37.9420  0.00  0.00     0.000 C
ATOM     25  O5  A00 X   2       6.496  20.812  37.6860  0.00  0.00     0.000 O
ATOM     26   O  A00 X   2       8.361  19.322  34.2260  0.00  0.00     0.000 O
ATOM     28  HD  A00 X   2       8.330  20.179  34.1040  0.00  0.00     0.000 HD
BRANCH 21 30
ATOM     28   N  A00 X   2       5.637  21.394  34.8680  0.00  0.00     0.000 N
ATOM     30  HD  A00 X   2       6.017  21.049  34.1710  0.00  0.00     0.000 HD
ATOM     30   O  A00 X   2       5.406  21.227  32.5500  0.00  0.00     0.000 OA
ATOM     31   S  A00 X   2       6.038  22.073  33.4980  0.00  0.00     0.000 S
ATOM     32   O  A00 X   2       5.486  23.388  33.5980  0.00  0.00     0.000 OA
ATOM     33   O  A00 X   2       7.469  22.136  33.4600  0.00  0.00     0.000 OA
ENDBRANCH 21 30
BRANCH 24 34
ATOM     34   C  A00 X   2       8.281  20.188  39.3160  0.00  0.00     0.000 C
ATOM     35   O  A00 X   2       7.516  23.041  41.4460  0.00  0.00     0.000 OA
ATOM     36   O  A00 X   2       8.058  21.542  39.7580  0.00  0.00     0.000 O
ATOM     37   O  A00 X   2       5.895  21.514  40.6480  0.00  0.00     0.000 OA
ATOM     38   S  A00 X   2       7.243  21.685  41.0960  0.00  0.00     0.000 S
ATOM     39   O  A00 X   2       7.772  20.708  41.9980  0.00  0.00     0.000 OA
ENDBRANCH 24 34
BRANCH 20 40
ATOM     40  O4  A00 X   3       5.277  18.927  36.9620  0.00  0.00     0.000 O
BRANCH 40 44
ATOM     41  C1  A00 X   3       4.984  16.282  39.4200  0.00  0.00     0.000 C
ATOM     42  C2  A00 X   3       4.676  16.124  37.9160  0.00  0.00     0.000 C
ATOM     43  C3  A00 X   3       3.714  17.236  37.4260  0.00  0.00     0.000 C
ATOM     44  C4  A00 X   3       4.136  18.650  37.8020  0.00  0.00     0.000 C
ATOM     45  C5  A00 X   3       4.423  18.731  39.3280  0.00  0.00     0.000 C
ATOM     46  O5  A00 X   3       5.326  17.657  39.7480  0.00  0.00     0.000 O
ATOM     47   O  A00 X   3       3.290  17.139  36.0670  0.00  0.00     0.000 O
ATOM     49  HD  A00 X   3       3.382  18.000  36.0950  0.00  0.00     0.000 HD
BRANCH 42 49
ATOM     49   O  A00 X   3       5.939  16.173  37.2180  0.00  0.00     0.000 O
ATOM     50   O  A00 X   3       6.662  16.100  34.9370  0.00  0.00     0.000 OA
ATOM     51   O  A00 X   3       4.938  14.640  35.6340  0.00  0.00     0.000 OA
ATOM     52   O  A00 X   3       7.121  14.287  36.4690  0.00  0.00     0.000 OA
ATOM     53   S  A00 X   3       6.195  15.253  35.9880  0.00  0.00     0.000 S
ENDBRANCH 42 49
BRANCH 45 54
ATOM     54   C  A00 X   3       3.128  18.785  40.1470  0.00  0.00     0.000 C
ATOM     55   O  A00 X   3       3.158  19.008  41.3400  0.00  0.00     0.000 OA
ATOM     56   O  A00 X   3       2.044  18.604  39.6150  0.00  0.00     0.000 OA
ENDBRANCH 45 54
BRANCH 41 57
ATOM     57  O4  A00 X   4       3.932  15.727  40.2420  0.00  0.00     0.000 O
BRANCH 57 61
ATOM     58  C1  A00 X   4       3.933  13.773  44.0920  0.00  0.00     0.000 C
ATOM     59  C2  A00 X   4       4.433  15.237  44.0030  0.00  0.00     0.000 C
ATOM     60  C3  A00 X   4       4.055  15.937  42.6820  0.00  0.00     0.000 C
ATOM     61  C4  A00 X   4       4.383  15.059  41.4550  0.00  0.00     0.000 C
ATOM     62  C5  A00 X   4       3.614  13.729  41.6520  0.00  0.00     0.000 C
ATOM     63  O5  A00 X   4       4.106  13.065  42.8430  0.00  0.00     0.000 O
BRANCH 59 66
ATOM     64   N  A00 X   4       5.905  15.267  44.0610  0.00  0.00     0.000 N
ATOM     66  HD  A00 X   4       6.331  14.570  43.7730  0.00  0.00     0.000 HD
ATOM     66   O  A00 X   4       5.714  15.115  46.4570  0.00  0.00     0.000 OA
ATOM     67   S  A00 X   4       6.601  15.622  45.4570  0.00  0.00     0.000 S
ATOM     68   O  A00 X   4       7.840  14.914  45.3160  0.00  0.00     0.000 OA
ATOM     69   O  A00 X   4       6.719  17.046  45.3270  0.00  0.00     0.000 OA
ENDBRANCH 59 66
BRANCH 62 70
ATOM     70   C  A00 X   4       3.729  12.750  40.4590  0.00  0.00     0.000 C
ATOM     71   O  A00 X   4       6.624  10.888  39.3350  0.00  0.00     0.000 OA
ATOM     72   O  A00 X   4       5.104  12.232  38.1390  0.00  0.00     0.000 OA
ATOM     73   O  A00 X   4       4.986  12.056  40.5350  0.00  0.00     0.000 O
ATOM     74   O  A00 X   4       6.802  13.284  39.5360  0.00  0.00     0.000 OA
ATOM     75   S  A00 X   4       5.955  12.158  39.3060  0.00  0.00     0.000 S
ENDBRANCH 62 70
ENDBRANCH 57 61
ENDBRANCH 41 57
ENDBRANCH 40 44
ENDBRANCH 20 40
ENDBRANCH 19 23
ENDBRANCH 1 19
TORSDOF 14
ENDMDL
MODEL 48
REMARK VINA RESULT:      -0.2     63.445     67.130
ROOT
ATOM      1  C1  A00 X   1      34.397  26.967  63.1760  0.00  0.00     0.000 C
ATOM      2  C2  A00 X   1      33.845  27.036  61.7270  0.00  0.00     0.000 C
ATOM      3  C3  A00 X   1      33.844  25.691  60.9280  0.00  0.00     0.000 C
ATOM      4  C4  A00 X   1      34.714  24.557  61.5270  0.00  0.00     0.000 C
ATOM      5  C5  A00 X   1      35.813  25.095  62.4430  0.00  0.00     0.000 C
ATOM      6  O5  A00 X   1      35.105  25.750  63.5200  0.00  0.00     0.000 O
ATOM      7   O  A00 X   1      34.346  25.938  59.6170  0.00  0.00     0.000 O
ATOM      9  HD  A00 X   1      34.689  25.189  59.8850  0.00  0.00     0.000 HD
ATOM      9   O  A00 X   1      33.919  23.606  62.2340  0.00  0.00     0.000 O
ATOM     11  HD  A00 X   1      34.262  22.857  62.5020  0.00  0.00     0.000 HD
ENDROOT
BRANCH 2 11
ATOM     11   O  A00 X   1      32.498  27.543  61.7950  0.00  0.00     0.000 O
ATOM     12   O  A00 X   1      31.068  27.611  59.8670  0.00  0.00     0.000 OA
ATOM     13   O  A00 X   1      33.091  28.961  59.8970  0.00  0.00     0.000 OA
ATOM     14   O  A00 X   1      31.275  29.480  61.3430  0.00  0.00     0.000 OA
ATOM     15   S  A00 X   1      31.967  28.443  60.6260  0.00  0.00     0.000 S
ENDBRANCH 2 11
BRANCH 5 16
ATOM     16   C  A00 X   1      36.849  25.991  61.7560  0.00  0.00     0.000 C
ATOM     17   O  A00 X   1      37.629  26.612  62.4480  0.00  0.00     0.000 OA
ATOM     18   O  A00 X   1      36.921  26.095  60.5480  0.00  0.00     0.000 OA
ENDBRANCH 5 16
BRANCH 1 19
ATOM     19  O4  A00 X   2      35.160  28.143  63.5420  0.00  0.00     0.000 O
BRANCH 19 23
ATOM     20  C1  A00 X   2      33.615  28.280  67.5370  0.00  0.00     0.000 C
ATOM     21  C2  A00 X   2      32.954  29.201  66.4830  0.00  0.00     0.000 C
ATOM     22  C3  A00 X   2      33.303  28.739  65.0530  0.00  0.00     0.000 C
ATOM     23  C4  A00 X   2      34.834  28.627  64.8770  0.00  0.00     0.000 C
ATOM     24  C5  A00 X   2      35.375  27.698  65.9980  0.00  0.00     0.000 C
ATOM     25  O5  A00 X   2      35.045  28.279  67.2860  0.00  0.00     0.000 O
ATOM     26   O  A00 X   2      32.613  29.582  64.1150  0.00  0.00     0.000 O
ATOM     28  HD  A00 X   2      32.885  30.312  64.4930  0.00  0.00     0.000 HD
BRANCH 21 30
ATOM     28   N  A00 X   2      32.749  30.198  67.5390  0.00  0.00     0.000 N
ATOM     30  HD  A00 X   2      32.241  30.427  66.8760  0.00  0.00     0.000 HD
ATOM     30   O  A00 X   2      30.795  31.383  67.0520  0.00  0.00     0.000 OA
ATOM     31   S  A00 X   2      32.192  31.622  67.1390  0.00  0.00     0.000 S
ATOM     32   O  A00 X   2      32.594  32.461  68.2260  0.00  0.00     0.000 OA
ATOM     33   O  A00 X   2      32.860  32.016  65.9340  0.00  0.00     0.000 OA
ENDBRANCH 21 30
BRANCH 24 34
ATOM     34   C  A00 X   2      36.848  27.236  65.9100  0.00  0.00     0.000 C
ATOM     35   O  A00 X   2      39.396  28.063  68.3770  0.00  0.00     0.000 OA
ATOM     36   O  A00 X   2      37.687  27.991  66.8080  0.00  0.00     0.000 O
ATOM     37   O  A00 X   2      37.353  26.990  68.8950  0.00  0.00     0.000 OA
ATOM     38   S  A00 X   2      38.397  27.148  67.9300  0.00  0.00     0.000 S
ATOM     39   O  A00 X   2      38.897  25.967  67.2930  0.00  0.00     0.000 OA
ENDBRANCH 24 34
BRANCH 20 40
ATOM     40  O4  A00 X   3      33.084  26.969  67.2930  0.00  0.00     0.000 O
BRANCH 40 44
ATOM     41  C1  A00 X   3      33.712  23.416  66.9740  0.00  0.00     0.000 C
ATOM     42  C2  A00 X   3      32.334  24.086  66.7860  0.00  0.00     0.000 C
ATOM     43  C3  A00 X   3      31.995  25.006  67.9870  0.00  0.00     0.000 C
ATOM     44  C4  A00 X   3      33.095  25.994  68.3580  0.00  0.00     0.000 C
ATOM     45  C5  A00 X   3      34.446  25.245  68.5340  0.00  0.00     0.000 C
ATOM     46  O5  A00 X   3      34.719  24.381  67.3830  0.00  0.00     0.000 O
ATOM     47   O  A00 X   3      30.705  25.613  67.9630  0.00  0.00     0.000 O
ATOM     49  HD  A00 X   3      31.142  26.290  68.2790  0.00  0.00     0.000 HD
BRANCH 42 49
ATOM     49   O  A00 X   3      32.391  24.832  65.5500  0.00  0.00     0.000 O
ATOM     50   O  A00 X   3      30.920  26.268  64.3230  0.00  0.00     0.000 OA
ATOM     51   O  A00 X   3      30.038  24.312  65.3180  0.00  0.00     0.000 OA
ATOM     52   O  A00 X   3      31.530  24.078  63.4990  0.00  0.00     0.000 OA
ATOM     53   S  A00 X   3      31.154  24.887  64.6070  0.00  0.00     0.000 S
ENDBRANCH 42 49
BRANCH 45 54
ATOM     54   C  A00 X   3      34.512  24.502  69.8740  0.00  0.00     0.000 C
ATOM     55   O  A00 X   3      35.545  23.980  70.2410  0.00  0.00     0.000 OA
ATOM     56   O  A00 X   3      33.529  24.422  70.5940  0.00  0.00     0.000 OA
ENDBRANCH 45 54
BRANCH 41 57
ATOM     57  O4  A00 X   4      33.628  22.255  67.8310  0.00  0.00     0.000 O
BRANCH 57 61
ATOM     58  C1  A00 X   4      35.752  18.497  67.9060  0.00  0.00     0.000 C
ATOM     59  C2  A00 X   4      36.554  19.806  68.1150  0.00  0.00     0.000 C
ATOM     60  C3  A00 X   4      35.666  21.028  68.4260  0.00  0.00     0.000 C
ATOM     61  C4  A00 X   4      34.479  21.138  67.4440  0.00  0.00     0.000 C
ATOM     62  C5  A00 X   4      33.697  19.806  67.5540  0.00  0.00     0.000 C
ATOM     63  O5  A00 X   4      34.552  18.714  67.1280  0.00  0.00     0.000 O
BRANCH 59 66
ATOM     64   N  A00 X   4      37.358  20.262  66.9670  0.00  0.00     0.000 N
ATOM     66  HD  A00 X   4      37.060  20.084  66.1740  0.00  0.00     0.000 HD
ATOM     66   O  A00 X   4      38.983  18.590  67.5700  0.00  0.00     0.000 OA
ATOM     67   S  A00 X   4      38.906  19.861  66.9200  0.00  0.00     0.000 S
ATOM     68   O  A00 X   4      39.126  19.845  65.5030  0.00  0.00     0.000 OA
ATOM     69   O  A00 X   4      39.481  20.993  67.5910  0.00  0.00     0.000 OA
ENDBRANCH 59 66
BRANCH 62 70
ATOM     70   C  A00 X   4      32.396  19.766  66.7180  0.00  0.00     0.000 C
ATOM     71   O  A00 X   4      32.024  19.663  63.1180  0.00  0.00     0.000 OA
ATOM     72   O  A00 X   4      30.998  21.042  64.7280  0.00  0.00     0.000 OA
ATOM     73   O  A00 X   4      32.721  19.482  65.3470  0.00  0.00     0.000 O
ATOM     74   O  A00 X   4      33.314  21.452  64.0930  0.00  0.00     0.000 OA
ATOM     75   S  A00 X   4      32.256  20.508  64.2560  0.00  0.00     0.000 S
ENDBRANCH 62 70
ENDBRANCH 57 61
ENDBRANCH 41 57
ENDBRANCH 40 44
ENDBRANCH 20 40
ENDBRANCH 19 23
ENDBRANCH 1 19
TORSDOF 14
ENDMDL
MODEL 49
REMARK VINA RESULT:      -0.2     26.221     30.685
ROOT
ATOM      1  C1  A00 X   1      15.598  22.938  26.7030  0.00  0.00     0.000 C
ATOM      2  C2  A00 X   1      16.173  24.040  25.7730  0.00  0.00     0.000 C
ATOM      3  C3  A00 X   1      16.480  25.417  26.4490  0.00  0.00     0.000 C
ATOM      4  C4  A00 X   1      15.842  25.634  27.8450  0.00  0.00     0.000 C
ATOM      5  C5  A00 X   1      14.626  24.736  28.0700  0.00  0.00     0.000 C
ATOM      6  O5  A00 X   1      15.146  23.389  28.0030  0.00  0.00     0.000 O
ATOM      7   O  A00 X   1      15.982  26.458  25.6110  0.00  0.00     0.000 O
ATOM      9  HD  A00 X   1      15.792  26.675  26.4280  0.00  0.00     0.000 HD
ATOM      9   O  A00 X   1      16.793  25.428  28.8900  0.00  0.00     0.000 O
ATOM     11  HD  A00 X   1      16.603  25.645  29.7070  0.00  0.00     0.000 HD
ENDROOT
BRANCH 2 11
ATOM     11   O  A00 X   1      17.383  23.528  25.1820  0.00  0.00     0.000 O
ATOM     12   O  A00 X   1      18.839  24.912  23.8660  0.00  0.00     0.000 OA
ATOM     13   O  A00 X   1      16.582  24.470  23.0760  0.00  0.00     0.000 OA
ATOM     14   O  A00 X   1      18.197  22.726  23.1460  0.00  0.00     0.000 OA
ATOM     15   S  A00 X   1      17.760  23.967  23.7250  0.00  0.00     0.000 S
ENDBRANCH 2 11
BRANCH 5 16
ATOM     16   C  A00 X   1      13.451  24.987  27.1190  0.00  0.00     0.000 C
ATOM     17   O  A00 X   1      12.542  24.183  27.0930  0.00  0.00     0.000 OA
ATOM     18   O  A00 X   1      13.394  25.962  26.3970  0.00  0.00     0.000 OA
ENDBRANCH 5 16
BRANCH 1 19
ATOM     19  O4  A00 X   2      14.597  22.120  26.0500  0.00  0.00     0.000 O
BRANCH 19 23
ATOM     20  C1  A00 X   2      15.940  18.478  27.8680  0.00  0.00     0.000 C
ATOM     21  C2  A00 X   2      16.441  18.790  26.4370  0.00  0.00     0.000 C
ATOM     22  C3  A00 X   2      16.243  20.282  26.0980  0.00  0.00     0.000 C
ATOM     23  C4  A00 X   2      14.772  20.700  26.3220  0.00  0.00     0.000 C
ATOM     24  C5  A00 X   2      14.387  20.319  27.7780  0.00  0.00     0.000 C
ATOM     25  O5  A00 X   2      14.548  18.887  27.9450  0.00  0.00     0.000 O
ATOM     26   O  A00 X   2      16.785  20.534  24.7900  0.00  0.00     0.000 O
ATOM     28  HD  A00 X   2      16.359  19.871  24.4310  0.00  0.00     0.000 HD
BRANCH 21 30
ATOM     28   N  A00 X   2      16.405  17.352  26.1510  0.00  0.00     0.000 N
ATOM     30  HD  A00 X   2      16.881  17.720  25.5280  0.00  0.00     0.000 HD
ATOM     30   O  A00 X   2      18.100  16.872  24.6180  0.00  0.00     0.000 OA
ATOM     31   S  A00 X   2      16.682  16.865  24.6730  0.00  0.00     0.000 S
ATOM     32   O  A00 X   2      16.081  15.568  24.6270  0.00  0.00     0.000 OA
ATOM     33   O  A00 X   2      15.993  17.764  23.7950  0.00  0.00     0.000 OA
ENDBRANCH 21 30
BRANCH 24 34
ATOM     34   C  A00 X   2      13.039  20.837  28.3320  0.00  0.00     0.000 C
ATOM     35   O  A00 X   2      10.266  18.684  29.2960  0.00  0.00     0.000 OA
ATOM     36   O  A00 X   2      12.028  19.811  28.2890  0.00  0.00     0.000 O
ATOM     37   O  A00 X   2      12.453  18.495  30.1750  0.00  0.00     0.000 OA
ATOM     38   S  A00 X   2      11.445  19.385  29.6860  0.00  0.00     0.000 S
ATOM     39   O  A00 X   2      11.217  20.595  30.4160  0.00  0.00     0.000 OA
ENDBRANCH 24 34
BRANCH 20 40
ATOM     40  O4  A00 X   3      16.729  19.298  28.7420  0.00  0.00     0.000 O
BRANCH 40 44
ATOM     41  C1  A00 X   3      16.840  21.512  31.6070  0.00  0.00     0.000 C
ATOM     42  C2  A00 X   3      18.061  21.130  30.7430  0.00  0.00     0.000 C
ATOM     43  C3  A00 X   3      18.165  19.591  30.5780  0.00  0.00     0.000 C
ATOM     44  C4  A00 X   3      16.877  18.914  30.1260  0.00  0.00     0.000 C
ATOM     45  C5  A00 X   3      15.699  19.344  31.0450  0.00  0.00     0.000 C
ATOM     46  O5  A00 X   3      15.645  20.801  31.1800  0.00  0.00     0.000 O
ATOM     47   O  A00 X   3      19.307  19.117  29.8690  0.00  0.00     0.000 O
ATOM     49  HD  A00 X   3      18.732  18.556  29.5440  0.00  0.00     0.000 HD
BRANCH 42 49
ATOM     49   O  A00 X   3      17.899  21.787  29.4670  0.00  0.00     0.000 O
ATOM     50   O  A00 X   3      19.088  21.858  27.3900  0.00  0.00     0.000 OA
ATOM     51   O  A00 X   3      20.314  21.918  29.4110  0.00  0.00     0.000 OA
ATOM     52   O  A00 X   3      18.973  23.782  28.8510  0.00  0.00     0.000 OA
ATOM     53   S  A00 X   3      19.133  22.374  28.7220  0.00  0.00     0.000 S
ENDBRANCH 42 49
BRANCH 45 54
ATOM     54   C  A00 X   3      15.736  18.614  32.3940  0.00  0.00     0.000 C
ATOM     55   O  A00 X   3      16.697  17.941  32.7070  0.00  0.00     0.000 OA
ATOM     56   O  A00 X   3      14.801  18.696  33.1740  0.00  0.00     0.000 OA
ENDBRANCH 45 54
BRANCH 41 57
ATOM     57  O4  A00 X   4      17.125  21.387  33.0180  0.00  0.00     0.000 O
BRANCH 57 61
ATOM     58  C1  A00 X   4      15.793  23.577  36.4930  0.00  0.00     0.000 C
ATOM     59  C2  A00 X   4      14.740  22.821  35.6440  0.00  0.00     0.000 C
ATOM     60  C3  A00 X   4      15.357  21.801  34.6660  0.00  0.00     0.000 C
ATOM     61  C4  A00 X   4      16.526  22.410  33.8630  0.00  0.00     0.000 C
ATOM     62  C5  A00 X   4      17.555  22.913  34.9060  0.00  0.00     0.000 C
ATOM     63  O5  A00 X   4      16.948  23.957  35.7100  0.00  0.00     0.000 O
BRANCH 59 66
ATOM     64   N  A00 X   4      13.962  23.737  34.7900  0.00  0.00     0.000 N
ATOM     66  HD  A00 X   4      14.350  24.464  34.5270  0.00  0.00     0.000 HD
ATOM     66   O  A00 X   4      12.620  24.239  36.7260  0.00  0.00     0.000 OA
ATOM     67   S  A00 X   4      12.520  24.205  35.3000  0.00  0.00     0.000 S
ATOM     68   O  A00 X   4      12.422  25.483  34.6580  0.00  0.00     0.000 OA
ATOM     69   O  A00 X   4      11.700  23.186  34.7100  0.00  0.00     0.000 OA
ENDBRANCH 59 66
BRANCH 62 70
ATOM     70   C  A00 X   4      18.862  23.465  34.2900  0.00  0.00     0.000 C
ATOM     71   O  A00 X   4      19.354  26.493  32.3680  0.00  0.00     0.000 OA
ATOM     72   O  A00 X   4      20.038  24.280  31.9450  0.00  0.00     0.000 OA
ATOM     73   O  A00 X   4      18.641  24.808  33.8310  0.00  0.00     0.000 O
ATOM     74   O  A00 X   4      17.706  24.904  31.6120  0.00  0.00     0.000 OA
ATOM     75   S  A00 X   4      18.925  25.124  32.3210  0.00  0.00     0.000 S
ENDBRANCH 62 70
ENDBRANCH 57 61
ENDBRANCH 41 57
ENDBRANCH 40 44
ENDBRANCH 20 40
ENDBRANCH 19 23
ENDBRANCH 1 19
TORSDOF 14
ENDMDL
MODEL 50
REMARK VINA RESULT:      -0.2     27.465     32.352
ROOT
ATOM      1  C1  A00 X   1      12.506  27.058  28.2650  0.00  0.00     0.000 C
ATOM      2  C2  A00 X   1      13.224  27.232  29.6300  0.00  0.00     0.000 C
ATOM      3  C3  A00 X   1      14.265  28.396  29.7160  0.00  0.00     0.000 C
ATOM      4  C4  A00 X   1      14.719  28.988  28.3560  0.00  0.00     0.000 C
ATOM      5  C5  A00 X   1      14.508  28.010  27.2010  0.00  0.00     0.000 C
ATOM      6  O5  A00 X   1      13.080  27.796  27.1570  0.00  0.00     0.000 O
ATOM      7   O  A00 X   1      15.441  27.912  30.3590  0.00  0.00     0.000 O
ATOM      9  HD  A00 X   1      15.698  28.411  29.7000  0.00  0.00     0.000 HD
ATOM      9   O  A00 X   1      14.052  30.218  28.0740  0.00  0.00     0.000 O
ATOM     11  HD  A00 X   1      14.309  30.717  27.4150  0.00  0.00     0.000 HD
ENDROOT
BRANCH 2 11
ATOM     11   O  A00 X   1      12.212  27.432  30.6350  0.00  0.00     0.000 O
ATOM     12   O  A00 X   1      12.767  28.013  32.8980  0.00  0.00     0.000 OA
ATOM     13   O  A00 X   1      13.476  25.861  32.0140  0.00  0.00     0.000 OA
ATOM     14   O  A00 X   1      11.171  26.306  32.3960  0.00  0.00     0.000 OA
ATOM     15   S  A00 X   1      12.455  26.870  32.0780  0.00  0.00     0.000 S
ENDBRANCH 2 11
BRANCH 5 16
ATOM     16   C  A00 X   1      15.320  26.714  27.2940  0.00  0.00     0.000 C
ATOM     17   O  A00 X   1      15.069  25.814  26.5190  0.00  0.00     0.000 OA
ATOM     18   O  A00 X   1      16.208  26.558  28.1090  0.00  0.00     0.000 OA
ENDBRANCH 5 16
BRANCH 1 19
ATOM     19  O4  A00 X   2      12.288  25.669  27.9180  0.00  0.00     0.000 O
BRANCH 19 23
ATOM     20  C1  A00 X   2       8.396  26.373  26.2670  0.00  0.00     0.000 C
ATOM     21  C2  A00 X   2       8.471  25.851  27.7220  0.00  0.00     0.000 C
ATOM     22  C3  A00 X   2       9.883  26.059  28.3090  0.00  0.00     0.000 C
ATOM     23  C4  A00 X   2      10.953  25.428  27.3890  0.00  0.00     0.000 C
ATOM     24  C5  A00 X   2      10.760  26.016  25.9640  0.00  0.00     0.000 C
ATOM     25  O5  A00 X   2       9.424  25.690  25.5010  0.00  0.00     0.000 O
ATOM     26   O  A00 X   2       9.883  25.622  29.6790  0.00  0.00     0.000 O
ATOM     28  HD  A00 X   2       9.520  24.860  29.4880  0.00  0.00     0.000 HD
BRANCH 21 30
ATOM     28   N  A00 X   2       7.241  25.093  27.4740  0.00  0.00     0.000 N
ATOM     30  HD  A00 X   2       7.351  25.118  28.3330  0.00  0.00     0.000 HD
ATOM     30   O  A00 X   2       6.048  24.966  29.4790  0.00  0.00     0.000 OA
ATOM     31   S  A00 X   2       6.727  24.095  28.5870  0.00  0.00     0.000 S
ATOM     32   O  A00 X   2       5.884  23.191  27.8680  0.00  0.00     0.000 OA
ATOM     33   O  A00 X   2       7.874  23.406  29.0990  0.00  0.00     0.000 OA
ENDBRANCH 21 30
BRANCH 24 34
ATOM     34   C  A00 X   2      11.848  25.722  24.9040  0.00  0.00     0.000 C
ATOM     35   O  A00 X   2      12.829  22.374  23.8620  0.00  0.00     0.000 OA
ATOM     36   O  A00 X   2      12.267  24.343  24.9540  0.00  0.00     0.000 O
ATOM     37   O  A00 X   2      10.610  23.188  23.7750  0.00  0.00     0.000 OA
ATOM     38   S  A00 X   2      11.998  23.512  23.6470  0.00  0.00     0.000 S
ATOM     39   O  A00 X   2      12.386  24.347  22.5500  0.00  0.00     0.000 OA
ENDBRANCH 24 34
BRANCH 20 40
ATOM     40  O4  A00 X   3       8.704  27.773  26.3410  0.00  0.00     0.000 O
BRANCH 40 44
ATOM     41  C1  A00 X   3      10.532  30.573  24.9480  0.00  0.00     0.000 C
ATOM     42  C2  A00 X   3       9.630  30.646  26.1990  0.00  0.00     0.000 C
ATOM     43  C3  A00 X   3       8.234  30.034  25.9130  0.00  0.00     0.000 C
ATOM     44  C4  A00 X   3       8.267  28.649  25.2800  0.00  0.00     0.000 C
ATOM     45  C5  A00 X   3       9.189  28.658  24.0280  0.00  0.00     0.000 C
ATOM     46  O5  A00 X   3      10.490  29.252  24.3420  0.00  0.00     0.000 O
ATOM     47   O  A00 X   3       7.285  30.125  26.9740  0.00  0.00     0.000 O
ATOM     49  HD  A00 X   3       7.076  29.329  26.7040  0.00  0.00     0.000 HD
BRANCH 42 49
ATOM     49   O  A00 X   3      10.311  29.934  27.2550  0.00  0.00     0.000 O
ATOM     50   O  A00 X   3       9.855  29.362  29.5340  0.00  0.00     0.000 OA
ATOM     51   O  A00 X   3       9.290  31.525  28.7660  0.00  0.00     0.000 OA
ATOM     52   O  A00 X   3      11.577  30.956  28.9490  0.00  0.00     0.000 OA
ATOM     53   S  A00 X   3      10.263  30.462  28.7180  0.00  0.00     0.000 S
ENDBRANCH 42 49
BRANCH 45 54
ATOM     54   C  A00 X   3       8.503  29.310  22.8220  0.00  0.00     0.000 C
ATOM     55   O  A00 X   3       7.463  29.922  22.9580  0.00  0.00     0.000 OA
ATOM     56   O  A00 X   3       8.988  29.225  21.7050  0.00  0.00     0.000 OA
ENDBRANCH 45 54
BRANCH 41 57
ATOM     57  O4  A00 X   4      10.255  31.652  24.0270  0.00  0.00     0.000 O
BRANCH 57 61
ATOM     58  C1  A00 X   4      12.735  33.885  21.2890  0.00  0.00     0.000 C
ATOM     59  C2  A00 X   4      12.595  32.356  21.0830  0.00  0.00     0.000 C
ATOM     60  C3  A00 X   4      11.426  31.735  21.8750  0.00  0.00     0.000 C
ATOM     61  C4  A00 X   4      11.421  32.198  23.3470  0.00  0.00     0.000 C
ATOM     62  C5  A00 X   4      11.347  33.745  23.3170  0.00  0.00     0.000 C
ATOM     63  O5  A00 X   4      12.536  34.267  22.6690  0.00  0.00     0.000 O
BRANCH 59 66
ATOM     64   N  A00 X   4      13.808  31.672  21.5640  0.00  0.00     0.000 N
ATOM     66  HD  A00 X   4      14.260  32.055  22.1950  0.00  0.00     0.000 HD
ATOM     66   O  A00 X   4      14.829  32.211  19.4500  0.00  0.00     0.000 OA
ATOM     67   S  A00 X   4      14.905  31.230  20.4870  0.00  0.00     0.000 S
ATOM     68   O  A00 X   4      16.091  31.274  21.2930  0.00  0.00     0.000 OA
ATOM     69   O  A00 X   4      14.447  29.903  20.1880  0.00  0.00     0.000 OA
ENDBRANCH 59 66
BRANCH 62 70
ATOM     70   C  A00 X   4      11.221  34.400  24.7130  0.00  0.00     0.000 C
ATOM     71   O  A00 X   4      13.685  34.576  27.3590  0.00  0.00     0.000 OA
ATOM     72   O  A00 X   4      11.422  33.927  27.4110  0.00  0.00     0.000 OA
ATOM     73   O  A00 X   4      12.516  34.449  25.3330  0.00  0.00     0.000 O
ATOM     74   O  A00 X   4      13.088  32.410  26.4830  0.00  0.00     0.000 OA
ATOM     75   S  A00 X   4      12.687  33.758  26.7300  0.00  0.00     0.000 S
ENDBRANCH 62 70
ENDBRANCH 57 61
ENDBRANCH 41 57
ENDBRANCH 40 44
ENDBRANCH 20 40
ENDBRANCH 19 23
ENDBRANCH 1 19
TORSDOF 14
ENDMDL
MODEL 51
REMARK VINA RESULT:      -0.2     63.717     67.336
ROOT
ATOM      1  C1  A00 X   1      20.160  35.009  62.1840  0.00  0.00     0.000 C
ATOM      2  C2  A00 X   1      19.858  33.487  62.1720  0.00  0.00     0.000 C
ATOM      3  C3  A00 X   1      21.018  32.552  62.6480  0.00  0.00     0.000 C
ATOM      4  C4  A00 X   1      22.421  33.210  62.7180  0.00  0.00     0.000 C
ATOM      5  C5  A00 X   1      22.525  34.442  61.8200  0.00  0.00     0.000 C
ATOM      6  O5  A00 X   1      21.553  35.369  62.3540  0.00  0.00     0.000 O
ATOM      7   O  A00 X   1      21.129  31.460  61.7380  0.00  0.00     0.000 O
ATOM      9  HD  A00 X   1      21.934  31.712  61.9340  0.00  0.00     0.000 HD
ATOM      9   O  A00 X   1      22.767  33.559  64.0580  0.00  0.00     0.000 O
ATOM     11  HD  A00 X   1      23.573  33.810  64.2530  0.00  0.00     0.000 HD
ENDROOT
BRANCH 2 11
ATOM     11   O  A00 X   1      18.704  33.263  63.0050  0.00  0.00     0.000 O
ATOM     12   O  A00 X   1      17.944  31.052  63.5550  0.00  0.00     0.000 OA
ATOM     13   O  A00 X   1      17.895  31.784  61.2370  0.00  0.00     0.000 OA
ATOM     14   O  A00 X   1      16.430  32.757  62.8390  0.00  0.00     0.000 OA
ATOM     15   S  A00 X   1      17.701  32.121  62.6200  0.00  0.00     0.000 S
ENDBRANCH 2 11
BRANCH 5 16
ATOM     16   C  A00 X   1      22.354  34.169  60.3220  0.00  0.00     0.000 C
ATOM     17   O  A00 X   1      22.209  35.113  59.5720  0.00  0.00     0.000 OA
ATOM     18   O  A00 X   1      22.364  33.046  59.8590  0.00  0.00     0.000 OA
ENDBRANCH 5 16
BRANCH 1 19
ATOM     19  O4  A00 X   2      19.567  35.707  61.0610  0.00  0.00     0.000 O
BRANCH 19 23
ATOM     20  C1  A00 X   2      18.487  39.149  63.3750  0.00  0.00     0.000 C
ATOM     21  C2  A00 X   2      17.393  38.083  63.1260  0.00  0.00     0.000 C
ATOM     22  C3  A00 X   2      18.019  36.747  62.6770  0.00  0.00     0.000 C
ATOM     23  C4  A00 X   2      18.938  36.961  61.4530  0.00  0.00     0.000 C
ATOM     24  C5  A00 X   2      19.973  38.059  61.8220  0.00  0.00     0.000 C
ATOM     25  O5  A00 X   2      19.261  39.280  62.1520  0.00  0.00     0.000 O
ATOM     26   O  A00 X   2      16.972  35.773  62.5260  0.00  0.00     0.000 O
ATOM     28  HD  A00 X   2      16.487  36.297  62.0350  0.00  0.00     0.000 HD
BRANCH 21 30
ATOM     28   N  A00 X   2      16.406  39.166  63.0780  0.00  0.00     0.000 N
ATOM     30  HD  A00 X   2      15.963  38.428  63.1750  0.00  0.00     0.000 HD
ATOM     30   O  A00 X   2      14.378  38.339  63.8900  0.00  0.00     0.000 OA
ATOM     31   S  A00 X   2      14.919  38.820  62.6690  0.00  0.00     0.000 S
ATOM     32   O  A00 X   2      14.389  40.072  62.2250  0.00  0.00     0.000 OA
ATOM     33   O  A00 X   2      14.985  37.893  61.5780  0.00  0.00     0.000 OA
ENDBRANCH 21 30
BRANCH 24 34
ATOM     34   C  A00 X   2      21.152  38.300  60.8510  0.00  0.00     0.000 C
ATOM     35   O  A00 X   2      21.770  41.450  59.1330  0.00  0.00     0.000 OA
ATOM     36   O  A00 X   2      20.946  39.490  60.0640  0.00  0.00     0.000 O
ATOM     37   O  A00 X   2      21.575  41.241  61.4810  0.00  0.00     0.000 OA
ATOM     38   S  A00 X   2      22.017  40.623  60.2680  0.00  0.00     0.000 S
ATOM     39   O  A00 X   2      23.295  39.976  60.2820  0.00  0.00     0.000 OA
ENDBRANCH 24 34
BRANCH 20 40
ATOM     40  O4  A00 X   3      19.320  38.615  64.4150  0.00  0.00     0.000 O
BRANCH 40 44
ATOM     41  C1  A00 X   3      22.658  38.043  65.7000  0.00  0.00     0.000 C
ATOM     42  C2  A00 X   3      21.358  37.579  66.3910  0.00  0.00     0.000 C
ATOM     43  C3  A00 X   3      20.350  38.750  66.5210  0.00  0.00     0.000 C
ATOM     44  C4  A00 X   3      20.099  39.517  65.2290  0.00  0.00     0.000 C
ATOM     45  C5  A00 X   3      21.451  39.953  64.5970  0.00  0.00     0.000 C
ATOM     46  O5  A00 X   3      22.374  38.819  64.5030  0.00  0.00     0.000 O
ATOM     47   O  A00 X   3      19.144  38.459  67.2240  0.00  0.00     0.000 O
ATOM     49  HD  A00 X   3      18.797  38.960  66.6080  0.00  0.00     0.000 HD
BRANCH 42 49
ATOM     49   O  A00 X   3      20.816  36.503  65.5940  0.00  0.00     0.000 O
ATOM     50   O  A00 X   3      18.868  35.113  65.6560  0.00  0.00     0.000 OA
ATOM     51   O  A00 X   3      19.992  35.592  67.6800  0.00  0.00     0.000 OA
ATOM     52   O  A00 X   3      21.074  34.222  66.0870  0.00  0.00     0.000 OA
ATOM     53   S  A00 X   3      20.143  35.279  66.2810  0.00  0.00     0.000 S
ENDBRANCH 42 49
BRANCH 45 54
ATOM     54   C  A00 X   3      22.053  41.162  65.3240  0.00  0.00     0.000 C
ATOM     55   O  A00 X   3      21.560  41.574  66.3540  0.00  0.00     0.000 OA
ATOM     56   O  A00 X   3      23.037  41.732  64.8790  0.00  0.00     0.000 OA
ENDBRANCH 45 54
BRANCH 41 57
ATOM     57  O4  A00 X   4      23.551  38.699  66.6270  0.00  0.00     0.000 O
BRANCH 57 61
ATOM     58  C1  A00 X   4      27.853  38.889  66.9340  0.00  0.00     0.000 C
ATOM     59  C2  A00 X   4      27.174  39.472  65.6700  0.00  0.00     0.000 C
ATOM     60  C3  A00 X   4      25.653  39.675  65.8280  0.00  0.00     0.000 C
ATOM     61  C4  A00 X   4      24.966  38.427  66.4210  0.00  0.00     0.000 C
ATOM     62  C5  A00 X   4      25.662  38.150  67.7780  0.00  0.00     0.000 C
ATOM     63  O5  A00 X   4      27.060  37.844  67.5430  0.00  0.00     0.000 O
BRANCH 59 66
ATOM     64   N  A00 X   4      27.344  38.521  64.5560  0.00  0.00     0.000 N
ATOM     66  HD  A00 X   4      27.435  37.683  64.7560  0.00  0.00     0.000 HD
ATOM     66   O  A00 X   4      29.530  39.471  64.2110  0.00  0.00     0.000 OA
ATOM     67   S  A00 X   4      28.492  38.812  63.4820  0.00  0.00     0.000 S
ATOM     68   O  A00 X   4      28.791  37.476  63.0560  0.00  0.00     0.000 OA
ATOM     69   O  A00 X   4      27.753  39.583  62.5230  0.00  0.00     0.000 OA
ENDBRANCH 59 66
BRANCH 62 70
ATOM     70   C  A00 X   4      25.033  36.989  68.5850  0.00  0.00     0.000 C
ATOM     71   O  A00 X   4      25.084  33.442  67.8590  0.00  0.00     0.000 OA
ATOM     72   O  A00 X   4      23.298  34.865  68.4320  0.00  0.00     0.000 OA
ATOM     73   O  A00 X   4      25.510  35.737  68.0650  0.00  0.00     0.000 O
ATOM     74   O  A00 X   4      24.230  34.950  66.1820  0.00  0.00     0.000 OA
ATOM     75   S  A00 X   4      24.447  34.696  67.5700  0.00  0.00     0.000 S
ENDBRANCH 62 70
ENDBRANCH 57 61
ENDBRANCH 41 57
ENDBRANCH 40 44
ENDBRANCH 20 40
ENDBRANCH 19 23
ENDBRANCH 1 19
TORSDOF 14
ENDMDL
MODEL 52
REMARK VINA RESULT:      -0.2     59.194     63.398
ROOT
ATOM      1  C1  A00 X   1      50.266  28.647  47.0960  0.00  0.00     0.000 C
ATOM      2  C2  A00 X   1      50.542  27.657  45.9330  0.00  0.00     0.000 C
ATOM      3  C3  A00 X   1      51.899  27.845  45.1770  0.00  0.00     0.000 C
ATOM      4  C4  A00 X   1      52.621  29.195  45.4260  0.00  0.00     0.000 C
ATOM      5  C5  A00 X   1      51.660  30.284  45.9020  0.00  0.00     0.000 C
ATOM      6  O5  A00 X   1      51.146  29.796  47.1620  0.00  0.00     0.000 O
ATOM      7   O  A00 X   1      51.656  27.769  43.7750  0.00  0.00     0.000 O
ATOM      9  HD  A00 X   1      52.220  28.413  43.9010  0.00  0.00     0.000 HD
ATOM      9   O  A00 X   1      53.688  29.051  46.3620  0.00  0.00     0.000 O
ATOM     11  HD  A00 X   1      54.253  29.695  46.4890  0.00  0.00     0.000 HD
ENDROOT
BRANCH 2 11
ATOM     11   O  A00 X   1      50.487  26.321  46.4720  0.00  0.00     0.000 O
ATOM     12   O  A00 X   1      50.544  24.379  45.0600  0.00  0.00     0.000 OA
ATOM     13   O  A00 X   1      48.666  25.916  44.8940  0.00  0.00     0.000 OA
ATOM     14   O  A00 X   1      48.967  24.588  46.8440  0.00  0.00     0.000 OA
ATOM     15   S  A00 X   1      49.614  25.244  45.7400  0.00  0.00     0.000 S
ENDBRANCH 2 11
BRANCH 5 16
ATOM     16   C  A00 X   1      50.565  30.665  44.9000  0.00  0.00     0.000 C
ATOM     17   O  A00 X   1      49.666  31.392  45.2700  0.00  0.00     0.000 OA
ATOM     18   O  A00 X   1      50.568  30.272  43.7510  0.00  0.00     0.000 OA
ENDBRANCH 5 16
BRANCH 1 19
ATOM     19  O4  A00 X   2      48.874  29.042  47.1770  0.00  0.00     0.000 O
BRANCH 19 23
ATOM     20  C1  A00 X   2      48.866  29.237  51.4580  0.00  0.00     0.000 C
ATOM     21  C2  A00 X   2      48.308  27.952  50.8000  0.00  0.00     0.000 C
ATOM     22  C3  A00 X   2      48.766  27.844  49.3310  0.00  0.00     0.000 C
ATOM     23  C4  A00 X   2      48.397  29.125  48.5510  0.00  0.00     0.000 C
ATOM     24  C5  A00 X   2      48.994  30.337  49.3180  0.00  0.00     0.000 C
ATOM     25  O5  A00 X   2      48.431  30.367  50.6550  0.00  0.00     0.000 O
ATOM     26   O  A00 X   2      48.282  26.604  48.7870  0.00  0.00     0.000 O
ATOM     28  HD  A00 X   2      47.471  26.744  49.0570  0.00  0.00     0.000 HD
BRANCH 21 30
ATOM     28   N  A00 X   2      47.340  27.860  51.8970  0.00  0.00     0.000 N
ATOM     30  HD  A00 X   2      47.346  27.089  51.5030  0.00  0.00     0.000 HD
ATOM     30   O  A00 X   2      46.892  25.600  52.2840  0.00  0.00     0.000 OA
ATOM     31   S  A00 X   2      46.211  26.756  51.8210  0.00  0.00     0.000 S
ATOM     32   O  A00 X   2      45.195  27.250  52.6980  0.00  0.00     0.000 OA
ATOM     33   O  A00 X   2      45.733  26.731  50.4710  0.00  0.00     0.000 OA
ENDBRANCH 21 30
BRANCH 24 34
ATOM     34   C  A00 X   2      48.964  31.720  48.6260  0.00  0.00     0.000 C
ATOM     35   O  A00 X   2      47.192  34.619  49.9360  0.00  0.00     0.000 OA
ATOM     36   O  A00 X   2      47.919  32.553  49.1670  0.00  0.00     0.000 O
ATOM     37   O  A00 X   2      48.824  33.409  51.1470  0.00  0.00     0.000 OA
ATOM     38   S  A00 X   2      48.408  33.877  49.8610  0.00  0.00     0.000 S
ATOM     39   O  A00 X   2      49.409  34.437  49.0030  0.00  0.00     0.000 OA
ENDBRANCH 24 34
BRANCH 20 40
ATOM     40  O4  A00 X   3      50.294  29.121  51.3890  0.00  0.00     0.000 O
BRANCH 40 44
ATOM     41  C1  A00 X   3      53.492  30.696  50.7460  0.00  0.00     0.000 C
ATOM     42  C2  A00 X   3      53.303  29.211  51.1230  0.00  0.00     0.000 C
ATOM     43  C3  A00 X   3      52.419  29.068  52.3890  0.00  0.00     0.000 C
ATOM     44  C4  A00 X   3      51.109  29.843  52.3370  0.00  0.00     0.000 C
ATOM     45  C5  A00 X   3      51.382  31.326  51.9570  0.00  0.00     0.000 C
ATOM     46  O5  A00 X   3      52.227  31.413  50.7650  0.00  0.00     0.000 O
ATOM     47   O  A00 X   3      52.247  27.741  52.8820  0.00  0.00     0.000 O
ATOM     49  HD  A00 X   3      51.440  28.020  53.0260  0.00  0.00     0.000 HD
BRANCH 42 49
ATOM     49   O  A00 X   3      52.702  28.558  49.9830  0.00  0.00     0.000 O
ATOM     50   O  A00 X   3      51.921  26.357  49.4610  0.00  0.00     0.000 OA
ATOM     51   O  A00 X   3      53.945  26.595  50.6580  0.00  0.00     0.000 OA
ATOM     52   O  A00 X   3      53.884  27.289  48.4000  0.00  0.00     0.000 OA
ATOM     53   S  A00 X   3      53.126  27.113  49.5910  0.00  0.00     0.000 S
ENDBRANCH 42 49
BRANCH 45 54
ATOM     54   C  A00 X   3      51.931  32.124  53.1460  0.00  0.00     0.000 C
ATOM     55   O  A00 X   3      52.263  31.561  54.1690  0.00  0.00     0.000 OA
ATOM     56   O  A00 X   3      52.044  33.339  53.0840  0.00  0.00     0.000 OA
ENDBRANCH 45 54
BRANCH 41 57
ATOM     57  O4  A00 X   4      54.531  31.319  51.5340  0.00  0.00     0.000 O
BRANCH 57 61
ATOM     58  C1  A00 X   4      57.419  34.410  50.6720  0.00  0.00     0.000 C
ATOM     59  C2  A00 X   4      55.912  34.760  50.5880  0.00  0.00     0.000 C
ATOM     60  C3  A00 X   4      55.000  33.709  51.2540  0.00  0.00     0.000 C
ATOM     61  C4  A00 X   4      55.363  32.274  50.8160  0.00  0.00     0.000 C
ATOM     62  C5  A00 X   4      56.854  32.070  51.1850  0.00  0.00     0.000 C
ATOM     63  O5  A00 X   4      57.665  33.006  50.4300  0.00  0.00     0.000 O
BRANCH 59 66
ATOM     64   N  A00 X   4      55.468  34.823  49.1840  0.00  0.00     0.000 N
ATOM     66  HD  A00 X   4      55.892  34.335  48.6080  0.00  0.00     0.000 HD
ATOM     66   O  A00 X   4      56.365  37.057  49.1070  0.00  0.00     0.000 OA
ATOM     67   S  A00 X   4      55.350  36.261  48.4920  0.00  0.00     0.000 S
ATOM     68   O  A00 X   4      55.586  35.908  47.1230  0.00  0.00     0.000 OA
ATOM     69   O  A00 X   4      53.981  36.573  48.7910  0.00  0.00     0.000 OA
ENDBRANCH 59 66
BRANCH 62 70
ATOM     70   C  A00 X   4      57.380  30.639  50.9210  0.00  0.00     0.000 C
ATOM     71   O  A00 X   4      57.971  28.997  47.7490  0.00  0.00     0.000 OA
ATOM     72   O  A00 X   4      56.813  28.264  49.6630  0.00  0.00     0.000 OA
ATOM     73   O  A00 X   4      57.693  30.499  49.5250  0.00  0.00     0.000 O
ATOM     74   O  A00 X   4      55.780  29.904  48.1860  0.00  0.00     0.000 OA
ATOM     75   S  A00 X   4      56.981  29.352  48.7260  0.00  0.00     0.000 S
ENDBRANCH 62 70
ENDBRANCH 57 61
ENDBRANCH 41 57
ENDBRANCH 40 44
ENDBRANCH 20 40
ENDBRANCH 19 23
ENDBRANCH 1 19
TORSDOF 14
ENDMDL
MODEL 53
REMARK VINA RESULT:      -0.2     66.776     71.786
ROOT
ATOM      1  C1  A00 X   1      53.062  54.042  34.0320  0.00  0.00     0.000 C
ATOM      2  C2  A00 X   1      53.173  53.034  32.8570  0.00  0.00     0.000 C
ATOM      3  C3  A00 X   1      53.179  53.651  31.4200  0.00  0.00     0.000 C
ATOM      4  C4  A00 X   1      52.710  55.125  31.3240  0.00  0.00     0.000 C
ATOM      5  C5  A00 X   1      51.833  55.530  32.5090  0.00  0.00     0.000 C
ATOM      6  O5  A00 X   1      52.690  55.393  33.6640  0.00  0.00     0.000 O
ATOM      7   O  A00 X   1      52.301  52.892  30.5920  0.00  0.00     0.000 O
ATOM      9  HD  A00 X   1      52.176  53.727  30.3990  0.00  0.00     0.000 HD
ATOM      9   O  A00 X   1      53.817  56.020  31.2160  0.00  0.00     0.000 O
ATOM     11  HD  A00 X   1      53.692  56.854  31.0230  0.00  0.00     0.000 HD
ENDROOT
BRANCH 2 11
ATOM     11   O  A00 X   1      54.382  52.272  33.0460  0.00  0.00     0.000 O
ATOM     12   O  A00 X   1      55.194  50.745  31.3810  0.00  0.00     0.000 OA
ATOM     13   O  A00 X   1      53.061  50.302  32.4620  0.00  0.00     0.000 OA
ATOM     14   O  A00 X   1      55.091  50.143  33.6920  0.00  0.00     0.000 OA
ATOM     15   S  A00 X   1      54.413  50.773  32.5910  0.00  0.00     0.000 S
ENDBRANCH 2 11
BRANCH 5 16
ATOM     16   C  A00 X   1      50.513  54.762  32.6300  0.00  0.00     0.000 C
ATOM     17   O  A00 X   1      49.867  54.875  33.6510  0.00  0.00     0.000 OA
ATOM     18   O  A00 X   1      50.088  54.051  31.7410  0.00  0.00     0.000 OA
ENDBRANCH 5 16
BRANCH 1 19
ATOM     19  O4  A00 X   2      52.244  53.547  35.1200  0.00  0.00     0.000 O
BRANCH 19 23
ATOM     20  C1  A00 X   2      54.789  55.154  38.1700  0.00  0.00     0.000 C
ATOM     21  C2  A00 X   2      54.964  53.659  37.8090  0.00  0.00     0.000 C
ATOM     22  C3  A00 X   2      54.316  53.345  36.4440  0.00  0.00     0.000 C
ATOM     23  C4  A00 X   2      52.839  53.798  36.4260  0.00  0.00     0.000 C
ATOM     24  C5  A00 X   2      52.798  55.300  36.8210  0.00  0.00     0.000 C
ATOM     25  O5  A00 X   2      53.367  55.450  38.1470  0.00  0.00     0.000 O
ATOM     26   O  A00 X   2      54.564  51.966  36.1220  0.00  0.00     0.000 O
ATOM     28  HD  A00 X   2      54.286  51.684  36.8930  0.00  0.00     0.000 HD
BRANCH 21 30
ATOM     28   N  A00 X   2      55.277  53.394  39.2160  0.00  0.00     0.000 N
ATOM     30  HD  A00 X   2      55.536  52.700  38.7660  0.00  0.00     0.000 HD
ATOM     30   O  A00 X   2      56.788  51.614  39.3010  0.00  0.00     0.000 OA
ATOM     31   S  A00 X   2      55.450  51.894  39.6840  0.00  0.00     0.000 S
ATOM     32   O  A00 X   2      55.226  51.952  41.0960  0.00  0.00     0.000 OA
ATOM     33   O  A00 X   2      54.418  51.130  39.0480  0.00  0.00     0.000 OA
ENDBRANCH 21 30
BRANCH 24 34
ATOM     34   C  A00 X   2      51.460  56.058  36.6560  0.00  0.00     0.000 C
ATOM     35   O  A00 X   2      48.346  55.074  38.2680  0.00  0.00     0.000 OA
ATOM     36   O  A00 X   2      50.348  55.258  37.1070  0.00  0.00     0.000 O
ATOM     37   O  A00 X   2      50.359  55.504  39.4330  0.00  0.00     0.000 OA
ATOM     38   S  A00 X   2      49.538  55.856  38.3150  0.00  0.00     0.000 S
ATOM     39   O  A00 X   2      49.362  57.249  38.0350  0.00  0.00     0.000 OA
ENDBRANCH 24 34
BRANCH 20 40
ATOM     40  O4  A00 X   3      55.448  55.885  37.1260  0.00  0.00     0.000 O
BRANCH 40 44
ATOM     41  C1  A00 X   3      55.359  58.678  34.8200  0.00  0.00     0.000 C
ATOM     42  C2  A00 X   3      56.498  57.639  34.9000  0.00  0.00     0.000 C
ATOM     43  C3  A00 X   3      56.998  57.475  36.3580  0.00  0.00     0.000 C
ATOM     44  C4  A00 X   3      55.897  57.233  37.3820  0.00  0.00     0.000 C
ATOM     45  C5  A00 X   3      54.793  58.320  37.2430  0.00  0.00     0.000 C
ATOM     46  O5  A00 X   3      54.359  58.447  35.8500  0.00  0.00     0.000 O
ATOM     47   O  A00 X   3      58.111  56.601  36.5400  0.00  0.00     0.000 O
ATOM     49  HD  A00 X   3      57.673  56.375  37.2520  0.00  0.00     0.000 HD
BRANCH 42 49
ATOM     49   O  A00 X   3      55.976  56.397  34.3780  0.00  0.00     0.000 O
ATOM     50   O  A00 X   3      56.787  54.165  34.0810  0.00  0.00     0.000 OA
ATOM     51   O  A00 X   3      58.221  55.977  33.5800  0.00  0.00     0.000 OA
ATOM     52   O  A00 X   3      56.340  55.611  32.1960  0.00  0.00     0.000 OA
ATOM     53   S  A00 X   3      56.873  55.471  33.5070  0.00  0.00     0.000 S
ENDBRANCH 42 49
BRANCH 45 54
ATOM     54   C  A00 X   3      55.227  59.653  37.8640  0.00  0.00     0.000 C
ATOM     55   O  A00 X   3      56.381  59.835  38.1940  0.00  0.00     0.000 OA
ATOM     56   O  A00 X   3      54.420  60.553  38.0390  0.00  0.00     0.000 OA
ENDBRANCH 45 54
BRANCH 41 57
ATOM     57  O4  A00 X   4      55.870  60.029  34.7900  0.00  0.00     0.000 O
BRANCH 57 61
ATOM     58  C1  A00 X   4      54.488  63.653  32.8930  0.00  0.00     0.000 C
ATOM     59  C2  A00 X   4      53.579  62.976  33.9490  0.00  0.00     0.000 C
ATOM     60  C3  A00 X   4      54.310  61.921  34.8040  0.00  0.00     0.000 C
ATOM     61  C4  A00 X   4      55.135  60.949  33.9330  0.00  0.00     0.000 C
ATOM     62  C5  A00 X   4      56.120  61.824  33.1170  0.00  0.00     0.000 C
ATOM     63  O5  A00 X   4      55.365  62.704  32.2450  0.00  0.00     0.000 O
BRANCH 59 66
ATOM     64   N  A00 X   4      52.484  62.252  33.2770  0.00  0.00     0.000 N
ATOM     66  HD  A00 X   4      52.632  61.959  32.4760  0.00  0.00     0.000 HD
ATOM     66   O  A00 X   4      51.322  64.356  33.1230  0.00  0.00     0.000 OA
ATOM     67   S  A00 X   4      51.050  62.954  33.1970  0.00  0.00     0.000 S
ATOM     68   O  A00 X   4      50.539  62.362  31.9950  0.00  0.00     0.000 OA
ATOM     69   O  A00 X   4      50.453  62.450  34.4010  0.00  0.00     0.000 OA
ENDBRANCH 59 66
BRANCH 62 70
ATOM     70   C  A00 X   4      57.118  61.015  32.2550  0.00  0.00     0.000 C
ATOM     71   O  A00 X   4      56.462  59.024  29.3040  0.00  0.00     0.000 OA
ATOM     72   O  A00 X   4      57.672  58.517  31.2590  0.00  0.00     0.000 OA
ATOM     73   O  A00 X   4      56.466  60.587  31.0490  0.00  0.00     0.000 O
ATOM     74   O  A00 X   4      55.236  58.533  31.3210  0.00  0.00     0.000 OA
ATOM     75   S  A00 X   4      56.433  59.050  30.7390  0.00  0.00     0.000 S
ENDBRANCH 62 70
ENDBRANCH 57 61
ENDBRANCH 41 57
ENDBRANCH 40 44
ENDBRANCH 20 40
ENDBRANCH 19 23
ENDBRANCH 1 19
TORSDOF 14
ENDMDL
MODEL 54
REMARK VINA RESULT:      -0.2     30.947     35.023
ROOT
ATOM      1  C1  A00 X   1      24.941  23.480  33.9810  0.00  0.00     0.000 C
ATOM      2  C2  A00 X   1      23.568  22.961  34.4840  0.00  0.00     0.000 C
ATOM      3  C3  A00 X   1      22.509  22.639  33.3790  0.00  0.00     0.000 C
ATOM      4  C4  A00 X   1      22.815  23.212  31.9710  0.00  0.00     0.000 C
ATOM      5  C5  A00 X   1      23.766  24.407  32.0290  0.00  0.00     0.000 C
ATOM      6  O5  A00 X   1      24.989  23.876  32.5880  0.00  0.00     0.000 O
ATOM      7   O  A00 X   1      21.253  23.186  33.7750  0.00  0.00     0.000 O
ATOM      9  HD  A00 X   1      21.343  23.340  32.9270  0.00  0.00     0.000 HD
ATOM      9   O  A00 X   1      23.349  22.212  31.1050  0.00  0.00     0.000 O
ATOM     11  HD  A00 X   1      23.439  22.366  30.2570  0.00  0.00     0.000 HD
ENDROOT
BRANCH 2 11
ATOM     11   O  A00 X   1      23.807  21.775  35.2650  0.00  0.00     0.000 O
ATOM     12   O  A00 X   1      22.036  20.638  36.4230  0.00  0.00     0.000 OA
ATOM     13   O  A00 X   1      22.623  22.906  37.0780  0.00  0.00     0.000 OA
ATOM     14   O  A00 X   1      24.127  21.108  37.4800  0.00  0.00     0.000 OA
ATOM     15   S  A00 X   1      23.074  21.613  36.6420  0.00  0.00     0.000 S
ENDBRANCH 2 11
BRANCH 5 16
ATOM     16   C  A00 X   1      23.228  25.628  32.7830  0.00  0.00     0.000 C
ATOM     17   O  A00 X   1      23.992  26.535  33.0400  0.00  0.00     0.000 OA
ATOM     18   O  A00 X   1      22.066  25.722  33.1250  0.00  0.00     0.000 OA
ENDBRANCH 5 16
BRANCH 1 19
ATOM     19  O4  A00 X   2      25.504  24.502  34.8400  0.00  0.00     0.000 O
BRANCH 19 23
ATOM     20  C1  A00 X   2      29.533  23.131  34.3400  0.00  0.00     0.000 C
ATOM     21  C2  A00 X   2      28.781  22.688  35.6190  0.00  0.00     0.000 C
ATOM     22  C3  A00 X   2      27.259  22.881  35.4550  0.00  0.00     0.000 C
ATOM     23  C4  A00 X   2      26.936  24.335  35.0420  0.00  0.00     0.000 C
ATOM     24  C5  A00 X   2      27.762  24.661  33.7670  0.00  0.00     0.000 C
ATOM     25  O5  A00 X   2      29.173  24.513  34.0740  0.00  0.00     0.000 O
ATOM     26   O  A00 X   2      26.603  22.393  36.6380  0.00  0.00     0.000 O
ATOM     28  HD  A00 X   2      27.117  22.843  37.1700  0.00  0.00     0.000 HD
BRANCH 21 30
ATOM     28   N  A00 X   2      30.052  22.758  36.3460  0.00  0.00     0.000 N
ATOM     30  HD  A00 X   2      29.505  22.303  36.8400  0.00  0.00     0.000 HD
ATOM     30   O  A00 X   2      30.018  21.136  38.0280  0.00  0.00     0.000 OA
ATOM     31   S  A00 X   2      30.041  22.552  37.9130  0.00  0.00     0.000 S
ATOM     32   O  A00 X   2      31.256  23.172  38.3450  0.00  0.00     0.000 OA
ATOM     33   O  A00 X   2      28.909  23.264  38.4260  0.00  0.00     0.000 OA
ENDBRANCH 21 30
BRANCH 24 34
ATOM     34   C  A00 X   2      27.448  25.977  33.0170  0.00  0.00     0.000 C
ATOM     35   O  A00 X   2      29.840  28.684  32.5590  0.00  0.00     0.000 OA
ATOM     36   O  A00 X   2      28.439  26.986  33.2960  0.00  0.00     0.000 O
ATOM     37   O  A00 X   2      30.230  26.449  31.8900  0.00  0.00     0.000 OA
ATOM     38   S  A00 X   2      29.257  27.486  32.0490  0.00  0.00     0.000 S
ATOM     39   O  A00 X   2      28.309  27.675  30.9930  0.00  0.00     0.000 OA
ENDBRANCH 24 34
BRANCH 20 40
ATOM     40  O4  A00 X   3      29.035  22.293  33.2870  0.00  0.00     0.000 O
BRANCH 40 44
ATOM     41  C1  A00 X   3      27.871  22.004  29.8690  0.00  0.00     0.000 C
ATOM     42  C2  A00 X   3      27.946  20.835  30.8750  0.00  0.00     0.000 C
ATOM     43  C3  A00 X   3      29.347  20.759  31.5350  0.00  0.00     0.000 C
ATOM     44  C4  A00 X   3      29.847  22.078  32.1130  0.00  0.00     0.000 C
ATOM     45  C5  A00 X   3      29.745  23.200  31.0420  0.00  0.00     0.000 C
ATOM     46  O5  A00 X   3      28.411  23.228  30.4390  0.00  0.00     0.000 O
ATOM     47   O  A00 X   3      29.559  19.662  32.4210  0.00  0.00     0.000 O
ATOM     49  HD  A00 X   3      29.987  20.260  32.8790  0.00  0.00     0.000 HD
BRANCH 42 49
ATOM     49   O  A00 X   3      26.910  21.056  31.8580  0.00  0.00     0.000 O
ATOM     50   O  A00 X   3      26.160  19.974  33.8570  0.00  0.00     0.000 OA
ATOM     51   O  A00 X   3      26.751  18.645  31.9930  0.00  0.00     0.000 OA
ATOM     52   O  A00 X   3      24.816  19.994  31.8470  0.00  0.00     0.000 OA
ATOM     53   S  A00 X   3      26.104  19.856  32.4340  0.00  0.00     0.000 S
ENDBRANCH 42 49
BRANCH 45 54
ATOM     54   C  A00 X   3      30.873  23.102  30.0080  0.00  0.00     0.000 C
ATOM     55   O  A00 X   3      31.013  23.961  29.1610  0.00  0.00     0.000 OA
ATOM     56   O  A00 X   3      31.648  22.158  30.0160  0.00  0.00     0.000 OA
ENDBRANCH 45 54
BRANCH 41 57
ATOM     57  O4  A00 X   4      28.447  21.647  28.5920  0.00  0.00     0.000 O
BRANCH 57 61
ATOM     58  C1  A00 X   4      27.495  22.748  24.5280  0.00  0.00     0.000 C
ATOM     59  C2  A00 X   4      27.926  23.861  25.5160  0.00  0.00     0.000 C
ATOM     60  C3  A00 X   4      28.578  23.319  26.8050  0.00  0.00     0.000 C
ATOM     61  C4  A00 X   4      27.749  22.177  27.4300  0.00  0.00     0.000 C
ATOM     62  C5  A00 X   4      27.620  21.085  26.3380  0.00  0.00     0.000 C
ATOM     63  O5  A00 X   4      26.889  21.625  25.2080  0.00  0.00     0.000 O
BRANCH 59 66
ATOM     64   N  A00 X   4      26.751  24.629  25.9630  0.00  0.00     0.000 N
ATOM     66  HD  A00 X   4      25.987  24.222  25.9740  0.00  0.00     0.000 HD
ATOM     66   O  A00 X   4      26.921  25.889  23.9180  0.00  0.00     0.000 OA
ATOM     67   S  A00 X   4      26.453  26.035  25.2600  0.00  0.00     0.000 S
ATOM     68   O  A00 X   4      25.029  26.104  25.4130  0.00  0.00     0.000 OA
ATOM     69   O  A00 X   4      27.181  26.913  26.1320  0.00  0.00     0.000 OA
ENDBRANCH 59 66
BRANCH 62 70
ATOM     70   C  A00 X   4      26.907  19.797  26.8140  0.00  0.00     0.000 C
ATOM     71   O  A00 X   4      23.417  19.320  27.6500  0.00  0.00     0.000 OA
ATOM     72   O  A00 X   4      25.370  18.724  28.8220  0.00  0.00     0.000 OA
ATOM     73   O  A00 X   4      25.485  20.003  26.7880  0.00  0.00     0.000 O
ATOM     74   O  A00 X   4      24.649  21.052  28.7900  0.00  0.00     0.000 OA
ATOM     75   S  A00 X   4      24.689  19.791  28.1220  0.00  0.00     0.000 S
ENDBRANCH 62 70
ENDBRANCH 57 61
ENDBRANCH 41 57
ENDBRANCH 40 44
ENDBRANCH 20 40
ENDBRANCH 19 23
ENDBRANCH 1 19
TORSDOF 14
ENDMDL
MODEL 55
REMARK VINA RESULT:      -0.2     33.962     38.556
ROOT
ATOM      1  C1  A00 X   1      28.211  26.939  33.3370  0.00  0.00     0.000 C
ATOM      2  C2  A00 X   1      27.082  26.804  34.3930  0.00  0.00     0.000 C
ATOM      3  C3  A00 X   1      26.415  28.140  34.8610  0.00  0.00     0.000 C
ATOM      4  C4  A00 X   1      27.191  29.434  34.5050  0.00  0.00     0.000 C
ATOM      5  C5  A00 X   1      28.677  29.169  34.2630  0.00  0.00     0.000 C
ATOM      6  O5  A00 X   1      28.710  28.282  33.1220  0.00  0.00     0.000 O
ATOM      7   O  A00 X   1      26.295  28.118  36.2820  0.00  0.00     0.000 O
ATOM      9  HD  A00 X   1      26.549  28.915  36.0590  0.00  0.00     0.000 HD
ATOM      9   O  A00 X   1      26.625  30.085  33.3680  0.00  0.00     0.000 O
ATOM     11  HD  A00 X   1      26.879  30.882  33.1450  0.00  0.00     0.000 HD
ENDROOT
BRANCH 2 11
ATOM     11   O  A00 X   1      26.067  25.941  33.8440  0.00  0.00     0.000 O
ATOM     12   O  A00 X   1      23.955  25.607  34.9370  0.00  0.00     0.000 OA
ATOM     13   O  A00 X   1      25.995  24.869  36.0370  0.00  0.00     0.000 OA
ATOM     14   O  A00 X   1      25.224  23.775  34.0710  0.00  0.00     0.000 OA
ATOM     15   S  A00 X   1      25.260  25.008  34.8110  0.00  0.00     0.000 S
ENDBRANCH 2 11
BRANCH 5 16
ATOM     16   C  A00 X   1      29.446  28.636  35.4760  0.00  0.00     0.000 C
ATOM     17   O  A00 X   1      30.554  28.172  35.3030  0.00  0.00     0.000 OA
ATOM     18   O  A00 X   1      28.991  28.668  36.6020  0.00  0.00     0.000 OA
ENDBRANCH 5 16
BRANCH 1 19
ATOM     19  O4  A00 X   2      29.294  26.001  33.5500  0.00  0.00     0.000 O
BRANCH 19 23
ATOM     20  C1  A00 X   2      29.840  25.207  29.3740  0.00  0.00     0.000 C
ATOM     21  C2  A00 X   2      28.987  24.203  30.1870  0.00  0.00     0.000 C
ATOM     22  C3  A00 X   2      28.526  24.827  31.5210  0.00  0.00     0.000 C
ATOM     23  C4  A00 X   2      29.736  25.367  32.3150  0.00  0.00     0.000 C
ATOM     24  C5  A00 X   2      30.514  26.343  31.3900  0.00  0.00     0.000 C
ATOM     25  O5  A00 X   2      30.953  25.618  30.2120  0.00  0.00     0.000 O
ATOM     26   O  A00 X   2      27.684  23.883  32.2050  0.00  0.00     0.000 O
ATOM     28  HD  A00 X   2      28.253  23.236  32.1170  0.00  0.00     0.000 HD
BRANCH 21 30
ATOM     28   N  A00 X   2      29.518  23.127  29.3440  0.00  0.00     0.000 N
ATOM     30  HD  A00 X   2      28.825  22.807  29.7520  0.00  0.00     0.000 HD
ATOM     30   O  A00 X   2      27.873  21.481  29.1440  0.00  0.00     0.000 OA
ATOM     31   S  A00 X   2      29.166  21.631  29.7120  0.00  0.00     0.000 S
ATOM     32   O  A00 X   2      30.197  20.873  29.0740  0.00  0.00     0.000 OA
ATOM     33   O  A00 X   2      29.268  21.510  31.1360  0.00  0.00     0.000 OA
ENDBRANCH 21 30
BRANCH 24 34
ATOM     34   C  A00 X   2      31.639  27.198  32.0190  0.00  0.00     0.000 C
ATOM     35   O  A00 X   2      34.514  25.815  33.7750  0.00  0.00     0.000 OA
ATOM     36   O  A00 X   2      32.437  26.420  32.9350  0.00  0.00     0.000 O
ATOM     37   O  A00 X   2      33.914  25.238  31.5610  0.00  0.00     0.000 OA
ATOM     38   S  A00 X   2      33.953  26.274  32.5470  0.00  0.00     0.000 S
ATOM     39   O  A00 X   2      34.391  27.572  32.1280  0.00  0.00     0.000 OA
ENDBRANCH 24 34
BRANCH 20 40
ATOM     40  O4  A00 X   3      28.984  26.332  29.1290  0.00  0.00     0.000 O
BRANCH 40 44
ATOM     41  C1  A00 X   3      28.614  29.936  29.0720  0.00  0.00     0.000 C
ATOM     42  C2  A00 X   3      27.486  28.930  28.7560  0.00  0.00     0.000 C
ATOM     43  C3  A00 X   3      27.948  27.889  27.7050  0.00  0.00     0.000 C
ATOM     44  C4  A00 X   3      29.277  27.215  28.0240  0.00  0.00     0.000 C
ATOM     45  C5  A00 X   3      30.360  28.289  28.3250  0.00  0.00     0.000 C
ATOM     46  O5  A00 X   3      29.877  29.256  29.3130  0.00  0.00     0.000 O
ATOM     47   O  A00 X   3      26.957  26.959  27.2710  0.00  0.00     0.000 O
ATOM     49  HD  A00 X   3      27.625  26.408  27.2980  0.00  0.00     0.000 HD
BRANCH 42 49
ATOM     49   O  A00 X   3      27.122  28.297  30.0030  0.00  0.00     0.000 O
ATOM     50   O  A00 X   3      25.614  26.571  30.6940  0.00  0.00     0.000 OA
ATOM     51   O  A00 X   3      24.888  28.144  29.0850  0.00  0.00     0.000 OA
ATOM     52   O  A00 X   3      25.255  28.884  31.2990  0.00  0.00     0.000 OA
ATOM     53   S  A00 X   3      25.636  27.945  30.3020  0.00  0.00     0.000 S
ENDBRANCH 42 49
BRANCH 45 54
ATOM     54   C  A00 X   3      30.879  28.947  27.0400  0.00  0.00     0.000 C
ATOM     55   O  A00 X   3      30.340  28.732  25.9740  0.00  0.00     0.000 OA
ATOM     56   O  A00 X   3      31.842  29.697  27.0670  0.00  0.00     0.000 OA
ENDBRANCH 45 54
BRANCH 41 57
ATOM     57  O4  A00 X   4      28.690  30.982  28.0780  0.00  0.00     0.000 O
BRANCH 57 61
ATOM     58  C1  A00 X   4      29.724  35.168  28.2890  0.00  0.00     0.000 C
ATOM     59  C2  A00 X   4      30.796  34.120  28.6770  0.00  0.00     0.000 C
ATOM     60  C3  A00 X   4      30.446  32.687  28.2270  0.00  0.00     0.000 C
ATOM     61  C4  A00 X   4      28.996  32.307  28.5970  0.00  0.00     0.000 C
ATOM     62  C5  A00 X   4      28.084  33.367  27.9320  0.00  0.00     0.000 C
ATOM     63  O5  A00 X   4      28.381  34.672  28.4920  0.00  0.00     0.000 O
BRANCH 59 66
ATOM     64   N  A00 X   4      31.143  33.905  30.0940  0.00  0.00     0.000 N
ATOM     66  HD  A00 X   4      30.508  33.981  30.6770  0.00  0.00     0.000 HD
ATOM     66   O  A00 X   4      32.361  35.980  30.0060  0.00  0.00     0.000 OA
ATOM     67   S  A00 X   4      32.364  34.735  30.7090  0.00  0.00     0.000 S
ATOM     68   O  A00 X   4      31.965  34.801  32.0840  0.00  0.00     0.000 OA
ATOM     69   O  A00 X   4      33.444  33.824  30.4530  0.00  0.00     0.000 OA
ENDBRANCH 59 66
BRANCH 62 70
ATOM     70   C  A00 X   4      26.570  33.094  28.0990  0.00  0.00     0.000 C
ATOM     71   O  A00 X   4      24.556  33.284  31.1010  0.00  0.00     0.000 OA
ATOM     72   O  A00 X   4      24.726  31.592  29.4720  0.00  0.00     0.000 OA
ATOM     73   O  A00 X   4      26.150  33.529  29.4020  0.00  0.00     0.000 O
ATOM     74   O  A00 X   4      26.508  31.869  31.1110  0.00  0.00     0.000 OA
ATOM     75   S  A00 X   4      25.469  32.476  30.3430  0.00  0.00     0.000 S
ENDBRANCH 62 70
ENDBRANCH 57 61
ENDBRANCH 41 57
ENDBRANCH 40 44
ENDBRANCH 20 40
ENDBRANCH 19 23
ENDBRANCH 1 19
TORSDOF 14
ENDMDL
MODEL 56
REMARK VINA RESULT:      -0.2     37.982     42.172
ROOT
ATOM      1  C1  A00 X   1      10.218  14.112  45.1390  0.00  0.00     0.000 C
ATOM      2  C2  A00 X   1       9.892  15.442  45.8700  0.00  0.00     0.000 C
ATOM      3  C3  A00 X   1       9.050  15.317  47.1820  0.00  0.00     0.000 C
ATOM      4  C4  A00 X   1       8.340  13.954  47.3930  0.00  0.00     0.000 C
ATOM      5  C5  A00 X   1       8.137  13.199  46.0800  0.00  0.00     0.000 C
ATOM      6  O5  A00 X   1       9.474  12.952  45.5880  0.00  0.00     0.000 O
ATOM      7   O  A00 X   1       8.025  16.308  47.1640  0.00  0.00     0.000 O
ATOM      9  HD  A00 X   1       7.671  15.580  47.4710  0.00  0.00     0.000 HD
ATOM      9   O  A00 X   1       9.054  13.132  48.3170  0.00  0.00     0.000 O
ATOM     11  HD  A00 X   1       8.699  12.404  48.6230  0.00  0.00     0.000 HD
ENDROOT
BRANCH 2 11
ATOM     11   O  A00 X   1      11.141  16.092  46.1750  0.00  0.00     0.000 O
ATOM     12   O  A00 X   1      11.246  18.069  47.5340  0.00  0.00     0.000 OA
ATOM     13   O  A00 X   1      10.091  18.155  45.3950  0.00  0.00     0.000 OA
ATOM     14   O  A00 X   1      12.454  17.894  45.4790  0.00  0.00     0.000 OA
ATOM     15   S  A00 X   1      11.206  17.658  46.1540  0.00  0.00     0.000 S
ENDBRANCH 2 11
BRANCH 5 16
ATOM     16   C  A00 X   1       7.230  13.900  45.0630  0.00  0.00     0.000 C
ATOM     17   O  A00 X   1       7.186  13.469  43.9290  0.00  0.00     0.000 OA
ATOM     18   O  A00 X   1       6.549  14.864  45.3530  0.00  0.00     0.000 OA
ENDBRANCH 5 16
BRANCH 1 19
ATOM     19  O4  A00 X   2      10.178  14.240  43.6970  0.00  0.00     0.000 O
BRANCH 19 23
ATOM     20  C1  A00 X   2      13.564  11.689  43.0660  0.00  0.00     0.000 C
ATOM     21  C2  A00 X   2      13.811  13.217  43.0690  0.00  0.00     0.000 C
ATOM     22  C3  A00 X   2      12.629  13.964  43.7230  0.00  0.00     0.000 C
ATOM     23  C4  A00 X   2      11.297  13.573  43.0450  0.00  0.00     0.000 C
ATOM     24  C5  A00 X   2      11.177  12.025  43.0910  0.00  0.00     0.000 C
ATOM     25  O5  A00 X   2      12.305  11.448  42.3830  0.00  0.00     0.000 O
ATOM     26   O  A00 X   2      12.937  15.368  43.7630  0.00  0.00     0.000 O
ATOM     28  HD  A00 X   2      13.153  15.396  42.9250  0.00  0.00     0.000 HD
BRANCH 21 30
ATOM     28   N  A00 X   2      14.842  13.018  42.0460  0.00  0.00     0.000 N
ATOM     30  HD  A00 X   2      14.963  13.811  42.3730  0.00  0.00     0.000 HD
ATOM     30   O  A00 X   2      16.495  14.641  42.3540  0.00  0.00     0.000 OA
ATOM     31   S  A00 X   2      15.514  14.289  41.3890  0.00  0.00     0.000 S
ATOM     32   O  A00 X   2      16.035  13.795  40.1520  0.00  0.00     0.000 OA
ATOM     33   O  A00 X   2      14.472  15.241  41.1450  0.00  0.00     0.000 OA
ENDBRANCH 21 30
BRANCH 24 34
ATOM     34   C  A00 X   2       9.828  11.388  42.6840  0.00  0.00     0.000 C
ATOM     35   O  A00 X   2       9.410   9.113  39.8720  0.00  0.00     0.000 OA
ATOM     36   O  A00 X   2       9.891  10.832  41.3560  0.00  0.00     0.000 O
ATOM     37   O  A00 X   2      10.939   8.761  41.6410  0.00  0.00     0.000 OA
ATOM     38   S  A00 X   2       9.659   9.280  41.2660  0.00  0.00     0.000 S
ATOM     39   O  A00 X   2       8.548   8.987  42.1210  0.00  0.00     0.000 OA
ENDBRANCH 24 34
BRANCH 20 40
ATOM     40  O4  A00 X   3      13.440  11.314  44.4460  0.00  0.00     0.000 O
BRANCH 40 44
ATOM     41  C1  A00 X   3      11.693   9.402  46.9790  0.00  0.00     0.000 C
ATOM     42  C2  A00 X   3      12.884  10.345  47.2540  0.00  0.00     0.000 C
ATOM     43  C3  A00 X   3      14.072  10.030  46.3090  0.00  0.00     0.000 C
ATOM     44  C4  A00 X   3      13.703   9.948  44.8330  0.00  0.00     0.000 C
ATOM     45  C5  A00 X   3      12.503   8.979  44.6370  0.00  0.00     0.000 C
ATOM     46  O5  A00 X   3      11.411   9.307  45.5560  0.00  0.00     0.000 O
ATOM     47   O  A00 X   3      15.262  10.784  46.5310  0.00  0.00     0.000 O
ATOM     49  HD  A00 X   3      15.292  10.779  45.6650  0.00  0.00     0.000 HD
BRANCH 42 49
ATOM     49   O  A00 X   3      12.406  11.696  47.0680  0.00  0.00     0.000 O
ATOM     50   O  A00 X   3      13.350  13.894  47.1440  0.00  0.00     0.000 OA
ATOM     51   O  A00 X   3      13.990  12.320  48.7880  0.00  0.00     0.000 OA
ATOM     52   O  A00 X   3      11.772  13.136  48.8110  0.00  0.00     0.000 OA
ATOM     53   S  A00 X   3      12.901  12.841  47.9990  0.00  0.00     0.000 S
ENDBRANCH 42 49
BRANCH 45 54
ATOM     54   C  A00 X   3      12.940   7.511  44.7200  0.00  0.00     0.000 C
ATOM     55   O  A00 X   3      14.081   7.221  45.0170  0.00  0.00     0.000 OA
ATOM     56   O  A00 X   3      12.150   6.610  44.4860  0.00  0.00     0.000 OA
ENDBRANCH 45 54
BRANCH 41 57
ATOM     57  O4  A00 X   4      11.864   8.123  47.6310  0.00  0.00     0.000 O
BRANCH 57 61
ATOM     58  C1  A00 X   4       9.090   5.341  49.4210  0.00  0.00     0.000 C
ATOM     59  C2  A00 X   4       8.964   5.643  47.9070  0.00  0.00     0.000 C
ATOM     60  C3  A00 X   4      10.201   6.349  47.3160  0.00  0.00     0.000 C
ATOM     61  C4  A00 X   4      10.648   7.545  48.1850  0.00  0.00     0.000 C
ATOM     62  C5  A00 X   4      10.921   6.976  49.6000  0.00  0.00     0.000 C
ATOM     63  O5  A00 X   4       9.688   6.441  50.1450  0.00  0.00     0.000 O
BRANCH 59 66
ATOM     64   N  A00 X   4       7.830   6.563  47.7070  0.00  0.00     0.000 N
ATOM     66  HD  A00 X   4       7.618   7.085  48.3640  0.00  0.00     0.000 HD
ATOM     66   O  A00 X   4       6.387   4.636  47.7600  0.00  0.00     0.000 OA
ATOM     67   S  A00 X   4       6.439   5.953  47.2060  0.00  0.00     0.000 S
ATOM     68   O  A00 X   4       5.522   6.898  47.7740  0.00  0.00     0.000 OA
ATOM     69   O  A00 X   4       6.605   6.075  45.7860  0.00  0.00     0.000 OA
ENDBRANCH 59 66
BRANCH 62 70
ATOM     70   C  A00 X   4      11.491   8.013  50.5980  0.00  0.00     0.000 C
ATOM     71   O  A00 X   4       9.824  10.849  52.1100  0.00  0.00     0.000 OA
ATOM     72   O  A00 X   4      11.903  10.696  51.0160  0.00  0.00     0.000 OA
ATOM     73   O  A00 X   4      10.415   8.809  51.1210  0.00  0.00     0.000 O
ATOM     74   O  A00 X   4       9.849  10.675  49.7050  0.00  0.00     0.000 OA
ATOM     75   S  A00 X   4      10.498  10.364  50.9380  0.00  0.00     0.000 S
ENDBRANCH 62 70
ENDBRANCH 57 61
ENDBRANCH 41 57
ENDBRANCH 40 44
ENDBRANCH 20 40
ENDBRANCH 19 23
ENDBRANCH 1 19
TORSDOF 14
ENDMDL
MODEL 57
REMARK VINA RESULT:      -0.2     41.346     45.473
ROOT
ATOM      1  C1  A00 X   1      12.686  14.587  48.5650  0.00  0.00     0.000 C
ATOM      2  C2  A00 X   1      12.360  15.917  49.2960  0.00  0.00     0.000 C
ATOM      3  C3  A00 X   1      11.518  15.792  50.6080  0.00  0.00     0.000 C
ATOM      4  C4  A00 X   1      10.808  14.429  50.8200  0.00  0.00     0.000 C
ATOM      5  C5  A00 X   1      10.605  13.674  49.5060  0.00  0.00     0.000 C
ATOM      6  O5  A00 X   1      11.941  13.428  49.0140  0.00  0.00     0.000 O
ATOM      7   O  A00 X   1      10.493  16.783  50.5910  0.00  0.00     0.000 O
ATOM      9  HD  A00 X   1      10.138  16.055  50.8970  0.00  0.00     0.000 HD
ATOM      9   O  A00 X   1      11.521  13.607  51.7430  0.00  0.00     0.000 O
ATOM     11  HD  A00 X   1      11.166  12.879  52.0490  0.00  0.00     0.000 HD
ENDROOT
BRANCH 2 11
ATOM     11   O  A00 X   1      13.609  16.567  49.6010  0.00  0.00     0.000 O
ATOM     12   O  A00 X   1      13.713  18.544  50.9610  0.00  0.00     0.000 OA
ATOM     13   O  A00 X   1      12.559  18.630  48.8220  0.00  0.00     0.000 OA
ATOM     14   O  A00 X   1      14.921  18.369  48.9060  0.00  0.00     0.000 OA
ATOM     15   S  A00 X   1      13.673  18.133  49.5800  0.00  0.00     0.000 S
ENDBRANCH 2 11
BRANCH 5 16
ATOM     16   C  A00 X   1       9.697  14.375  48.4900  0.00  0.00     0.000 C
ATOM     17   O  A00 X   1       9.654  13.945  47.3560  0.00  0.00     0.000 OA
ATOM     18   O  A00 X   1       9.017  15.339  48.7790  0.00  0.00     0.000 OA
ENDBRANCH 5 16
BRANCH 1 19
ATOM     19  O4  A00 X   2      12.646  14.715  47.1230  0.00  0.00     0.000 O
BRANCH 19 23
ATOM     20  C1  A00 X   2      16.031  12.164  46.4930  0.00  0.00     0.000 C
ATOM     21  C2  A00 X   2      16.278  13.692  46.4950  0.00  0.00     0.000 C
ATOM     22  C3  A00 X   2      15.097  14.439  47.1490  0.00  0.00     0.000 C
ATOM     23  C4  A00 X   2      13.764  14.048  46.4720  0.00  0.00     0.000 C
ATOM     24  C5  A00 X   2      13.645  12.500  46.5180  0.00  0.00     0.000 C
ATOM     25  O5  A00 X   2      14.773  11.923  45.8090  0.00  0.00     0.000 O
ATOM     26   O  A00 X   2      15.404  15.843  47.1890  0.00  0.00     0.000 O
ATOM     28  HD  A00 X   2      15.621  15.871  46.3510  0.00  0.00     0.000 HD
BRANCH 21 30
ATOM     28   N  A00 X   2      17.310  13.493  45.4720  0.00  0.00     0.000 N
ATOM     30  HD  A00 X   2      17.431  14.286  45.7990  0.00  0.00     0.000 HD
ATOM     30   O  A00 X   2      18.962  15.116  45.7800  0.00  0.00     0.000 OA
ATOM     31   S  A00 X   2      17.982  14.764  44.8150  0.00  0.00     0.000 S
ATOM     32   O  A00 X   2      18.502  14.270  43.5780  0.00  0.00     0.000 OA
ATOM     33   O  A00 X   2      16.939  15.716  44.5720  0.00  0.00     0.000 OA
ENDBRANCH 21 30
BRANCH 24 34
ATOM     34   C  A00 X   2      12.295  11.863  46.1100  0.00  0.00     0.000 C
ATOM     35   O  A00 X   2      11.877   9.588  43.2990  0.00  0.00     0.000 OA
ATOM     36   O  A00 X   2      12.359  11.308  44.7820  0.00  0.00     0.000 O
ATOM     37   O  A00 X   2      13.407   9.236  45.0680  0.00  0.00     0.000 OA
ATOM     38   S  A00 X   2      12.127   9.755  44.6930  0.00  0.00     0.000 S
ATOM     39   O  A00 X   2      11.016   9.462  45.5470  0.00  0.00     0.000 OA
ENDBRANCH 24 34
BRANCH 20 40
ATOM     40  O4  A00 X   3      15.907  11.789  47.8720  0.00  0.00     0.000 O
BRANCH 40 44
ATOM     41  C1  A00 X   3      14.161   9.877  50.4060  0.00  0.00     0.000 C
ATOM     42  C2  A00 X   3      15.352  10.821  50.6800  0.00  0.00     0.000 C
ATOM     43  C3  A00 X   3      16.539  10.505  49.7350  0.00  0.00     0.000 C
ATOM     44  C4  A00 X   3      16.170  10.423  48.2590  0.00  0.00     0.000 C
ATOM     45  C5  A00 X   3      14.971   9.454  48.0640  0.00  0.00     0.000 C
ATOM     46  O5  A00 X   3      13.878   9.782  48.9820  0.00  0.00     0.000 O
ATOM     47   O  A00 X   3      17.730  11.259  49.9570  0.00  0.00     0.000 O
ATOM     49  HD  A00 X   3      17.760  11.254  49.0920  0.00  0.00     0.000 HD
BRANCH 42 49
ATOM     49   O  A00 X   3      14.873  12.171  50.4940  0.00  0.00     0.000 O
ATOM     50   O  A00 X   3      15.818  14.369  50.5700  0.00  0.00     0.000 OA
ATOM     51   O  A00 X   3      16.458  12.795  52.2140  0.00  0.00     0.000 OA
ATOM     52   O  A00 X   3      14.240  13.611  52.2380  0.00  0.00     0.000 OA
ATOM     53   S  A00 X   3      15.369  13.316  51.4250  0.00  0.00     0.000 S
ENDBRANCH 42 49
BRANCH 45 54
ATOM     54   C  A00 X   3      15.408   7.986  48.1460  0.00  0.00     0.000 C
ATOM     55   O  A00 X   3      16.549   7.696  48.4440  0.00  0.00     0.000 OA
ATOM     56   O  A00 X   3      14.618   7.085  47.9130  0.00  0.00     0.000 OA
ENDBRANCH 45 54
BRANCH 41 57
ATOM     57  O4  A00 X   4      14.331   8.598  51.0570  0.00  0.00     0.000 O
BRANCH 57 61
ATOM     58  C1  A00 X   4      11.558   5.816  52.8470  0.00  0.00     0.000 C
ATOM     59  C2  A00 X   4      11.432   6.118  51.3330  0.00  0.00     0.000 C
ATOM     60  C3  A00 X   4      12.668   6.825  50.7420  0.00  0.00     0.000 C
ATOM     61  C4  A00 X   4      13.116   8.020  51.6110  0.00  0.00     0.000 C
ATOM     62  C5  A00 X   4      13.389   7.452  53.0260  0.00  0.00     0.000 C
ATOM     63  O5  A00 X   4      12.156   6.916  53.5710  0.00  0.00     0.000 O
BRANCH 59 66
ATOM     64   N  A00 X   4      10.298   7.038  51.1330  0.00  0.00     0.000 N
ATOM     66  HD  A00 X   4      10.086   7.561  51.7900  0.00  0.00     0.000 HD
ATOM     66   O  A00 X   4       8.854   5.111  51.1860  0.00  0.00     0.000 OA
ATOM     67   S  A00 X   4       8.906   6.428  50.6320  0.00  0.00     0.000 S
ATOM     68   O  A00 X   4       7.990   7.373  51.2000  0.00  0.00     0.000 OA
ATOM     69   O  A00 X   4       9.073   6.550  49.2120  0.00  0.00     0.000 OA
ENDBRANCH 59 66
BRANCH 62 70
ATOM     70   C  A00 X   4      13.958   8.488  54.0240  0.00  0.00     0.000 C
ATOM     71   O  A00 X   4      12.292  11.324  55.5360  0.00  0.00     0.000 OA
ATOM     72   O  A00 X   4      14.371  11.171  54.4420  0.00  0.00     0.000 OA
ATOM     73   O  A00 X   4      12.883   9.284  54.5470  0.00  0.00     0.000 O
ATOM     74   O  A00 X   4      12.317  11.150  53.1310  0.00  0.00     0.000 OA
ATOM     75   S  A00 X   4      12.965  10.840  54.3640  0.00  0.00     0.000 S
ENDBRANCH 62 70
ENDBRANCH 57 61
ENDBRANCH 41 57
ENDBRANCH 40 44
ENDBRANCH 20 40
ENDBRANCH 19 23
ENDBRANCH 1 19
TORSDOF 14
ENDMDL
MODEL 58
REMARK VINA RESULT:      -0.2     36.087     40.626
ROOT
ATOM      1  C1  A00 X   1      27.720  29.106  34.7280  0.00  0.00     0.000 C
ATOM      2  C2  A00 X   1      26.592  28.972  35.7850  0.00  0.00     0.000 C
ATOM      3  C3  A00 X   1      25.925  30.307  36.2530  0.00  0.00     0.000 C
ATOM      4  C4  A00 X   1      26.701  31.602  35.8970  0.00  0.00     0.000 C
ATOM      5  C5  A00 X   1      28.186  31.336  35.6540  0.00  0.00     0.000 C
ATOM      6  O5  A00 X   1      28.219  30.450  34.5130  0.00  0.00     0.000 O
ATOM      7   O  A00 X   1      25.805  30.285  37.6730  0.00  0.00     0.000 O
ATOM      9  HD  A00 X   1      26.059  31.083  37.4510  0.00  0.00     0.000 HD
ATOM      9   O  A00 X   1      26.135  32.253  34.7590  0.00  0.00     0.000 O
ATOM     11  HD  A00 X   1      26.389  33.050  34.5370  0.00  0.00     0.000 HD
ENDROOT
BRANCH 2 11
ATOM     11   O  A00 X   1      25.577  28.109  35.2350  0.00  0.00     0.000 O
ATOM     12   O  A00 X   1      23.456  27.794  36.3150  0.00  0.00     0.000 OA
ATOM     13   O  A00 X   1      25.484  27.056  37.4370  0.00  0.00     0.000 OA
ATOM     14   O  A00 X   1      24.722  25.949  35.4750  0.00  0.00     0.000 OA
ATOM     15   S  A00 X   1      24.758  27.188  36.2040  0.00  0.00     0.000 S
ENDBRANCH 2 11
BRANCH 5 16
ATOM     16   C  A00 X   1      28.956  30.804  36.8670  0.00  0.00     0.000 C
ATOM     17   O  A00 X   1      30.064  30.339  36.6940  0.00  0.00     0.000 OA
ATOM     18   O  A00 X   1      28.500  30.836  37.9930  0.00  0.00     0.000 OA
ENDBRANCH 5 16
BRANCH 1 19
ATOM     19  O4  A00 X   2      28.804  28.168  34.9420  0.00  0.00     0.000 O
BRANCH 19 23
ATOM     20  C1  A00 X   2      29.350  27.375  30.7660  0.00  0.00     0.000 C
ATOM     21  C2  A00 X   2      28.497  26.371  31.5780  0.00  0.00     0.000 C
ATOM     22  C3  A00 X   2      28.036  26.994  32.9120  0.00  0.00     0.000 C
ATOM     23  C4  A00 X   2      29.246  27.535  33.7070  0.00  0.00     0.000 C
ATOM     24  C5  A00 X   2      30.024  28.510  32.7820  0.00  0.00     0.000 C
ATOM     25  O5  A00 X   2      30.463  27.786  31.6030  0.00  0.00     0.000 O
ATOM     26   O  A00 X   2      27.194  26.051  33.5960  0.00  0.00     0.000 O
ATOM     28  HD  A00 X   2      27.763  25.403  33.5080  0.00  0.00     0.000 HD
BRANCH 21 30
ATOM     28   N  A00 X   2      29.028  25.295  30.7350  0.00  0.00     0.000 N
ATOM     30  HD  A00 X   2      28.335  24.975  31.1430  0.00  0.00     0.000 HD
ATOM     30   O  A00 X   2      27.383  23.648  30.5360  0.00  0.00     0.000 OA
ATOM     31   S  A00 X   2      28.675  23.799  31.1030  0.00  0.00     0.000 S
ATOM     32   O  A00 X   2      29.707  23.041  30.4650  0.00  0.00     0.000 OA
ATOM     33   O  A00 X   2      28.778  23.678  32.5270  0.00  0.00     0.000 OA
ENDBRANCH 21 30
BRANCH 24 34
ATOM     34   C  A00 X   2      31.149  29.365  33.4110  0.00  0.00     0.000 C
ATOM     35   O  A00 X   2      34.024  27.982  35.1660  0.00  0.00     0.000 OA
ATOM     36   O  A00 X   2      31.946  28.588  34.3260  0.00  0.00     0.000 O
ATOM     37   O  A00 X   2      33.424  27.405  32.9520  0.00  0.00     0.000 OA
ATOM     38   S  A00 X   2      33.463  28.442  33.9380  0.00  0.00     0.000 S
ATOM     39   O  A00 X   2      33.901  29.740  33.5190  0.00  0.00     0.000 OA
ENDBRANCH 24 34
BRANCH 20 40
ATOM     40  O4  A00 X   3      28.494  28.500  30.5200  0.00  0.00     0.000 O
BRANCH 40 44
ATOM     41  C1  A00 X   3      28.124  32.104  30.4640  0.00  0.00     0.000 C
ATOM     42  C2  A00 X   3      26.995  31.098  30.1480  0.00  0.00     0.000 C
ATOM     43  C3  A00 X   3      27.458  30.056  29.0970  0.00  0.00     0.000 C
ATOM     44  C4  A00 X   3      28.787  29.382  29.4150  0.00  0.00     0.000 C
ATOM     45  C5  A00 X   3      29.870  30.457  29.7160  0.00  0.00     0.000 C
ATOM     46  O5  A00 X   3      29.387  31.424  30.7040  0.00  0.00     0.000 O
ATOM     47   O  A00 X   3      26.467  29.127  28.6630  0.00  0.00     0.000 O
ATOM     49  HD  A00 X   3      27.134  28.575  28.6890  0.00  0.00     0.000 HD
BRANCH 42 49
ATOM     49   O  A00 X   3      26.632  30.465  31.3940  0.00  0.00     0.000 O
ATOM     50   O  A00 X   3      25.124  28.739  32.0850  0.00  0.00     0.000 OA
ATOM     51   O  A00 X   3      24.398  30.312  30.4770  0.00  0.00     0.000 OA
ATOM     52   O  A00 X   3      24.765  31.052  32.6910  0.00  0.00     0.000 OA
ATOM     53   S  A00 X   3      25.145  30.113  31.6930  0.00  0.00     0.000 S
ENDBRANCH 42 49
BRANCH 45 54
ATOM     54   C  A00 X   3      30.388  31.115  28.4320  0.00  0.00     0.000 C
ATOM     55   O  A00 X   3      29.850  30.900  27.3650  0.00  0.00     0.000 OA
ATOM     56   O  A00 X   3      31.352  31.864  28.4590  0.00  0.00     0.000 OA
ENDBRANCH 45 54
BRANCH 41 57
ATOM     57  O4  A00 X   4      28.200  33.150  29.4690  0.00  0.00     0.000 O
BRANCH 57 61
ATOM     58  C1  A00 X   4      29.234  37.336  29.6800  0.00  0.00     0.000 C
ATOM     59  C2  A00 X   4      30.306  36.287  30.0690  0.00  0.00     0.000 C
ATOM     60  C3  A00 X   4      29.956  34.855  29.6180  0.00  0.00     0.000 C
ATOM     61  C4  A00 X   4      28.506  34.475  29.9890  0.00  0.00     0.000 C
ATOM     62  C5  A00 X   4      27.594  35.535  29.3230  0.00  0.00     0.000 C
ATOM     63  O5  A00 X   4      27.891  36.840  29.8840  0.00  0.00     0.000 O
BRANCH 59 66
ATOM     64   N  A00 X   4      30.653  36.072  31.4850  0.00  0.00     0.000 N
ATOM     66  HD  A00 X   4      30.018  36.149  32.0690  0.00  0.00     0.000 HD
ATOM     66   O  A00 X   4      31.871  38.148  31.3980  0.00  0.00     0.000 OA
ATOM     67   S  A00 X   4      31.874  36.903  32.1000  0.00  0.00     0.000 S
ATOM     68   O  A00 X   4      31.475  36.969  33.4750  0.00  0.00     0.000 OA
ATOM     69   O  A00 X   4      32.954  35.992  31.8440  0.00  0.00     0.000 OA
ENDBRANCH 59 66
BRANCH 62 70
ATOM     70   C  A00 X   4      26.080  35.261  29.4900  0.00  0.00     0.000 C
ATOM     71   O  A00 X   4      24.066  35.452  32.4920  0.00  0.00     0.000 OA
ATOM     72   O  A00 X   4      24.236  33.760  30.8630  0.00  0.00     0.000 OA
ATOM     73   O  A00 X   4      25.660  35.697  30.7930  0.00  0.00     0.000 O
ATOM     74   O  A00 X   4      26.018  34.037  32.5020  0.00  0.00     0.000 OA
ATOM     75   S  A00 X   4      24.979  34.643  31.7340  0.00  0.00     0.000 S
ENDBRANCH 62 70
ENDBRANCH 57 61
ENDBRANCH 41 57
ENDBRANCH 40 44
ENDBRANCH 20 40
ENDBRANCH 19 23
ENDBRANCH 1 19
TORSDOF 14
ENDMDL
MODEL 59
REMARK VINA RESULT:      -0.2     18.949     23.515
ROOT
ATOM      1  C1  A00 X   1       8.336  10.951  22.8610  0.00  0.00     0.000 C
ATOM      2  C2  A00 X   1       7.786  10.321  21.5540  0.00  0.00     0.000 C
ATOM      3  C3  A00 X   1       7.154   8.897  21.6900  0.00  0.00     0.000 C
ATOM      4  C4  A00 X   1       7.478   8.145  23.0060  0.00  0.00     0.000 C
ATOM      5  C5  A00 X   1       8.752   8.667  23.6700  0.00  0.00     0.000 C
ATOM      6  O5  A00 X   1       8.463  10.047  23.9860  0.00  0.00     0.000 O
ATOM      7   O  A00 X   1       7.637   8.078  20.6270  0.00  0.00     0.000 O
ATOM      9  HD  A00 X   1       7.636   7.592  21.3430  0.00  0.00     0.000 HD
ATOM      9   O  A00 X   1       6.391   8.214  23.9280  0.00  0.00     0.000 O
ATOM     11  HD  A00 X   1       6.389   7.727  24.6450  0.00  0.00     0.000 HD
ENDROOT
BRANCH 2 11
ATOM     11   O  A00 X   1       6.800  11.222  21.0140  0.00  0.00     0.000 O
ATOM     12   O  A00 X   1       5.720  10.811  18.9090  0.00  0.00     0.000 OA
ATOM     13   O  A00 X   1       8.120  11.206  18.9590  0.00  0.00     0.000 OA
ATOM     14   O  A00 X   1       6.599  12.962  19.4690  0.00  0.00     0.000 OA
ATOM     15   S  A00 X   1       6.823  11.541  19.4790  0.00  0.00     0.000 S
ENDBRANCH 2 11
BRANCH 5 16
ATOM     16   C  A00 X   1      10.033   8.481  22.8500  0.00  0.00     0.000 C
ATOM     17   O  A00 X   1      11.043   9.048  23.2130  0.00  0.00     0.000 OA
ATOM     18   O  A00 X   1      10.075   7.784  21.8560  0.00  0.00     0.000 OA
ENDBRANCH 5 16
BRANCH 1 19
ATOM     19  O4  A00 X   2       9.554  11.707  22.6510  0.00  0.00     0.000 O
BRANCH 19 23
ATOM     20  C1  A00 X   2       8.529  14.733  25.5070  0.00  0.00     0.000 C
ATOM     21  C2  A00 X   2       8.257  15.039  24.0140  0.00  0.00     0.000 C
ATOM     22  C3  A00 X   2       8.262  13.741  23.1780  0.00  0.00     0.000 C
ATOM     23  C4  A00 X   2       9.573  12.955  23.4010  0.00  0.00     0.000 C
ATOM     24  C5  A00 X   2       9.738  12.731  24.9290  0.00  0.00     0.000 C
ATOM     25  O5  A00 X   2       9.793  14.023  25.5880  0.00  0.00     0.000 O
ATOM     26   O  A00 X   2       7.938  14.069  21.8160  0.00  0.00     0.000 O
ATOM     28  HD  A00 X   2       8.529  14.701  21.7750  0.00  0.00     0.000 HD
BRANCH 21 30
ATOM     28   N  A00 X   2       8.588  16.442  24.2800  0.00  0.00     0.000 N
ATOM     30  HD  A00 X   2       8.181  16.421  23.5150  0.00  0.00     0.000 HD
ATOM     30   O  A00 X   2       7.313  17.774  22.8440  0.00  0.00     0.000 OA
ATOM     31   S  A00 X   2       8.678  17.444  23.0610  0.00  0.00     0.000 S
ATOM     32   O  A00 X   2       9.485  18.514  23.5610  0.00  0.00     0.000 OA
ATOM     33   O  A00 X   2       9.357  16.762  22.0000  0.00  0.00     0.000 OA
ENDBRANCH 21 30
BRANCH 24 34
ATOM     34   C  A00 X   2      10.853  11.770  25.4050  0.00  0.00     0.000 C
ATOM     35   O  A00 X   2      13.654  12.774  27.5030  0.00  0.00     0.000 OA
ATOM     36   O  A00 X   2      11.991  12.498  25.9070  0.00  0.00     0.000 O
ATOM     37   O  A00 X   2      11.385  13.095  28.0860  0.00  0.00     0.000 OA
ATOM     38   S  A00 X   2      12.330  12.250  27.4230  0.00  0.00     0.000 S
ATOM     39   O  A00 X   2      12.222  10.838  27.6360  0.00  0.00     0.000 OA
ENDBRANCH 24 34
BRANCH 20 40
ATOM     40  O4  A00 X   3       7.464  13.868  25.9250  0.00  0.00     0.000 O
BRANCH 40 44
ATOM     41  C1  A00 X   3       6.426  10.928  27.7710  0.00  0.00     0.000 C
ATOM     42  C2  A00 X   3       5.480  11.834  26.9550  0.00  0.00     0.000 C
ATOM     43  C3  A00 X   3       5.668  13.324  27.3390  0.00  0.00     0.000 C
ATOM     44  C4  A00 X   3       7.114  13.804  27.3250  0.00  0.00     0.000 C
ATOM     45  C5  A00 X   3       8.001  12.847  28.1700  0.00  0.00     0.000 C
ATOM     46  O5  A00 X   3       7.783  11.452  27.7800  0.00  0.00     0.000 O
ATOM     47   O  A00 X   3       4.782  14.247  26.7090  0.00  0.00     0.000 O
ATOM     49  HD  A00 X   3       5.495  14.739  26.6810  0.00  0.00     0.000 HD
BRANCH 42 49
ATOM     49   O  A00 X   3       5.776  11.608  25.5590  0.00  0.00     0.000 O
ATOM     50   O  A00 X   3       5.024  12.486  23.4630  0.00  0.00     0.000 OA
ATOM     51   O  A00 X   3       3.432  12.054  25.1570  0.00  0.00     0.000 OA
ATOM     52   O  A00 X   3       4.522  10.220  24.1400  0.00  0.00     0.000 OA
ATOM     53   S  A00 X   3       4.631  11.590  24.5050  0.00  0.00     0.000 S
ENDBRANCH 42 49
BRANCH 45 54
ATOM     54   C  A00 X   3       7.824  13.088  29.6730  0.00  0.00     0.000 C
ATOM     55   O  A00 X   3       6.972  13.851  30.0810  0.00  0.00     0.000 OA
ATOM     56   O  A00 X   3       8.536  12.519  30.4860  0.00  0.00     0.000 OA
ENDBRANCH 45 54
BRANCH 41 57
ATOM     57  O4  A00 X   4       5.896  10.650  29.0860  0.00  0.00     0.000 O
BRANCH 57 61
ATOM     58  C1  A00 X   4       6.120   7.202  31.6750  0.00  0.00     0.000 C
ATOM     59  C2  A00 X   4       7.434   7.923  31.2860  0.00  0.00     0.000 C
ATOM     60  C3  A00 X   4       7.211   9.320  30.6720  0.00  0.00     0.000 C
ATOM     61  C4  A00 X   4       6.128   9.297  29.5720  0.00  0.00     0.000 C
ATOM     62  C5  A00 X   4       4.844   8.739  30.2360  0.00  0.00     0.000 C
ATOM     63  O5  A00 X   4       5.088   7.378  30.6770  0.00  0.00     0.000 O
BRANCH 59 66
ATOM     64   N  A00 X   4       8.156   7.155  30.2550  0.00  0.00     0.000 N
ATOM     66  HD  A00 X   4       7.686   6.660  29.7230  0.00  0.00     0.000 HD
ATOM     66   O  A00 X   4       9.018   5.774  32.0290  0.00  0.00     0.000 OA
ATOM     67   S  A00 X   4       9.369   6.220  30.7170  0.00  0.00     0.000 S
ATOM     68   O  A00 X   4       9.327   5.218  29.6930  0.00  0.00     0.000 OA
ATOM     69   O  A00 X   4      10.461   7.143  30.5930  0.00  0.00     0.000 OA
ENDBRANCH 59 66
BRANCH 62 70
ATOM     70   C  A00 X   4       3.603   8.740  29.3120  0.00  0.00     0.000 C
ATOM     71   O  A00 X   4       2.957   6.705  26.3890  0.00  0.00     0.000 OA
ATOM     72   O  A00 X   4       2.775   9.031  26.7100  0.00  0.00     0.000 OA
ATOM     73   O  A00 X   4       3.665   7.607  28.4320  0.00  0.00     0.000 O
ATOM     74   O  A00 X   4       4.977   8.019  26.4540  0.00  0.00     0.000 OA
ATOM     75   S  A00 X   4       3.625   7.874  26.8870  0.00  0.00     0.000 S
ENDBRANCH 62 70
ENDBRANCH 57 61
ENDBRANCH 41 57
ENDBRANCH 40 44
ENDBRANCH 20 40
ENDBRANCH 19 23
ENDBRANCH 1 19
TORSDOF 14
ENDMDL
MODEL 60
REMARK VINA RESULT:      -0.2     63.267     68.268
ROOT
ATOM      1  C1  A00 X   1      45.428  67.661  14.6990  0.00  0.00     0.000 C
ATOM      2  C2  A00 X   1      46.765  68.448  14.6780  0.00  0.00     0.000 C
ATOM      3  C3  A00 X   1      47.950  67.769  13.9140  0.00  0.00     0.000 C
ATOM      4  C4  A00 X   1      47.764  66.263  13.5960  0.00  0.00     0.000 C
ATOM      5  C5  A00 X   1      46.752  65.596  14.5270  0.00  0.00     0.000 C
ATOM      6  O5  A00 X   1      45.506  66.281  14.2650  0.00  0.00     0.000 O
ATOM      7   O  A00 X   1      49.127  67.872  14.7120  0.00  0.00     0.000 O
ATOM      9  HD  A00 X   1      49.119  67.076  14.3700  0.00  0.00     0.000 HD
ATOM      9   O  A00 X   1      47.375  66.061  12.2370  0.00  0.00     0.000 O
ATOM     11  HD  A00 X   1      47.367  65.266  11.8950  0.00  0.00     0.000 HD
ENDROOT
BRANCH 2 11
ATOM     11   O  A00 X   1      46.507  69.738  14.0910  0.00  0.00     0.000 O
ATOM     12   O  A00 X   1      48.208  71.425  13.9320  0.00  0.00     0.000 OA
ATOM     13   O  A00 X   1      47.459  70.694  16.1270  0.00  0.00     0.000 OA
ATOM     14   O  A00 X   1      46.006  71.933  14.7100  0.00  0.00     0.000 OA
ATOM     15   S  A00 X   1      47.111  71.015  14.7710  0.00  0.00     0.000 S
ENDBRANCH 2 11
BRANCH 5 16
ATOM     16   C  A00 X   1      47.145  65.583  16.0080  0.00  0.00     0.000 C
ATOM     17   O  A00 X   1      46.316  65.243  16.8260  0.00  0.00     0.000 OA
ATOM     18   O  A00 X   1      48.256  65.893  16.3900  0.00  0.00     0.000 OA
ENDBRANCH 5 16
BRANCH 1 19
ATOM     19  O4  A00 X   2      44.726  67.779  15.9610  0.00  0.00     0.000 O
BRANCH 19 23
ATOM     20  C1  A00 X   2      40.845  67.866  14.1470  0.00  0.00     0.000 C
ATOM     21  C2  A00 X   2      41.482  69.222  14.5370  0.00  0.00     0.000 C
ATOM     22  C3  A00 X   2      43.001  69.071  14.7610  0.00  0.00     0.000 C
ATOM     23  C4  A00 X   2      43.291  67.954  15.7890  0.00  0.00     0.000 C
ATOM     24  C5  A00 X   2      42.587  66.661  15.2950  0.00  0.00     0.000 C
ATOM     25  O5  A00 X   2      41.161  66.913  15.1960  0.00  0.00     0.000 O
ATOM     26   O  A00 X   2      43.555  70.366  15.0520  0.00  0.00     0.000 O
ATOM     28  HD  A00 X   2      42.966  70.535  15.6640  0.00  0.00     0.000 HD
BRANCH 21 30
ATOM     28   N  A00 X   2      40.137  69.715  14.8510  0.00  0.00     0.000 N
ATOM     30  HD  A00 X   2      40.653  70.409  14.7970  0.00  0.00     0.000 HD
ATOM     30   O  A00 X   2      40.082  72.009  14.4090  0.00  0.00     0.000 OA
ATOM     31   S  A00 X   2      39.989  71.137  15.5260  0.00  0.00     0.000 S
ATOM     32   O  A00 X   2      38.701  71.084  16.1460  0.00  0.00     0.000 OA
ATOM     33   O  A00 X   2      41.016  71.242  16.5200  0.00  0.00     0.000 OA
ENDBRANCH 21 30
BRANCH 24 34
ATOM     34   C  A00 X   2      42.910  65.335  16.0240  0.00  0.00     0.000 C
ATOM     35   O  A00 X   2      40.431  63.297  17.7440  0.00  0.00     0.000 OA
ATOM     36   O  A00 X   2      41.831  64.943  16.8960  0.00  0.00     0.000 O
ATOM     37   O  A00 X   2      40.268  63.940  15.4740  0.00  0.00     0.000 OA
ATOM     38   S  A00 X   2      41.147  63.572  16.5420  0.00  0.00     0.000 S
ATOM     39   O  A00 X   2      42.206  62.656  16.2440  0.00  0.00     0.000 OA
ENDBRANCH 24 34
BRANCH 20 40
ATOM     40  O4  A00 X   3      41.492  67.471  12.9280  0.00  0.00     0.000 O
BRANCH 40 44
ATOM     41  C1  A00 X   3      42.990  64.858  10.9150  0.00  0.00     0.000 C
ATOM     42  C2  A00 X   3      42.880  66.339  10.4940  0.00  0.00     0.000 C
ATOM     43  C3  A00 X   3      41.428  66.857  10.6610  0.00  0.00     0.000 C
ATOM     44  C4  A00 X   3      40.808  66.576  12.0240  0.00  0.00     0.000 C
ATOM     45  C5  A00 X   3      40.954  65.068  12.3740  0.00  0.00     0.000 C
ATOM     46  O5  A00 X   3      42.337  64.621  12.1930  0.00  0.00     0.000 O
ATOM     47   O  A00 X   3      41.188  68.192  10.2200  0.00  0.00     0.000 O
ATOM     49  HD  A00 X   3      40.689  68.216  10.9270  0.00  0.00     0.000 HD
BRANCH 42 49
ATOM     49   O  A00 X   3      43.804  67.083  11.3180  0.00  0.00     0.000 O
ATOM     50   O  A00 X   3      44.426  69.380  11.5830  0.00  0.00     0.000 OA
ATOM     51   O  A00 X   3      44.091  68.533   9.4010  0.00  0.00     0.000 OA
ATOM     52   O  A00 X   3      45.949  67.756  10.6380  0.00  0.00     0.000 OA
ATOM     53   S  A00 X   3      44.622  68.262  10.7140  0.00  0.00     0.000 S
ENDBRANCH 42 49
BRANCH 45 54
ATOM     54   C  A00 X   3      39.937  64.208  11.6150  0.00  0.00     0.000 C
ATOM     55   O  A00 X   3      39.270  64.684  10.7190  0.00  0.00     0.000 OA
ATOM     56   O  A00 X   3      39.778  63.031  11.8980  0.00  0.00     0.000 OA
ENDBRANCH 45 54
BRANCH 41 57
ATOM     57  O4  A00 X   4      42.558  63.969   9.8610  0.00  0.00     0.000 O
BRANCH 57 61
ATOM     58  C1  A00 X   4      43.787  60.006   8.6690  0.00  0.00     0.000 C
ATOM     59  C2  A00 X   4      43.186  60.202  10.0830  0.00  0.00     0.000 C
ATOM     60  C3  A00 X   4      42.463  61.553  10.2620  0.00  0.00     0.000 C
ATOM     61  C4  A00 X   4      43.316  62.731   9.7460  0.00  0.00     0.000 C
ATOM     62  C5  A00 X   4      43.625  62.428   8.2590  0.00  0.00     0.000 C
ATOM     63  O5  A00 X   4      44.412  61.212   8.1740  0.00  0.00     0.000 O
BRANCH 59 66
ATOM     64   N  A00 X   4      44.258  60.191  11.0940  0.00  0.00     0.000 N
ATOM     66  HD  A00 X   4      45.046  60.449  10.8440  0.00  0.00     0.000 HD
ATOM     66   O  A00 X   4      44.175  57.785  11.0110  0.00  0.00     0.000 OA
ATOM     67   S  A00 X   4      44.513  58.841  11.9140  0.00  0.00     0.000 S
ATOM     68   O  A00 X   4      45.909  58.977  12.2090  0.00  0.00     0.000 OA
ATOM     69   O  A00 X   4      43.649  59.062  13.0390  0.00  0.00     0.000 OA
ENDBRANCH 59 66
BRANCH 62 70
ATOM     70   C  A00 X   4      44.387  63.559   7.5280  0.00  0.00     0.000 C
ATOM     71   O  A00 X   4      47.794  64.677   8.0220  0.00  0.00     0.000 OA
ATOM     72   O  A00 X   4      45.782  65.894   7.9000  0.00  0.00     0.000 OA
ATOM     73   O  A00 X   4      45.781  63.489   7.8680  0.00  0.00     0.000 O
ATOM     74   O  A00 X   4      46.308  64.637   9.9200  0.00  0.00     0.000 OA
ATOM     75   S  A00 X   4      46.444  64.760   8.5050  0.00  0.00     0.000 S
ENDBRANCH 62 70
ENDBRANCH 57 61
ENDBRANCH 41 57
ENDBRANCH 40 44
ENDBRANCH 20 40
ENDBRANCH 19 23
ENDBRANCH 1 19
TORSDOF 14
ENDMDL
MODEL 61
REMARK VINA RESULT:      -0.2     37.888     42.540
ROOT
ATOM      1  C1  A00 X   1      28.068  34.318  29.1120  0.00  0.00     0.000 C
ATOM      2  C2  A00 X   1      29.124  33.787  28.1070  0.00  0.00     0.000 C
ATOM      3  C3  A00 X   1      28.947  34.241  26.6200  0.00  0.00     0.000 C
ATOM      4  C4  A00 X   1      27.564  34.845  26.2660  0.00  0.00     0.000 C
ATOM      5  C5  A00 X   1      26.473  34.403  27.2410  0.00  0.00     0.000 C
ATOM      6  O5  A00 X   1      26.892  34.926  28.5220  0.00  0.00     0.000 O
ATOM      7   O  A00 X   1      29.123  33.108  25.7720  0.00  0.00     0.000 O
ATOM      9  HD  A00 X   1      28.455  33.562  25.4570  0.00  0.00     0.000 HD
ATOM      9   O  A00 X   1      27.615  36.271  26.2140  0.00  0.00     0.000 O
ATOM     11  HD  A00 X   1      26.948  36.725  25.9000  0.00  0.00     0.000 HD
ENDROOT
BRANCH 2 11
ATOM     11   O  A00 X   1      30.422  34.204  28.5730  0.00  0.00     0.000 O
ATOM     12   O  A00 X   1      32.444  33.550  27.4550  0.00  0.00     0.000 OA
ATOM     13   O  A00 X   1      31.050  31.845  28.4890  0.00  0.00     0.000 OA
ATOM     14   O  A00 X   1      32.225  33.419  29.8310  0.00  0.00     0.000 OA
ATOM     15   S  A00 X   1      31.600  33.171  28.5600  0.00  0.00     0.000 S
ENDBRANCH 2 11
BRANCH 5 16
ATOM     16   C  A00 X   1      26.191  32.897  27.2570  0.00  0.00     0.000 C
ATOM     17   O  A00 X   1      25.479  32.449  28.1320  0.00  0.00     0.000 OA
ATOM     18   O  A00 X   1      26.647  32.139  26.4240  0.00  0.00     0.000 OA
ENDBRANCH 5 16
BRANCH 1 19
ATOM     19  O4  A00 X   2      27.708  33.339  30.1170  0.00  0.00     0.000 O
BRANCH 19 23
ATOM     20  C1  A00 X   2      27.369  36.238  33.2550  0.00  0.00     0.000 C
ATOM     21  C2  A00 X   2      28.689  35.434  33.1640  0.00  0.00     0.000 C
ATOM     22  C3  A00 X   2      28.836  34.774  31.7770  0.00  0.00     0.000 C
ATOM     23  C4  A00 X   2      27.590  33.921  31.4470  0.00  0.00     0.000 C
ATOM     24  C5  A00 X   2      26.340  34.831  31.5920  0.00  0.00     0.000 C
ATOM     25  O5  A00 X   2      26.278  35.327  32.9540  0.00  0.00     0.000 O
ATOM     26   O  A00 X   2      30.104  34.100  31.7190  0.00  0.00     0.000 O
ATOM     28  HD  A00 X   2      29.975  33.684  32.4680  0.00  0.00     0.000 HD
BRANCH 21 30
ATOM     28   N  A00 X   2      28.768  35.468  34.6270  0.00  0.00     0.000 N
ATOM     30  HD  A00 X   2      29.552  35.241  34.3390  0.00  0.00     0.000 HD
ATOM     30   O  A00 X   2      31.024  35.503  35.2340  0.00  0.00     0.000 OA
ATOM     31   S  A00 X   2      29.905  34.636  35.3450  0.00  0.00     0.000 S
ATOM     32   O  A00 X   2      29.407  34.460  36.6740  0.00  0.00     0.000 OA
ATOM     33   O  A00 X   2      29.992  33.373  34.6750  0.00  0.00     0.000 OA
ENDBRANCH 21 30
BRANCH 24 34
ATOM     34   C  A00 X   2      24.981  34.282  31.0950  0.00  0.00     0.000 C
ATOM     35   O  A00 X   2      23.354  31.323  32.4560  0.00  0.00     0.000 OA
ATOM     36   O  A00 X   2      24.762  32.934  31.5550  0.00  0.00     0.000 O
ATOM     37   O  A00 X   2      24.011  33.186  33.7560  0.00  0.00     0.000 OA
ATOM     38   S  A00 X   2      23.513  32.740  32.4910  0.00  0.00     0.000 S
ATOM     39   O  A00 X   2      22.443  33.486  31.8990  0.00  0.00     0.000 OA
ENDBRANCH 24 34
BRANCH 20 40
ATOM     40  O4  A00 X   3      27.454  37.240  32.2320  0.00  0.00     0.000 O
BRANCH 40 44
ATOM     41  C1  A00 X   3      25.804  39.017  29.5410  0.00  0.00     0.000 C
ATOM     42  C2  A00 X   3      27.273  39.231  29.9660  0.00  0.00     0.000 C
ATOM     43  C3  A00 X   3      27.379  39.469  31.4940  0.00  0.00     0.000 C
ATOM     44  C4  A00 X   3      26.654  38.437  32.3480  0.00  0.00     0.000 C
ATOM     45  C5  A00 X   3      25.185  38.282  31.8640  0.00  0.00     0.000 C
ATOM     46  O5  A00 X   3      25.132  38.070  30.4160  0.00  0.00     0.000 O
ATOM     47   O  A00 X   3      28.684  39.765  31.9890  0.00  0.00     0.000 O
ATOM     49  HD  A00 X   3      28.426  39.262  32.6450  0.00  0.00     0.000 HD
BRANCH 42 49
ATOM     49   O  A00 X   3      28.005  38.053  29.5630  0.00  0.00     0.000 O
ATOM     50   O  A00 X   3      30.256  37.261  29.7590  0.00  0.00     0.000 OA
ATOM     51   O  A00 X   3      29.889  39.537  29.2330  0.00  0.00     0.000 OA
ATOM     52   O  A00 X   3      29.321  37.902  27.6230  0.00  0.00     0.000 OA
ATOM     53   S  A00 X   3      29.456  38.180  29.0120  0.00  0.00     0.000 S
ENDBRANCH 42 49
BRANCH 45 54
ATOM     54   C  A00 X   3      24.307  39.447  32.3350  0.00  0.00     0.000 C
ATOM     55   O  A00 X   3      24.803  40.425  32.8550  0.00  0.00     0.000 OA
ATOM     56   O  A00 X   3      23.094  39.411  32.1970  0.00  0.00     0.000 OA
ENDBRANCH 45 54
BRANCH 41 57
ATOM     57  O4  A00 X   4      25.104  40.273  29.3870  0.00  0.00     0.000 O
BRANCH 57 61
ATOM     58  C1  A00 X   4      21.961  41.580  26.7320  0.00  0.00     0.000 C
ATOM     59  C2  A00 X   4      21.671  40.410  27.7050  0.00  0.00     0.000 C
ATOM     60  C3  A00 X   4      22.717  40.272  28.8300  0.00  0.00     0.000 C
ATOM     61  C4  A00 X   4      24.159  40.323  28.2810  0.00  0.00     0.000 C
ATOM     62  C5  A00 X   4      24.290  41.668  27.5240  0.00  0.00     0.000 C
ATOM     63  O5  A00 X   4      23.366  41.678  26.4060  0.00  0.00     0.000 O
BRANCH 59 66
ATOM     64   N  A00 X   4      21.708  39.135  26.9660  0.00  0.00     0.000 N
ATOM     66  HD  A00 X   4      22.205  39.098  26.2580  0.00  0.00     0.000 HD
ATOM     66   O  A00 X   4      19.439  39.578  26.2890  0.00  0.00     0.000 OA
ATOM     67   S  A00 X   4      20.319  38.476  26.5240  0.00  0.00     0.000 S
ATOM     68   O  A00 X   4      20.734  37.758  25.3550  0.00  0.00     0.000 OA
ATOM     69   O  A00 X   4      20.060  37.644  27.6650  0.00  0.00     0.000 OA
ENDBRANCH 59 66
BRANCH 62 70
ATOM     70   C  A00 X   4      25.713  41.955  26.9890  0.00  0.00     0.000 C
ATOM     71   O  A00 X   4      27.500  40.300  24.3100  0.00  0.00     0.000 OA
ATOM     72   O  A00 X   4      28.171  40.829  26.5040  0.00  0.00     0.000 OA
ATOM     73   O  A00 X   4      25.917  41.229  25.7660  0.00  0.00     0.000 O
ATOM     74   O  A00 X   4      26.650  38.962  26.1280  0.00  0.00     0.000 OA
ATOM     75   S  A00 X   4      27.129  40.236  25.6960  0.00  0.00     0.000 S
ENDBRANCH 62 70
ENDBRANCH 57 61
ENDBRANCH 41 57
ENDBRANCH 40 44
ENDBRANCH 20 40
ENDBRANCH 19 23
ENDBRANCH 1 19
TORSDOF 14
ENDMDL
MODEL 62
REMARK VINA RESULT:      -0.2     59.222     63.172
ROOT
ATOM      1  C1  A00 X   1      19.950  26.355  65.8580  0.00  0.00     0.000 C
ATOM      2  C2  A00 X   1      20.455  27.700  66.4440  0.00  0.00     0.000 C
ATOM      3  C3  A00 X   1      21.831  27.654  67.1860  0.00  0.00     0.000 C
ATOM      4  C4  A00 X   1      22.338  26.239  67.5650  0.00  0.00     0.000 C
ATOM      5  C5  A00 X   1      21.201  25.220  67.6450  0.00  0.00     0.000 C
ATOM      6  O5  A00 X   1      20.657  25.172  66.3070  0.00  0.00     0.000 O
ATOM      7   O  A00 X   1      21.718  28.384  68.4050  0.00  0.00     0.000 O
ATOM      9  HD  A00 X   1      22.177  27.669  68.5770  0.00  0.00     0.000 HD
ATOM      9   O  A00 X   1      23.334  25.779  66.6510  0.00  0.00     0.000 O
ATOM     11  HD  A00 X   1      23.793  25.065  66.8230  0.00  0.00     0.000 HD
ENDROOT
BRANCH 2 11
ATOM     11   O  A00 X   1      20.538  28.647  65.3600  0.00  0.00     0.000 O
ATOM     12   O  A00 X   1      21.037  30.966  65.7350  0.00  0.00     0.000 OA
ATOM     13   O  A00 X   1      18.983  30.029  66.6400  0.00  0.00     0.000 OA
ATOM     14   O  A00 X   1      19.259  30.282  64.2910  0.00  0.00     0.000 OA
ATOM     15   S  A00 X   1      19.919  30.074  65.5520  0.00  0.00     0.000 S
ENDBRANCH 2 11
BRANCH 5 16
ATOM     16   C  A00 X   1      20.152  25.504  68.7240  0.00  0.00     0.000 C
ATOM     17   O  A00 X   1      19.138  24.837  68.7390  0.00  0.00     0.000 OA
ATOM     18   O  A00 X   1      20.301  26.366  69.5680  0.00  0.00     0.000 OA
ENDBRANCH 5 16
BRANCH 1 19
ATOM     19  O4  A00 X   2      18.516  26.192  65.9810  0.00  0.00     0.000 O
BRANCH 19 23
ATOM     20  C1  A00 X   2      18.118  24.160  62.2290  0.00  0.00     0.000 C
ATOM     21  C2  A00 X   2      17.797  25.674  62.2590  0.00  0.00     0.000 C
ATOM     22  C3  A00 X   2      18.388  26.336  63.5210  0.00  0.00     0.000 C
ATOM     23  C4  A00 X   2      17.917  25.597  64.7940  0.00  0.00     0.000 C
ATOM     24  C5  A00 X   2      18.279  24.095  64.6320  0.00  0.00     0.000 C
ATOM     25  O5  A00 X   2      17.605  23.576  63.4560  0.00  0.00     0.000 O
ATOM     26   O  A00 X   2      18.123  27.748  63.4690  0.00  0.00     0.000 O
ATOM     28  HD  A00 X   2      17.281  27.635  63.3020  0.00  0.00     0.000 HD
BRANCH 21 30
ATOM     28   N  A00 X   2      16.757  25.434  61.2540  0.00  0.00     0.000 N
ATOM     30  HD  A00 X   2      16.903  26.287  61.2650  0.00  0.00     0.000 HD
ATOM     30   O  A00 X   2      16.590  27.338  59.9110  0.00  0.00     0.000 OA
ATOM     31   S  A00 X   2      15.800  26.627  60.8530  0.00  0.00     0.000 S
ATOM     32   O  A00 X   2      14.653  25.971  60.3060  0.00  0.00     0.000 OA
ATOM     33   O  A00 X   2      15.452  27.314  62.0600  0.00  0.00     0.000 OA
ENDBRANCH 21 30
BRANCH 24 34
ATOM     34   C  A00 X   2      18.121  23.174  65.8650  0.00  0.00     0.000 C
ATOM     35   O  A00 X   2      15.937  20.262  65.9720  0.00  0.00     0.000 OA
ATOM     36   O  A00 X   2      16.953  22.337  65.7470  0.00  0.00     0.000 O
ATOM     37   O  A00 X   2      17.630  20.586  64.3520  0.00  0.00     0.000 OA
ATOM     38   S  A00 X   2      17.236  20.791  65.7130  0.00  0.00     0.000 S
ATOM     39   O  A00 X   2      18.210  20.535  66.7310  0.00  0.00     0.000 OA
ENDBRANCH 24 34
BRANCH 20 40
ATOM     40  O4  A00 X   3      19.550  24.068  62.2160  0.00  0.00     0.000 O
BRANCH 40 44
ATOM     41  C1  A00 X   3      22.546  22.441  63.4430  0.00  0.00     0.000 C
ATOM     42  C2  A00 X   3      22.530  23.624  62.4510  0.00  0.00     0.000 C
ATOM     43  C3  A00 X   3      21.572  23.342  61.2650  0.00  0.00     0.000 C
ATOM     44  C4  A00 X   3      20.177  22.886  61.6730  0.00  0.00     0.000 C
ATOM     45  C5  A00 X   3      20.276  21.693  62.6650  0.00  0.00     0.000 C
ATOM     46  O5  A00 X   3      21.198  21.999  63.7610  0.00  0.00     0.000 O
ATOM     47   O  A00 X   3      21.542  24.332  60.2390  0.00  0.00     0.000 O
ATOM     49  HD  A00 X   3      20.695  24.151  60.2440  0.00  0.00     0.000 HD
BRANCH 42 49
ATOM     49   O  A00 X   3      22.121  24.794  63.1930  0.00  0.00     0.000 O
ATOM     50   O  A00 X   3      21.653  27.087  62.6930  0.00  0.00     0.000 OA
ATOM     51   O  A00 X   3      23.512  26.052  61.6630  0.00  0.00     0.000 OA
ATOM     52   O  A00 X   3      23.588  26.444  63.9920  0.00  0.00     0.000 OA
ATOM     53   S  A00 X   3      22.745  26.184  62.8770  0.00  0.00     0.000 S
ENDBRANCH 42 49
BRANCH 45 54
ATOM     54   C  A00 X   3      20.611  20.381  61.9440  0.00  0.00     0.000 C
ATOM     55   O  A00 X   3      20.656  19.333  62.5550  0.00  0.00     0.000 OA
ATOM     56   O  A00 X   3      20.839  20.368  60.7440  0.00  0.00     0.000 OA
ENDBRANCH 45 54
BRANCH 41 57
ATOM     57  O4  A00 X   4      23.421  21.382  62.9960  0.00  0.00     0.000 O
BRANCH 57 61
ATOM     58  C1  A00 X   4      25.926  18.556  65.0890  0.00  0.00     0.000 C
ATOM     59  C2  A00 X   4      24.395  18.506  65.3240  0.00  0.00     0.000 C
ATOM     60  C3  A00 X   4      23.586  19.297  64.2760  0.00  0.00     0.000 C
ATOM     61  C4  A00 X   4      24.167  20.710  64.0500  0.00  0.00     0.000 C
ATOM     62  C5  A00 X   4      25.642  20.511  63.6210  0.00  0.00     0.000 C
ATOM     63  O5  A00 X   4      26.372  19.875  64.7010  0.00  0.00     0.000 O
BRANCH 59 66
ATOM     64   N  A00 X   4      24.070  19.121  66.6240  0.00  0.00     0.000 N
ATOM     66  HD  A00 X   4      24.607  19.731  66.9240  0.00  0.00     0.000 HD
ATOM     66   O  A00 X   4      24.642  17.019  67.6490  0.00  0.00     0.000 OA
ATOM     67   S  A00 X   4      23.807  18.158  67.8730  0.00  0.00     0.000 S
ATOM     68   O  A00 X   4      24.210  19.015  68.9500  0.00  0.00     0.000 OA
ATOM     69   O  A00 X   4      22.387  17.980  67.7620  0.00  0.00     0.000 OA
ENDBRANCH 59 66
BRANCH 62 70
ATOM     70   C  A00 X   4      26.371  21.821  63.2390  0.00  0.00     0.000 C
ATOM     71   O  A00 X   4      27.389  24.551  65.3880  0.00  0.00     0.000 OA
ATOM     72   O  A00 X   4      26.213  24.561  63.3480  0.00  0.00     0.000 OA
ATOM     73   O  A00 X   4      26.794  22.496  64.4350  0.00  0.00     0.000 O
ATOM     74   O  A00 X   4      25.072  23.884  65.3920  0.00  0.00     0.000 OA
ATOM     75   S  A00 X   4      26.297  23.965  64.6630  0.00  0.00     0.000 S
ENDBRANCH 62 70
ENDBRANCH 57 61
ENDBRANCH 41 57
ENDBRANCH 40 44
ENDBRANCH 20 40
ENDBRANCH 19 23
ENDBRANCH 1 19
TORSDOF 14
ENDMDL
MODEL 63
REMARK VINA RESULT:      -0.2     60.590     64.842
ROOT
ATOM      1  C1  A00 X   1      36.835  39.514  56.9110  0.00  0.00     0.000 C
ATOM      2  C2  A00 X   1      38.336  39.689  57.2670  0.00  0.00     0.000 C
ATOM      3  C3  A00 X   1      38.862  38.834  58.4670  0.00  0.00     0.000 C
ATOM      4  C4  A00 X   1      37.769  38.210  59.3730  0.00  0.00     0.000 C
ATOM      5  C5  A00 X   1      36.441  38.960  59.2750  0.00  0.00     0.000 C
ATOM      6  O5  A00 X   1      36.037  38.811  57.8950  0.00  0.00     0.000 O
ATOM      7   O  A00 X   1      39.659  39.666  59.3070  0.00  0.00     0.000 O
ATOM      9  HD  A00 X   1      39.175  39.168  59.8250  0.00  0.00     0.000 HD
ATOM      9   O  A00 X   1      37.567  36.830  59.0720  0.00  0.00     0.000 O
ATOM     11  HD  A00 X   1      37.083  36.332  59.5910  0.00  0.00     0.000 HD
ENDROOT
BRANCH 2 11
ATOM     11   O  A00 X   1      39.105  39.371  56.0910  0.00  0.00     0.000 O
ATOM     12   O  A00 X   1      41.499  39.189  56.1500  0.00  0.00     0.000 OA
ATOM     13   O  A00 X   1      40.456  41.335  56.6200  0.00  0.00     0.000 OA
ATOM     14   O  A00 X   1      40.375  40.410  54.4300  0.00  0.00     0.000 OA
ATOM     15   S  A00 X   1      40.453  40.130  55.8380  0.00  0.00     0.000 S
ENDBRANCH 2 11
BRANCH 5 16
ATOM     16   C  A00 X   1      36.483  40.417  59.7470  0.00  0.00     0.000 C
ATOM     17   O  A00 X   1      35.541  41.138  59.4910  0.00  0.00     0.000 OA
ATOM     18   O  A00 X   1      37.418  40.872  60.3740  0.00  0.00     0.000 OA
ENDBRANCH 5 16
BRANCH 1 19
ATOM     19  O4  A00 X   2      36.206  40.756  56.5100  0.00  0.00     0.000 O
BRANCH 19 23
ATOM     20  C1  A00 X   2      33.908  38.934  53.3840  0.00  0.00     0.000 C
ATOM     21  C2  A00 X   2      35.227  39.638  52.9840  0.00  0.00     0.000 C
ATOM     22  C3  A00 X   2      36.132  39.851  54.2150  0.00  0.00     0.000 C
ATOM     23  C4  A00 X   2      35.366  40.600  55.3300  0.00  0.00     0.000 C
ATOM     24  C5  A00 X   2      34.063  39.808  55.6240  0.00  0.00     0.000 C
ATOM     25  O5  A00 X   2      33.272  39.742  54.4100  0.00  0.00     0.000 O
ATOM     26   O  A00 X   2      37.369  40.444  53.7820  0.00  0.00     0.000 O
ATOM     28  HD  A00 X   2      36.970  41.067  53.3310  0.00  0.00     0.000 HD
BRANCH 21 30
ATOM     28   N  A00 X   2      34.588  40.040  51.7270  0.00  0.00     0.000 N
ATOM     30  HD  A00 X   2      35.440  40.151  51.6210  0.00  0.00     0.000 HD
ATOM     30   O  A00 X   2      36.232  40.128  50.0700  0.00  0.00     0.000 OA
ATOM     31   S  A00 X   2      35.366  41.018  50.7590  0.00  0.00     0.000 S
ATOM     32   O  A00 X   2      34.331  41.594  49.9570  0.00  0.00     0.000 OA
ATOM     33   O  A00 X   2      35.980  42.021  51.5750  0.00  0.00     0.000 OA
ENDBRANCH 21 30
BRANCH 24 34
ATOM     34   C  A00 X   2      33.228  40.219  56.8600  0.00  0.00     0.000 C
ATOM     35   O  A00 X   2      31.877  43.558  57.3900  0.00  0.00     0.000 OA
ATOM     36   O  A00 X   2      33.136  41.653  56.9750  0.00  0.00     0.000 O
ATOM     37   O  A00 X   2      31.452  42.251  55.4650  0.00  0.00     0.000 OA
ATOM     38   S  A00 X   2      31.681  42.242  56.8780  0.00  0.00     0.000 S
ATOM     39   O  A00 X   2      30.848  41.396  57.6790  0.00  0.00     0.000 OA
ENDBRANCH 24 34
BRANCH 20 40
ATOM     40  O4  A00 X   3      34.297  37.670  53.9410  0.00  0.00     0.000 O
BRANCH 40 44
ATOM     41  C1  A00 X   3      33.881  35.198  56.5570  0.00  0.00     0.000 C
ATOM     42  C2  A00 X   3      34.894  35.090  55.3960  0.00  0.00     0.000 C
ATOM     43  C3  A00 X   3      34.199  35.325  54.0300  0.00  0.00     0.000 C
ATOM     44  C4  A00 X   3      33.346  36.585  53.9620  0.00  0.00     0.000 C
ATOM     45  C5  A00 X   3      32.352  36.619  55.1570  0.00  0.00     0.000 C
ATOM     46  O5  A00 X   3      33.048  36.383  56.4230  0.00  0.00     0.000 O
ATOM     47   O  A00 X   3      35.022  35.162  52.8760  0.00  0.00     0.000 O
ATOM     49  HD  A00 X   3      34.572  35.847  52.5970  0.00  0.00     0.000 HD
BRANCH 42 49
ATOM     49   O  A00 X   3      35.924  36.072  55.6400  0.00  0.00     0.000 O
ATOM     50   O  A00 X   3      37.910  36.813  54.5270  0.00  0.00     0.000 OA
ATOM     51   O  A00 X   3      37.443  34.496  54.6050  0.00  0.00     0.000 OA
ATOM     52   O  A00 X   3      38.007  35.601  56.6170  0.00  0.00     0.000 OA
ATOM     53   S  A00 X   3      37.414  35.741  55.3320  0.00  0.00     0.000 S
ENDBRANCH 42 49
BRANCH 45 54
ATOM     54   C  A00 X   3      31.165  35.674  54.9350  0.00  0.00     0.000 C
ATOM     55   O  A00 X   3      30.196  35.715  55.6650  0.00  0.00     0.000 OA
ATOM     56   O  A00 X   3      31.174  34.862  54.0220  0.00  0.00     0.000 OA
ENDBRANCH 45 54
BRANCH 41 57
ATOM     57  O4  A00 X   4      33.136  33.972  56.7310  0.00  0.00     0.000 O
BRANCH 57 61
ATOM     58  C1  A00 X   4      31.498  32.000  60.2050  0.00  0.00     0.000 C
ATOM     59  C2  A00 X   4      30.983  33.416  59.8450  0.00  0.00     0.000 C
ATOM     60  C3  A00 X   4      31.359  33.862  58.4170  0.00  0.00     0.000 C
ATOM     61  C4  A00 X   4      32.852  33.613  58.1140  0.00  0.00     0.000 C
ATOM     62  C5  A00 X   4      33.096  32.100  58.3350  0.00  0.00     0.000 C
ATOM     63  O5  A00 X   4      32.843  31.774  59.7260  0.00  0.00     0.000 O
BRANCH 59 66
ATOM     64   N  A00 X   4      31.591  34.411  60.7460  0.00  0.00     0.000 N
ATOM     66  HD  A00 X   4      32.368  34.226  61.0800  0.00  0.00     0.000 HD
ATOM     66   O  A00 X   4      29.901  33.834  62.3610  0.00  0.00     0.000 OA
ATOM     67   S  A00 X   4      30.728  34.938  61.9850  0.00  0.00     0.000 S
ATOM     68   O  A00 X   4      31.776  35.266  62.9080  0.00  0.00     0.000 OA
ATOM     69   O  A00 X   4      30.094  36.077  61.3860  0.00  0.00     0.000 OA
ENDBRANCH 59 66
BRANCH 62 70
ATOM     70   C  A00 X   4      34.524  31.629  57.9710  0.00  0.00     0.000 C
ATOM     71   O  A00 X   4      37.641  32.345  59.6690  0.00  0.00     0.000 OA
ATOM     72   O  A00 X   4      37.065  32.497  57.3910  0.00  0.00     0.000 OA
ATOM     73   O  A00 X   4      35.417  31.942  59.0530  0.00  0.00     0.000 O
ATOM     74   O  A00 X   4      36.270  34.193  58.9490  0.00  0.00     0.000 OA
ATOM     75   S  A00 X   4      36.665  32.838  58.7380  0.00  0.00     0.000 S
ENDBRANCH 62 70
ENDBRANCH 57 61
ENDBRANCH 41 57
ENDBRANCH 40 44
ENDBRANCH 20 40
ENDBRANCH 19 23
ENDBRANCH 1 19
TORSDOF 14
ENDMDL
MODEL 64
REMARK VINA RESULT:      -0.2     68.869     73.233
ROOT
ATOM      1  C1  A00 X   1      40.991  47.463  57.9160  0.00  0.00     0.000 C
ATOM      2  C2  A00 X   1      41.736  46.512  56.9420  0.00  0.00     0.000 C
ATOM      3  C3  A00 X   1      41.332  45.002  57.0140  0.00  0.00     0.000 C
ATOM      4  C4  A00 X   1      40.528  44.584  58.2710  0.00  0.00     0.000 C
ATOM      5  C5  A00 X   1      40.739  45.548  59.4380  0.00  0.00     0.000 C
ATOM      6  O5  A00 X   1      40.229  46.815  58.9640  0.00  0.00     0.000 O
ATOM      7   O  A00 X   1      42.519  44.211  57.0100  0.00  0.00     0.000 O
ATOM      9  HD  A00 X   1      41.978  43.858  57.5870  0.00  0.00     0.000 HD
ATOM      9   O  A00 X   1      39.134  44.469  57.9860  0.00  0.00     0.000 O
ATOM     11  HD  A00 X   1      38.594  44.116  58.5630  0.00  0.00     0.000 HD
ENDROOT
BRANCH 2 11
ATOM     11   O  A00 X   1      41.513  46.994  55.6030  0.00  0.00     0.000 O
ATOM     12   O  A00 X   1      42.171  45.727  53.6720  0.00  0.00     0.000 OA
ATOM     13   O  A00 X   1      43.879  46.538  55.2020  0.00  0.00     0.000 OA
ATOM     14   O  A00 X   1      42.641  48.063  53.8600  0.00  0.00     0.000 OA
ATOM     15   S  A00 X   1      42.635  46.789  54.5280  0.00  0.00     0.000 S
ENDBRANCH 2 11
BRANCH 5 16
ATOM     16   C  A00 X   1      42.176  45.624  59.9650  0.00  0.00     0.000 C
ATOM     17   O  A00 X   1      42.462  46.507  60.7470  0.00  0.00     0.000 OA
ATOM     18   O  A00 X   1      43.034  44.831  59.6340  0.00  0.00     0.000 OA
ENDBRANCH 5 16
BRANCH 1 19
ATOM     19  O4  A00 X   2      41.848  48.501  58.4520  0.00  0.00     0.000 O
BRANCH 19 23
ATOM     20  C1  A00 X   2      38.849  51.548  58.1520  0.00  0.00     0.000 C
ATOM     21  C2  A00 X   2      39.912  51.479  57.0290  0.00  0.00     0.000 C
ATOM     22  C3  A00 X   2      40.630  50.113  57.0360  0.00  0.00     0.000 C
ATOM     23  C4  A00 X   2      41.214  49.813  58.4340  0.00  0.00     0.000 C
ATOM     24  C5  A00 X   2      40.060  49.932  59.4670  0.00  0.00     0.000 C
ATOM     25  O5  A00 X   2      39.521  51.278  59.4110  0.00  0.00     0.000 O
ATOM     26   O  A00 X   2      41.555  50.073  55.9360  0.00  0.00     0.000 O
ATOM     28  HD  A00 X   2      41.911  50.835  56.1420  0.00  0.00     0.000 HD
BRANCH 21 30
ATOM     28   N  A00 X   2      39.851  52.941  56.9320  0.00  0.00     0.000 N
ATOM     30  HD  A00 X   2      40.245  52.658  56.2150  0.00  0.00     0.000 HD
ATOM     30   O  A00 X   2      40.268  53.541  54.7130  0.00  0.00     0.000 OA
ATOM     31   S  A00 X   2      40.879  53.682  55.9880  0.00  0.00     0.000 S
ATOM     32   O  A00 X   2      40.907  55.017  56.5000  0.00  0.00     0.000 OA
ATOM     33   O  A00 X   2      42.152  53.052  56.1710  0.00  0.00     0.000 OA
ENDBRANCH 21 30
BRANCH 24 34
ATOM     34   C  A00 X   2      40.328  49.455  60.9130  0.00  0.00     0.000 C
ATOM     35   O  A00 X   2      42.949  50.802  63.0530  0.00  0.00     0.000 OA
ATOM     36   O  A00 X   2      41.619  49.898  61.3790  0.00  0.00     0.000 O
ATOM     37   O  A00 X   2      41.273  52.119  62.0280  0.00  0.00     0.000 OA
ATOM     38   S  A00 X   2      41.590  50.857  62.6250  0.00  0.00     0.000 S
ATOM     39   O  A00 X   2      40.641  50.300  63.5420  0.00  0.00     0.000 OA
ENDBRANCH 24 34
BRANCH 20 40
ATOM     40  O4  A00 X   3      37.917  50.494  57.8700  0.00  0.00     0.000 O
BRANCH 40 44
ATOM     41  C1  A00 X   3      35.945  47.722  59.1160  0.00  0.00     0.000 C
ATOM     42  C2  A00 X   3      36.004  48.167  57.6390  0.00  0.00     0.000 C
ATOM     43  C3  A00 X   3      35.740  49.689  57.5060  0.00  0.00     0.000 C
ATOM     44  C4  A00 X   3      36.586  50.561  58.4250  0.00  0.00     0.000 C
ATOM     45  C5  A00 X   3      36.471  50.055  59.8910  0.00  0.00     0.000 C
ATOM     46  O5  A00 X   3      36.717  48.614  59.9680  0.00  0.00     0.000 O
ATOM     47   O  A00 X   3      35.684  50.197  56.1740  0.00  0.00     0.000 O
ATOM     49  HD  A00 X   3      36.107  50.864  56.5310  0.00  0.00     0.000 HD
BRANCH 42 49
ATOM     49   O  A00 X   3      37.313  47.812  57.1420  0.00  0.00     0.000 O
ATOM     50   O  A00 X   3      38.515  48.070  55.0880  0.00  0.00     0.000 OA
ATOM     51   O  A00 X   3      36.229  47.470  55.0050  0.00  0.00     0.000 OA
ATOM     52   O  A00 X   3      37.777  45.901  55.8590  0.00  0.00     0.000 OA
ATOM     53   S  A00 X   3      37.485  47.282  55.6880  0.00  0.00     0.000 S
ENDBRANCH 42 49
BRANCH 45 54
ATOM     54   C  A00 X   3      35.145  50.476  60.5350  0.00  0.00     0.000 C
ATOM     55   O  A00 X   3      34.930  50.257  61.7090  0.00  0.00     0.000 OA
ATOM     56   O  A00 X   3      34.281  51.037  59.8780  0.00  0.00     0.000 OA
ENDBRANCH 45 54
BRANCH 41 57
ATOM     57  O4  A00 X   4      34.584  47.520  59.5590  0.00  0.00     0.000 O
BRANCH 57 61
ATOM     58  C1  A00 X   4      32.777  44.753  62.3380  0.00  0.00     0.000 C
ATOM     59  C2  A00 X   4      33.823  45.763  62.8720  0.00  0.00     0.000 C
ATOM     60  C3  A00 X   4      34.124  46.914  61.8900  0.00  0.00     0.000 C
ATOM     61  C4  A00 X   4      34.389  46.393  60.4610  0.00  0.00     0.000 C
ATOM     62  C5  A00 X   4      33.131  45.589  60.0500  0.00  0.00     0.000 C
ATOM     63  O5  A00 X   4      32.979  44.453  60.9380  0.00  0.00     0.000 O
BRANCH 59 66
ATOM     64   N  A00 X   4      35.129  45.122  63.1120  0.00  0.00     0.000 N
ATOM     66  HD  A00 X   4      35.334  44.437  62.6240  0.00  0.00     0.000 HD
ATOM     66   O  A00 X   4      34.243  44.334  65.2080  0.00  0.00     0.000 OA
ATOM     67   S  A00 X   4      35.492  44.681  64.6060  0.00  0.00     0.000 S
ATOM     68   O  A00 X   4      36.377  43.584  64.3430  0.00  0.00     0.000 OA
ATOM     69   O  A00 X   4      36.151  45.870  65.0680  0.00  0.00     0.000 OA
ENDBRANCH 59 66
BRANCH 62 70
ATOM     70   C  A00 X   4      33.159  45.073  58.5910  0.00  0.00     0.000 C
ATOM     71   O  A00 X   4      35.252  42.498  57.1440  0.00  0.00     0.000 OA
ATOM     72   O  A00 X   4      34.778  44.683  56.4070  0.00  0.00     0.000 OA
ATOM     73   O  A00 X   4      33.963  43.884  58.5240  0.00  0.00     0.000 O
ATOM     74   O  A00 X   4      36.313  44.348  58.2700  0.00  0.00     0.000 OA
ATOM     75   S  A00 X   4      35.182  43.877  57.5380  0.00  0.00     0.000 S
ENDBRANCH 62 70
ENDBRANCH 57 61
ENDBRANCH 41 57
ENDBRANCH 40 44
ENDBRANCH 20 40
ENDBRANCH 19 23
ENDBRANCH 1 19
TORSDOF 14
ENDMDL
MODEL 65
REMARK VINA RESULT:      -0.2     45.288     49.340
ROOT
ATOM      1  C1  A00 X   1      38.899  15.664  48.3710  0.00  0.00     0.000 C
ATOM      2  C2  A00 X   1      40.436  15.478  48.2630  0.00  0.00     0.000 C
ATOM      3  C3  A00 X   1      40.935  14.526  47.1270  0.00  0.00     0.000 C
ATOM      4  C4  A00 X   1      39.852  13.612  46.4970  0.00  0.00     0.000 C
ATOM      5  C5  A00 X   1      38.658  13.406  47.4280  0.00  0.00     0.000 C
ATOM      6  O5  A00 X   1      38.100  14.726  47.6080  0.00  0.00     0.000 O
ATOM      7   O  A00 X   1      41.935  13.661  47.6610  0.00  0.00     0.000 O
ATOM      9  HD  A00 X   1      41.431  13.182  47.1440  0.00  0.00     0.000 HD
ATOM      9   O  A00 X   1      39.403  14.124  45.2420  0.00  0.00     0.000 O
ATOM     11  HD  A00 X   1      38.899  13.644  44.7260  0.00  0.00     0.000 HD
ENDROOT
BRANCH 2 11
ATOM     11   O  A00 X   1      41.023  16.781  48.0760  0.00  0.00     0.000 O
ATOM     12   O  A00 X   1      43.401  17.099  47.9740  0.00  0.00     0.000 OA
ATOM     13   O  A00 X   1      42.396  16.284  50.0330  0.00  0.00     0.000 OA
ATOM     14   O  A00 X   1      42.001  18.512  49.3000  0.00  0.00     0.000 OA
ATOM     15   S  A00 X   1      42.300  17.163  48.9010  0.00  0.00     0.000 S
ENDBRANCH 2 11
BRANCH 5 16
ATOM     16   C  A00 X   1      38.980  12.692  48.7450  0.00  0.00     0.000 C
ATOM     17   O  A00 X   1      38.136  12.672  49.6170  0.00  0.00     0.000 OA
ATOM     18   O  A00 X   1      40.044  12.140  48.9450  0.00  0.00     0.000 OA
ENDBRANCH 5 16
BRANCH 1 19
ATOM     19  O4  A00 X   2      38.440  15.756  49.7420  0.00  0.00     0.000 O
BRANCH 19 23
ATOM     20  C1  A00 X   2      35.409  18.654  48.8580  0.00  0.00     0.000 C
ATOM     21  C2  A00 X   2      36.758  19.176  49.4090  0.00  0.00     0.000 C
ATOM     22  C3  A00 X   2      37.861  18.107  49.2660  0.00  0.00     0.000 C
ATOM     23  C4  A00 X   2      37.419  16.779  49.9220  0.00  0.00     0.000 C
ATOM     24  C5  A00 X   2      36.053  16.375  49.3010  0.00  0.00     0.000 C
ATOM     25  O5  A00 X   2      35.090  17.427  49.5660  0.00  0.00     0.000 O
ATOM     26   O  A00 X   2      39.105  18.662  49.7270  0.00  0.00     0.000 O
ATOM     28  HD  A00 X   2      38.762  18.942  50.4710  0.00  0.00     0.000 HD
BRANCH 21 30
ATOM     28   N  A00 X   2      36.020  20.229  50.1140  0.00  0.00     0.000 N
ATOM     30  HD  A00 X   2      36.853  20.467  50.1080  0.00  0.00     0.000 HD
ATOM     30   O  A00 X   2      37.386  22.121  50.2300  0.00  0.00     0.000 OA
ATOM     31   S  A00 X   2      36.808  21.170  51.1110  0.00  0.00     0.000 S
ATOM     32   O  A00 X   2      35.786  21.684  51.9700  0.00  0.00     0.000 OA
ATOM     33   O  A00 X   2      37.709  20.339  51.8530  0.00  0.00     0.000 OA
ENDBRANCH 21 30
BRANCH 24 34
ATOM     34   C  A00 X   2      35.501  14.965  49.6180  0.00  0.00     0.000 C
ATOM     35   O  A00 X   2      34.827  13.747  52.9820  0.00  0.00     0.000 OA
ATOM     36   O  A00 X   2      35.669  14.639  51.0120  0.00  0.00     0.000 O
ATOM     37   O  A00 X   2      33.896  15.726  52.0820  0.00  0.00     0.000 OA
ATOM     38   S  A00 X   2      34.336  14.392  51.8090  0.00  0.00     0.000 S
ATOM     39   O  A00 X   2      33.508  13.579  50.9700  0.00  0.00     0.000 OA
ENDBRANCH 24 34
BRANCH 20 40
ATOM     40  O4  A00 X   3      35.643  18.362  47.4730  0.00  0.00     0.000 O
BRANCH 40 44
ATOM     41  C1  A00 X   3      35.168  16.107  44.6780  0.00  0.00     0.000 C
ATOM     42  C2  A00 X   3      35.973  17.423  44.6200  0.00  0.00     0.000 C
ATOM     43  C3  A00 X   3      35.147  18.605  45.1890  0.00  0.00     0.000 C
ATOM     44  C4  A00 X   3      34.528  18.344  46.5560  0.00  0.00     0.000 C
ATOM     45  C5  A00 X   3      33.732  17.008  46.5340  0.00  0.00     0.000 C
ATOM     46  O5  A00 X   3      34.545  15.924  45.9800  0.00  0.00     0.000 O
ATOM     47   O  A00 X   3      35.760  19.890  45.1060  0.00  0.00     0.000 O
ATOM     49  HD  A00 X   3      35.402  19.986  45.8890  0.00  0.00     0.000 HD
BRANCH 42 49
ATOM     49   O  A00 X   3      37.184  17.211  45.3770  0.00  0.00     0.000 O
ATOM     50   O  A00 X   3      39.074  18.530  46.0270  0.00  0.00     0.000 OA
ATOM     51   O  A00 X   3      38.227  18.753  43.8310  0.00  0.00     0.000 OA
ATOM     52   O  A00 X   3      39.278  16.723  44.4320  0.00  0.00     0.000 OA
ATOM     53   S  A00 X   3      38.528  17.837  44.9020  0.00  0.00     0.000 S
ENDBRANCH 42 49
BRANCH 45 54
ATOM     54   C  A00 X   3      32.378  17.166  45.8310  0.00  0.00     0.000 C
ATOM     55   O  A00 X   3      31.555  16.275  45.8670  0.00  0.00     0.000 OA
ATOM     56   O  A00 X   3      32.105  18.189  45.2230  0.00  0.00     0.000 OA
ENDBRANCH 45 54
BRANCH 41 57
ATOM     57  O4  A00 X   4      34.250  15.993  43.5670  0.00  0.00     0.000 O
BRANCH 57 61
ATOM     58  C1  A00 X   4      32.794  12.626  41.2900  0.00  0.00     0.000 C
ATOM     59  C2  A00 X   4      32.486  12.684  42.8070  0.00  0.00     0.000 C
ATOM     60  C3  A00 X   4      32.732  14.072  43.4320  0.00  0.00     0.000 C
ATOM     61  C4  A00 X   4      34.103  14.651  43.0220  0.00  0.00     0.000 C
ATOM     62  C5  A00 X   4      34.111  14.698  41.4730  0.00  0.00     0.000 C
ATOM     63  O5  A00 X   4      34.001  13.348  40.9550  0.00  0.00     0.000 O
BRANCH 59 66
ATOM     64   N  A00 X   4      33.379  11.758  43.5280  0.00  0.00     0.000 N
ATOM     66  HD  A00 X   4      34.149  11.587  43.1710  0.00  0.00     0.000 HD
ATOM     66   O  A00 X   4      31.852   9.990  42.9420  0.00  0.00     0.000 OA
ATOM     67   S  A00 X   4      32.801  10.329  43.9560  0.00  0.00     0.000 S
ATOM     68   O  A00 X   4      34.007   9.553  43.9560  0.00  0.00     0.000 OA
ATOM     69   O  A00 X   4      32.301  10.640  45.2650  0.00  0.00     0.000 OA
ENDBRANCH 59 66
BRANCH 62 70
ATOM     70   C  A00 X   4      35.373  15.357  40.8670  0.00  0.00     0.000 C
ATOM     71   O  A00 X   4      38.778  14.127  40.8470  0.00  0.00     0.000 OA
ATOM     72   O  A00 X   4      37.911  16.234  41.4420  0.00  0.00     0.000 OA
ATOM     73   O  A00 X   4      36.452  14.409  40.8720  0.00  0.00     0.000 O
ATOM     74   O  A00 X   4      37.645  14.349  42.9640  0.00  0.00     0.000 OA
ATOM     75   S  A00 X   4      37.773  14.805  41.6170  0.00  0.00     0.000 S
ENDBRANCH 62 70
ENDBRANCH 57 61
ENDBRANCH 41 57
ENDBRANCH 40 44
ENDBRANCH 20 40
ENDBRANCH 19 23
ENDBRANCH 1 19
TORSDOF 14
ENDMDL
MODEL 66
REMARK VINA RESULT:      -0.2     43.290     47.248
ROOT
ATOM      1  C1  A00 X   1      23.290  36.149  35.1970  0.00  0.00     0.000 C
ATOM      2  C2  A00 X   1      22.664  34.734  35.3160  0.00  0.00     0.000 C
ATOM      3  C3  A00 X   1      23.145  33.868  36.5270  0.00  0.00     0.000 C
ATOM      4  C4  A00 X   1      24.432  34.366  37.2350  0.00  0.00     0.000 C
ATOM      5  C5  A00 X   1      25.283  35.254  36.3280  0.00  0.00     0.000 C
ATOM      6  O5  A00 X   1      24.444  36.395  36.0390  0.00  0.00     0.000 O
ATOM      7   O  A00 X   1      23.422  32.548  36.0650  0.00  0.00     0.000 O
ATOM      9  HD  A00 X   1      24.051  32.761  36.6210  0.00  0.00     0.000 HD
ATOM      9   O  A00 X   1      24.127  35.062  38.4430  0.00  0.00     0.000 O
ATOM     11  HD  A00 X   1      24.755  35.275  38.9990  0.00  0.00     0.000 HD
ENDROOT
BRANCH 2 11
ATOM     11   O  A00 X   1      21.234  34.892  35.3910  0.00  0.00     0.000 O
ATOM     12   O  A00 X   1      19.748  33.006  35.4390  0.00  0.00     0.000 OA
ATOM     13   O  A00 X   1      21.112  33.397  33.4630  0.00  0.00     0.000 OA
ATOM     14   O  A00 X   1      19.344  34.887  34.0200  0.00  0.00     0.000 OA
ATOM     15   S  A00 X   1      20.321  33.960  34.5230  0.00  0.00     0.000 S
ENDBRANCH 2 11
BRANCH 5 16
ATOM     16   C  A00 X   1      25.831  34.564  35.0740  0.00  0.00     0.000 C
ATOM     17   O  A00 X   1      26.350  35.246  34.2150  0.00  0.00     0.000 OA
ATOM     18   O  A00 X   1      25.771  33.361  34.9140  0.00  0.00     0.000 OA
ENDBRANCH 5 16
BRANCH 1 19
ATOM     19  O4  A00 X   2      23.546  36.536  33.8250  0.00  0.00     0.000 O
BRANCH 19 23
ATOM     20  C1  A00 X   2      22.504  40.643  34.4710  0.00  0.00     0.000 C
ATOM     21  C2  A00 X   2      21.424  39.720  33.8550  0.00  0.00     0.000 C
ATOM     22  C3  A00 X   2      21.775  38.235  34.0840  0.00  0.00     0.000 C
ATOM     23  C4  A00 X   2      23.197  37.926  33.5630  0.00  0.00     0.000 C
ATOM     24  C5  A00 X   2      24.177  38.924  34.2370  0.00  0.00     0.000 C
ATOM     25  O5  A00 X   2      23.782  40.276  33.8860  0.00  0.00     0.000 O
ATOM     26   O  A00 X   2      20.712  37.423  33.5570  0.00  0.00     0.000 O
ATOM     28  HD  A00 X   2      20.710  37.833  32.7930  0.00  0.00     0.000 HD
BRANCH 21 30
ATOM     28   N  A00 X   2      20.953  40.862  33.0660  0.00  0.00     0.000 N
ATOM     30  HD  A00 X   2      20.329  40.262  33.0360  0.00  0.00     0.000 HD
ATOM     30   O  A00 X   2      18.650  40.628  32.7510  0.00  0.00     0.000 OA
ATOM     31   S  A00 X   2      19.838  40.620  31.9720  0.00  0.00     0.000 S
ATOM     32   O  A00 X   2      19.986  41.732  31.0850  0.00  0.00     0.000 OA
ATOM     33   O  A00 X   2      20.163  39.398  31.2990  0.00  0.00     0.000 OA
ENDBRANCH 21 30
BRANCH 24 34
ATOM     34   C  A00 X   2      25.695  38.681  34.0620  0.00  0.00     0.000 C
ATOM     35   O  A00 X   2      27.954  41.001  32.3980  0.00  0.00     0.000 OA
ATOM     36   O  A00 X   2      26.256  39.572  33.0780  0.00  0.00     0.000 O
ATOM     37   O  A00 X   2      26.571  41.585  34.2250  0.00  0.00     0.000 OA
ATOM     38   S  A00 X   2      27.358  40.558  33.6150  0.00  0.00     0.000 S
ATOM     39   O  A00 X   2      28.214  39.785  34.4640  0.00  0.00     0.000 OA
ENDBRANCH 24 34
BRANCH 20 40
ATOM     40  O4  A00 X   3      22.515  40.344  35.8750  0.00  0.00     0.000 O
BRANCH 40 44
ATOM     41  C1  A00 X   3      24.440  39.737  38.8830  0.00  0.00     0.000 C
ATOM     42  C2  A00 X   3      22.899  39.695  38.8010  0.00  0.00     0.000 C
ATOM     43  C3  A00 X   3      22.343  40.977  38.1300  0.00  0.00     0.000 C
ATOM     44  C4  A00 X   3      23.002  41.335  36.8040  0.00  0.00     0.000 C
ATOM     45  C5  A00 X   3      24.548  41.363  36.9690  0.00  0.00     0.000 C
ATOM     46  O5  A00 X   3      25.027  40.139  37.6140  0.00  0.00     0.000 O
ATOM     47   O  A00 X   3      20.922  41.088  38.0780  0.00  0.00     0.000 O
ATOM     49  HD  A00 X   3      21.089  41.417  37.2950  0.00  0.00     0.000 HD
BRANCH 42 49
ATOM     49   O  A00 X   3      22.547  38.512  38.0500  0.00  0.00     0.000 O
ATOM     50   O  A00 X   3      20.528  37.495  37.2640  0.00  0.00     0.000 OA
ATOM     51   O  A00 X   3      20.570  38.414  39.4420  0.00  0.00     0.000 OA
ATOM     52   O  A00 X   3      21.860  36.482  39.0090  0.00  0.00     0.000 OA
ATOM     53   S  A00 X   3      21.304  37.666  38.4520  0.00  0.00     0.000 S
ENDBRANCH 42 49
BRANCH 45 54
ATOM     54   C  A00 X   3      25.021  42.641  37.6720  0.00  0.00     0.000 C
ATOM     55   O  A00 X   3      24.221  43.406  38.1680  0.00  0.00     0.000 OA
ATOM     56   O  A00 X   3      26.210  42.911  37.7430  0.00  0.00     0.000 OA
ENDBRANCH 45 54
BRANCH 41 57
ATOM     57  O4  A00 X   4      24.893  40.517  40.0130  0.00  0.00     0.000 O
BRANCH 57 61
ATOM     58  C1  A00 X   4      28.298  40.173  42.6450  0.00  0.00     0.000 C
ATOM     59  C2  A00 X   4      28.549  40.405  41.1340  0.00  0.00     0.000 C
ATOM     60  C3  A00 X   4      27.294  40.866  40.3650  0.00  0.00     0.000 C
ATOM     61  C4  A00 X   4      26.066  39.991  40.6960  0.00  0.00     0.000 C
ATOM     62  C5  A00 X   4      25.873  40.072  42.2310  0.00  0.00     0.000 C
ATOM     63  O5  A00 X   4      27.037  39.509  42.8880  0.00  0.00     0.000 O
BRANCH 59 66
ATOM     64   N  A00 X   4      28.966  39.150  40.4840  0.00  0.00     0.000 N
ATOM     66  HD  A00 X   4      28.689  38.407  40.8320  0.00  0.00     0.000 HD
ATOM     66   O  A00 X   4      31.193  39.590  41.2870  0.00  0.00     0.000 OA
ATOM     67   S  A00 X   4      30.526  38.917  40.2180  0.00  0.00     0.000 S
ATOM     68   O  A00 X   4      30.584  37.485  40.2590  0.00  0.00     0.000 OA
ATOM     69   O  A00 X   4      30.644  39.472  38.8990  0.00  0.00     0.000 OA
ENDBRANCH 59 66
BRANCH 62 70
ATOM     70   C  A00 X   4      24.613  39.340  42.7500  0.00  0.00     0.000 C
ATOM     71   O  A00 X   4      23.960  35.782  42.8870  0.00  0.00     0.000 OA
ATOM     72   O  A00 X   4      22.645  37.552  42.0610  0.00  0.00     0.000 OA
ATOM     73   O  A00 X   4      24.887  37.933  42.8460  0.00  0.00     0.000 O
ATOM     74   O  A00 X   4      24.553  36.763  40.7660  0.00  0.00     0.000 OA
ATOM     75   S  A00 X   4      23.960  36.949  42.0510  0.00  0.00     0.000 S
ENDBRANCH 62 70
ENDBRANCH 57 61
ENDBRANCH 41 57
ENDBRANCH 40 44
ENDBRANCH 20 40
ENDBRANCH 19 23
ENDBRANCH 1 19
TORSDOF 14
ENDMDL
MODEL 67
REMARK VINA RESULT:      -0.2     73.435     79.174
ROOT
ATOM      1  C1  A00 X   1      67.401  57.072  27.5570  0.00  0.00     0.000 C
ATOM      2  C2  A00 X   1      67.726  56.305  28.8660  0.00  0.00     0.000 C
ATOM      3  C3  A00 X   1      68.759  56.985  29.8230  0.00  0.00     0.000 C
ATOM      4  C4  A00 X   1      69.596  58.131  29.1980  0.00  0.00     0.000 C
ATOM      5  C5  A00 X   1      69.662  58.032  27.6740  0.00  0.00     0.000 C
ATOM      6  O5  A00 X   1      68.291  58.170  27.2370  0.00  0.00     0.000 O
ATOM      7   O  A00 X   1      69.689  56.000  30.2670  0.00  0.00     0.000 O
ATOM      9  HD  A00 X   1      70.141  56.719  30.0960  0.00  0.00     0.000 HD
ATOM      9   O  A00 X   1      69.092  59.412  29.5770  0.00  0.00     0.000 O
ATOM     11  HD  A00 X   1      69.543  60.131  29.4060  0.00  0.00     0.000 HD
ENDROOT
BRANCH 2 11
ATOM     11   O  A00 X   1      66.488  56.106  29.5760  0.00  0.00     0.000 O
ATOM     12   O  A00 X   1      66.383  54.841  31.6150  0.00  0.00     0.000 OA
ATOM     13   O  A00 X   1      67.026  53.723  29.5530  0.00  0.00     0.000 OA
ATOM     14   O  A00 X   1      64.803  54.514  29.8520  0.00  0.00     0.000 OA
ATOM     15   S  A00 X   1      66.187  54.697  30.1950  0.00  0.00     0.000 S
ENDBRANCH 2 11
BRANCH 5 16
ATOM     16   C  A00 X   1      70.353  56.775  27.1360  0.00  0.00     0.000 C
ATOM     17   O  A00 X   1      70.271  56.530  25.9500  0.00  0.00     0.000 OA
ATOM     18   O  A00 X   1      70.984  56.022  27.8500  0.00  0.00     0.000 OA
ENDBRANCH 5 16
BRANCH 1 19
ATOM     19  O4  A00 X   2      67.219  56.192  26.4200  0.00  0.00     0.000 O
BRANCH 19 23
ATOM     20  C1  A00 X   2      64.073  58.549  24.7140  0.00  0.00     0.000 C
ATOM     21  C2  A00 X   2      63.666  57.309  25.5450  0.00  0.00     0.000 C
ATOM     22  C3  A00 X   2      64.836  56.833  26.4310  0.00  0.00     0.000 C
ATOM     23  C4  A00 X   2      66.102  56.593  25.5760  0.00  0.00     0.000 C
ATOM     24  C5  A00 X   2      66.391  57.896  24.7820  0.00  0.00     0.000 C
ATOM     25  O5  A00 X   2      65.248  58.193  23.9380  0.00  0.00     0.000 O
ATOM     26   O  A00 X   2      64.388  55.726  27.2310  0.00  0.00     0.000 O
ATOM     28  HD  A00 X   2      64.061  55.301  26.5510  0.00  0.00     0.000 HD
BRANCH 21 30
ATOM     28   N  A00 X   2      62.533  57.117  24.6350  0.00  0.00     0.000 N
ATOM     30  HD  A00 X   2      62.373  56.637  25.3380  0.00  0.00     0.000 HD
ATOM     30   O  A00 X   2      60.774  56.176  25.8510  0.00  0.00     0.000 OA
ATOM     31   S  A00 X   2      61.647  55.817  24.7900  0.00  0.00     0.000 S
ATOM     32   O  A00 X   2      61.019  55.681  23.5120  0.00  0.00     0.000 OA
ATOM     33   O  A00 X   2      62.539  54.722  25.0260  0.00  0.00     0.000 OA
ENDBRANCH 21 30
BRANCH 24 34
ATOM     34   C  A00 X   2      67.736  58.000  24.0240  0.00  0.00     0.000 C
ATOM     35   O  A00 X   2      68.808  55.668  21.4420  0.00  0.00     0.000 OA
ATOM     36   O  A00 X   2      68.044  56.772  23.3350  0.00  0.00     0.000 O
ATOM     37   O  A00 X   2      66.773  56.870  21.3740  0.00  0.00     0.000 OA
ATOM     38   S  A00 X   2      68.148  56.888  21.7700  0.00  0.00     0.000 S
ATOM     39   O  A00 X   2      68.900  58.077  21.5020  0.00  0.00     0.000 OA
ENDBRANCH 24 34
BRANCH 20 40
ATOM     40  O4  A00 X   3      64.418  59.562  25.6700  0.00  0.00     0.000 O
BRANCH 40 44
ATOM     41  C1  A00 X   3      66.686  62.204  26.6680  0.00  0.00     0.000 C
ATOM     42  C2  A00 X   3      65.457  61.745  27.4820  0.00  0.00     0.000 C
ATOM     43  C3  A00 X   3      64.186  61.709  26.5950  0.00  0.00     0.000 C
ATOM     44  C4  A00 X   3      64.350  60.951  25.2840  0.00  0.00     0.000 C
ATOM     45  C5  A00 X   3      65.601  61.472  24.5220  0.00  0.00     0.000 C
ATOM     46  O5  A00 X   3      66.774  61.499  25.3990  0.00  0.00     0.000 O
ATOM     47   O  A00 X   3      62.970  61.381  27.2640  0.00  0.00     0.000 O
ATOM     49  HD  A00 X   3      62.819  60.940  26.5340  0.00  0.00     0.000 HD
BRANCH 42 49
ATOM     49   O  A00 X   3      65.767  60.439  28.0150  0.00  0.00     0.000 O
ATOM     50   O  A00 X   3      64.632  58.790  29.3290  0.00  0.00     0.000 OA
ATOM     51   O  A00 X   3      64.403  61.070  29.9120  0.00  0.00     0.000 OA
ATOM     52   O  A00 X   3      66.508  60.037  30.2070  0.00  0.00     0.000 OA
ATOM     53   S  A00 X   3      65.305  60.045  29.4490  0.00  0.00     0.000 S
ENDBRANCH 42 49
BRANCH 45 54
ATOM     54   C  A00 X   3      65.330  62.816  23.8360  0.00  0.00     0.000 C
ATOM     55   O  A00 X   3      64.291  63.412  24.0330  0.00  0.00     0.000 OA
ATOM     56   O  A00 X   3      66.151  63.309  23.0790  0.00  0.00     0.000 OA
ENDBRANCH 45 54
BRANCH 41 57
ATOM     57  O4  A00 X   4      66.738  63.643  26.5450  0.00  0.00     0.000 O
BRANCH 57 61
ATOM     58  C1  A00 X   4      70.003  66.462  26.3610  0.00  0.00     0.000 C
ATOM     59  C2  A00 X   4      69.885  65.390  25.2480  0.00  0.00     0.000 C
ATOM     60  C3  A00 X   4      68.513  64.688  25.2140  0.00  0.00     0.000 C
ATOM     61  C4  A00 X   4      68.072  64.222  26.6190  0.00  0.00     0.000 C
ATOM     62  C5  A00 X   4      68.058  65.487  27.5130  0.00  0.00     0.000 C
ATOM     63  O5  A00 X   4      69.403  66.023  27.6010  0.00  0.00     0.000 O
BRANCH 59 66
ATOM     64   N  A00 X   4      70.871  64.316  25.4690  0.00  0.00     0.000 N
ATOM     66  HD  A00 X   4      71.120  64.164  26.2850  0.00  0.00     0.000 HD
ATOM     66   O  A00 X   4      72.506  65.737  24.4170  0.00  0.00     0.000 OA
ATOM     67   S  A00 X   4      72.230  64.350  24.6270  0.00  0.00     0.000 S
ATOM     68   O  A00 X   4      73.112  63.675  25.5320  0.00  0.00     0.000 OA
ATOM     69   O  A00 X   4      71.842  63.566  23.4890  0.00  0.00     0.000 OA
ENDBRANCH 59 66
BRANCH 62 70
ATOM     70   C  A00 X   4      67.531  65.242  28.9470  0.00  0.00     0.000 C
ATOM     71   O  A00 X   4      69.088  63.393  31.6420  0.00  0.00     0.000 OA
ATOM     72   O  A00 X   4      66.901  63.291  30.7750  0.00  0.00     0.000 OA
ATOM     73   O  A00 X   4      68.580  64.673  29.7470  0.00  0.00     0.000 O
ATOM     74   O  A00 X   4      68.737  62.278  29.5330  0.00  0.00     0.000 OA
ATOM     75   S  A00 X   4      68.308  63.293  30.4410  0.00  0.00     0.000 S
ENDBRANCH 62 70
ENDBRANCH 57 61
ENDBRANCH 41 57
ENDBRANCH 40 44
ENDBRANCH 20 40
ENDBRANCH 19 23
ENDBRANCH 1 19
TORSDOF 14
ENDMDL
MODEL 68
REMARK VINA RESULT:      -0.2     58.067     62.314
ROOT
ATOM      1  C1  A00 X   1      47.892  31.524  46.5480  0.00  0.00     0.000 C
ATOM      2  C2  A00 X   1      48.224  31.273  45.0520  0.00  0.00     0.000 C
ATOM      3  C3  A00 X   1      49.669  31.660  44.5950  0.00  0.00     0.000 C
ATOM      4  C4  A00 X   1      50.457  32.572  45.5700  0.00  0.00     0.000 C
ATOM      5  C5  A00 X   1      49.533  33.355  46.5030  0.00  0.00     0.000 C
ATOM      6  O5  A00 X   1      48.844  32.343  47.2710  0.00  0.00     0.000 O
ATOM      7   O  A00 X   1      49.583  32.368  43.3600  0.00  0.00     0.000 O
ATOM      9  HD  A00 X   1      50.177  32.771  43.8450  0.00  0.00     0.000 HD
ATOM      9   O  A00 X   1      51.397  31.822  46.3400  0.00  0.00     0.000 O
ATOM     11  HD  A00 X   1      51.990  32.225  46.8250  0.00  0.00     0.000 HD
ENDROOT
BRANCH 2 11
ATOM     11   O  A00 X   1      48.006  29.874  44.7840  0.00  0.00     0.000 O
ATOM     12   O  A00 X   1      48.225  28.955  42.5760  0.00  0.00     0.000 OA
ATOM     13   O  A00 X   1      46.486  30.598  43.0150  0.00  0.00     0.000 OA
ATOM     14   O  A00 X   1      46.362  28.427  43.9770  0.00  0.00     0.000 OA
ATOM     15   S  A00 X   1      47.230  29.463  43.4860  0.00  0.00     0.000 S
ENDBRANCH 2 11
BRANCH 5 16
ATOM     16   C  A00 X   1      48.592  34.341  45.8030  0.00  0.00     0.000 C
ATOM     17   O  A00 X   1      47.705  34.857  46.4520  0.00  0.00     0.000 OA
ATOM     18   O  A00 X   1      48.707  34.631  44.6290  0.00  0.00     0.000 OA
ENDBRANCH 5 16
BRANCH 1 19
ATOM     19  O4  A00 X   2      46.535  31.987  46.7510  0.00  0.00     0.000 O
BRANCH 19 23
ATOM     20  C1  A00 X   2      46.009  29.792  50.3930  0.00  0.00     0.000 C
ATOM     21  C2  A00 X   2      45.439  29.170  49.0960  0.00  0.00     0.000 C
ATOM     22  C3  A00 X   2      46.066  29.828  47.8490  0.00  0.00     0.000 C
ATOM     23  C4  A00 X   2      45.898  31.364  47.9030  0.00  0.00     0.000 C
ATOM     24  C5  A00 X   2      46.489  31.859  49.2510  0.00  0.00     0.000 C
ATOM     25  O5  A00 X   2      45.768  31.223  50.3390  0.00  0.00     0.000 O
ATOM     26   O  A00 X   2      45.557  29.172  46.6760  0.00  0.00     0.000 O
ATOM     28  HD  A00 X   2      44.732  29.248  46.9290  0.00  0.00     0.000 HD
BRANCH 21 30
ATOM     28   N  A00 X   2      44.332  28.625  49.8880  0.00  0.00     0.000 N
ATOM     30  HD  A00 X   2      44.331  28.203  49.1320  0.00  0.00     0.000 HD
ATOM     30   O  A00 X   2      43.668  26.606  48.9170  0.00  0.00     0.000 OA
ATOM     31   S  A00 X   2      43.142  27.907  49.1350  0.00  0.00     0.000 S
ATOM     32   O  A00 X   2      42.061  27.972  50.0690  0.00  0.00     0.000 OA
ATOM     33   O  A00 X   2      42.843  28.689  47.9730  0.00  0.00     0.000 OA
ENDBRANCH 21 30
BRANCH 24 34
ATOM     34   C  A00 X   2      46.654  33.383  49.4550  0.00  0.00     0.000 C
ATOM     35   O  A00 X   2      43.891  35.755  49.4420  0.00  0.00     0.000 OA
ATOM     36   O  A00 X   2      45.467  34.096  49.0530  0.00  0.00     0.000 O
ATOM     37   O  A00 X   2      44.010  33.872  50.8680  0.00  0.00     0.000 OA
ATOM     38   S  A00 X   2      44.746  34.899  50.1970  0.00  0.00     0.000 S
ATOM     39   O  A00 X   2      45.777  35.566  50.9340  0.00  0.00     0.000 OA
ENDBRANCH 24 34
BRANCH 20 40
ATOM     40  O4  A00 X   3      47.422  29.542  50.3550  0.00  0.00     0.000 O
BRANCH 40 44
ATOM     41  C1  A00 X   3      50.767  30.840  50.8540  0.00  0.00     0.000 C
ATOM     42  C2  A00 X   3      50.441  29.417  50.3510  0.00  0.00     0.000 C
ATOM     43  C3  A00 X   3      49.417  28.720  51.2830  0.00  0.00     0.000 C
ATOM     44  C4  A00 X   3      48.173  29.545  51.5880  0.00  0.00     0.000 C
ATOM     45  C5  A00 X   3      48.582  30.957  52.0920  0.00  0.00     0.000 C
ATOM     46  O5  A00 X   3      49.556  31.573  51.1880  0.00  0.00     0.000 O
ATOM     47   O  A00 X   3      49.106  27.365  50.9640  0.00  0.00     0.000 O
ATOM     49  HD  A00 X   3      48.308  27.612  51.1910  0.00  0.00     0.000 HD
BRANCH 42 49
ATOM     49   O  A00 X   3      49.926  29.550  49.0080  0.00  0.00     0.000 O
ATOM     50   O  A00 X   3      49.053  28.080  47.3330  0.00  0.00     0.000 OA
ATOM     51   O  A00 X   3      50.942  27.396  48.5800  0.00  0.00     0.000 OA
ATOM     52   O  A00 X   3      51.184  29.188  47.0580  0.00  0.00     0.000 OA
ATOM     53   S  A00 X   3      50.287  28.498  47.9200  0.00  0.00     0.000 S
ENDBRANCH 42 49
BRANCH 45 54
ATOM     54   C  A00 X   3      49.050  30.926  53.5520  0.00  0.00     0.000 C
ATOM     55   O  A00 X   3      49.232  29.868  54.1210  0.00  0.00     0.000 OA
ATOM     56   O  A00 X   3      49.246  31.961  54.1680  0.00  0.00     0.000 OA
ENDBRANCH 45 54
BRANCH 41 57
ATOM     57  O4  A00 X   4      51.752  30.820  51.9110  0.00  0.00     0.000 O
BRANCH 57 61
ATOM     58  C1  A00 X   4      54.912  33.540  53.0310  0.00  0.00     0.000 C
ATOM     59  C2  A00 X   4      53.450  34.054  53.0500  0.00  0.00     0.000 C
ATOM     60  C3  A00 X   4      52.401  32.925  52.9880  0.00  0.00     0.000 C
ATOM     61  C4  A00 X   4      52.721  31.906  51.8730  0.00  0.00     0.000 C
ATOM     62  C5  A00 X   4      54.142  31.366  52.1710  0.00  0.00     0.000 C
ATOM     63  O5  A00 X   4      55.094  32.458  52.0900  0.00  0.00     0.000 O
BRANCH 59 66
ATOM     64   N  A00 X   4      53.195  34.895  51.8670  0.00  0.00     0.000 N
ATOM     66  HD  A00 X   4      53.661  34.736  51.1550  0.00  0.00     0.000 HD
ATOM     66   O  A00 X   4      54.219  36.716  53.0650  0.00  0.00     0.000 OA
ATOM     67   S  A00 X   4      53.247  36.484  52.0420  0.00  0.00     0.000 S
ATOM     68   O  A00 X   4      53.638  36.877  50.7200  0.00  0.00     0.000 OA
ATOM     69   O  A00 X   4      51.871  36.750  52.3530  0.00  0.00     0.000 OA
ENDBRANCH 59 66
BRANCH 62 70
ATOM     70   C  A00 X   4      54.604  30.240  51.2150  0.00  0.00     0.000 C
ATOM     71   O  A00 X   4      55.497  30.470  47.7140  0.00  0.00     0.000 OA
ATOM     72   O  A00 X   4      54.052  28.986  48.8350  0.00  0.00     0.000 OA
ATOM     73   O  A00 X   4      55.087  30.823  49.9930  0.00  0.00     0.000 O
ATOM     74   O  A00 X   4      53.331  31.274  48.4060  0.00  0.00     0.000 OA
ATOM     75   S  A00 X   4      54.412  30.375  48.6500  0.00  0.00     0.000 S
ENDBRANCH 62 70
ENDBRANCH 57 61
ENDBRANCH 41 57
ENDBRANCH 40 44
ENDBRANCH 20 40
ENDBRANCH 19 23
ENDBRANCH 1 19
TORSDOF 14
ENDMDL
MODEL 69
REMARK VINA RESULT:      -0.2     59.843     63.863
ROOT
ATOM      1  C1  A00 X   1      37.163  35.132  58.0510  0.00  0.00     0.000 C
ATOM      2  C2  A00 X   1      38.452  34.298  58.2810  0.00  0.00     0.000 C
ATOM      3  C3  A00 X   1      38.257  32.910  58.9750  0.00  0.00     0.000 C
ATOM      4  C4  A00 X   1      36.887  32.696  59.6700  0.00  0.00     0.000 C
ATOM      5  C5  A00 X   1      36.207  34.018  60.0240  0.00  0.00     0.000 C
ATOM      6  O5  A00 X   1      35.983  34.668  58.7520  0.00  0.00     0.000 O
ATOM      7   O  A00 X   1      39.251  32.760  59.9860  0.00  0.00     0.000 O
ATOM      9  HD  A00 X   1      38.508  32.457  60.3110  0.00  0.00     0.000 HD
ATOM      9   O  A00 X   1      36.013  31.903  58.8670  0.00  0.00     0.000 O
ATOM     11  HD  A00 X   1      35.270  31.600  59.1930  0.00  0.00     0.000 HD
ENDROOT
BRANCH 2 11
ATOM     11   O  A00 X   1      39.080  34.099  57.0000  0.00  0.00     0.000 O
ATOM     12   O  A00 X   1      41.141  32.888  56.7710  0.00  0.00     0.000 OA
ATOM     13   O  A00 X   1      41.118  34.972  58.0260  0.00  0.00     0.000 OA
ATOM     14   O  A00 X   1      40.785  34.980  55.6710  0.00  0.00     0.000 OA
ATOM     15   S  A00 X   1      40.638  34.233  56.8910  0.00  0.00     0.000 S
ENDBRANCH 2 11
BRANCH 5 16
ATOM     16   C  A00 X   1      36.966  34.888  61.0310  0.00  0.00     0.000 C
ATOM     17   O  A00 X   1      36.600  36.033  61.2020  0.00  0.00     0.000 OA
ATOM     18   O  A00 X   1      37.913  34.472  61.6680  0.00  0.00     0.000 OA
ENDBRANCH 5 16
BRANCH 1 19
ATOM     19  O4  A00 X   2      37.371  36.552  58.2490  0.00  0.00     0.000 O
BRANCH 19 23
ATOM     20  C1  A00 X   2      34.758  37.692  55.0480  0.00  0.00     0.000 C
ATOM     21  C2  A00 X   2      36.277  37.650  54.7510  0.00  0.00     0.000 C
ATOM     22  C3  A00 X   2      37.024  36.828  55.8220  0.00  0.00     0.000 C
ATOM     23  C4  A00 X   2      36.704  37.361  57.2370  0.00  0.00     0.000 C
ATOM     24  C5  A00 X   2      35.160  37.371  57.4030  0.00  0.00     0.000 C
ATOM     25  O5  A00 X   2      34.587  38.233  56.3860  0.00  0.00     0.000 O
ATOM     26   O  A00 X   2      38.415  36.761  55.4640  0.00  0.00     0.000 O
ATOM     28  HD  A00 X   2      38.478  37.616  55.3460  0.00  0.00     0.000 HD
BRANCH 21 30
ATOM     28   N  A00 X   2      36.092  38.790  53.8480  0.00  0.00     0.000 N
ATOM     30  HD  A00 X   2      36.867  38.449  53.6660  0.00  0.00     0.000 HD
ATOM     30   O  A00 X   2      37.656  38.611  52.1210  0.00  0.00     0.000 OA
ATOM     31   S  A00 X   2      37.371  39.471  53.2150  0.00  0.00     0.000 S
ATOM     32   O  A00 X   2      36.914  40.777  52.8520  0.00  0.00     0.000 OA
ATOM     33   O  A00 X   2      38.359  39.558  54.2480  0.00  0.00     0.000 OA
ENDBRANCH 21 30
BRANCH 24 34
ATOM     34   C  A00 X   2      34.584  37.645  58.8120  0.00  0.00     0.000 C
ATOM     35   O  A00 X   2      32.444  40.476  59.6270  0.00  0.00     0.000 OA
ATOM     36   O  A00 X   2      34.083  38.992  58.9190  0.00  0.00     0.000 O
ATOM     37   O  A00 X   2      31.970  38.909  57.9190  0.00  0.00     0.000 OA
ATOM     38   S  A00 X   2      32.543  39.114  59.2140  0.00  0.00     0.000 S
ATOM     39   O  A00 X   2      32.248  38.149  60.2310  0.00  0.00     0.000 OA
ENDBRANCH 24 34
BRANCH 20 40
ATOM     40  O4  A00 X   3      34.320  36.326  55.0240  0.00  0.00     0.000 O
BRANCH 40 44
ATOM     41  C1  A00 X   3      32.321  33.701  56.5200  0.00  0.00     0.000 C
ATOM     42  C2  A00 X   3      33.227  33.521  55.2830  0.00  0.00     0.000 C
ATOM     43  C3  A00 X   3      32.935  34.608  54.2170  0.00  0.00     0.000 C
ATOM     44  C4  A00 X   3      32.932  36.035  54.7520  0.00  0.00     0.000 C
ATOM     45  C5  A00 X   3      31.996  36.137  55.9900  0.00  0.00     0.000 C
ATOM     46  O5  A00 X   3      32.300  35.086  56.9630  0.00  0.00     0.000 O
ATOM     47   O  A00 X   3      33.655  34.489  52.9910  0.00  0.00     0.000 O
ATOM     49  HD  A00 X   3      33.691  35.351  53.0590  0.00  0.00     0.000 HD
BRANCH 42 49
ATOM     49   O  A00 X   3      34.594  33.589  55.7460  0.00  0.00     0.000 O
ATOM     50   O  A00 X   3      36.768  33.526  54.7440  0.00  0.00     0.000 OA
ATOM     51   O  A00 X   3      35.105  32.040  53.9570  0.00  0.00     0.000 OA
ATOM     52   O  A00 X   3      35.962  31.721  56.1370  0.00  0.00     0.000 OA
ATOM     53   S  A00 X   3      35.684  32.672  55.1170  0.00  0.00     0.000 S
ENDBRANCH 42 49
BRANCH 45 54
ATOM     54   C  A00 X   3      30.519  36.172  55.5820  0.00  0.00     0.000 C
ATOM     55   O  A00 X   3      30.192  36.013  54.4240  0.00  0.00     0.000 OA
ATOM     56   O  A00 X   3      29.645  36.362  56.4140  0.00  0.00     0.000 OA
ENDBRANCH 45 54
BRANCH 41 57
ATOM     57  O4  A00 X   4      31.009  33.133  56.3080  0.00  0.00     0.000 O
BRANCH 57 61
ATOM     58  C1  A00 X   4      28.194  31.177  58.9330  0.00  0.00     0.000 C
ATOM     59  C2  A00 X   4      28.579  32.649  59.2230  0.00  0.00     0.000 C
ATOM     60  C3  A00 X   4      29.290  33.343  58.0430  0.00  0.00     0.000 C
ATOM     61  C4  A00 X   4      30.428  32.472  57.4680  0.00  0.00     0.000 C
ATOM     62  C5  A00 X   4      29.779  31.129  57.0500  0.00  0.00     0.000 C
ATOM     63  O5  A00 X   4      29.241  30.473  58.2260  0.00  0.00     0.000 O
BRANCH 59 66
ATOM     64   N  A00 X   4      29.528  32.726  60.3480  0.00  0.00     0.000 N
ATOM     66  HD  A00 X   4      30.047  32.046  60.4800  0.00  0.00     0.000 HD
ATOM     66   O  A00 X   4      27.635  32.549  61.8260  0.00  0.00     0.000 OA
ATOM     67   S  A00 X   4      28.957  33.092  61.7970  0.00  0.00     0.000 S
ATOM     68   O  A00 X   4      29.917  32.426  62.6280  0.00  0.00     0.000 OA
ATOM     69   O  A00 X   4      29.094  34.520  61.7690  0.00  0.00     0.000 OA
ENDBRANCH 59 66
BRANCH 62 70
ATOM     70   C  A00 X   4      30.749  30.152  56.3430  0.00  0.00     0.000 C
ATOM     71   O  A00 X   4      33.550  28.336  57.7440  0.00  0.00     0.000 OA
ATOM     72   O  A00 X   4      33.396  29.657  55.8010  0.00  0.00     0.000 OA
ATOM     73   O  A00 X   4      31.547  29.478  57.3290  0.00  0.00     0.000 O
ATOM     74   O  A00 X   4      33.495  30.734  57.9840  0.00  0.00     0.000 OA
ATOM     75   S  A00 X   4      33.107  29.596  57.2170  0.00  0.00     0.000 S
ENDBRANCH 62 70
ENDBRANCH 57 61
ENDBRANCH 41 57
ENDBRANCH 40 44
ENDBRANCH 20 40
ENDBRANCH 19 23
ENDBRANCH 1 19
TORSDOF 14
ENDMDL
MODEL 70
REMARK VINA RESULT:      -0.2     65.387     70.454
ROOT
ATOM      1  C1  A00 X   1      58.625  52.591  26.5980  0.00  0.00     0.000 C
ATOM      2  C2  A00 X   1      58.989  51.570  25.4880  0.00  0.00     0.000 C
ATOM      3  C3  A00 X   1      60.514  51.278  25.2960  0.00  0.00     0.000 C
ATOM      4  C4  A00 X   1      61.478  52.292  25.9650  0.00  0.00     0.000 C
ATOM      5  C5  A00 X   1      60.812  53.646  26.2100  0.00  0.00     0.000 C
ATOM      6  O5  A00 X   1      59.732  53.363  27.1270  0.00  0.00     0.000 O
ATOM      7   O  A00 X   1      60.812  51.295  23.9020  0.00  0.00     0.000 O
ATOM      9  HD  A00 X   1      61.460  51.703  24.3070  0.00  0.00     0.000 HD
ATOM      9   O  A00 X   1      62.003  51.784  27.1910  0.00  0.00     0.000 O
ATOM     11  HD  A00 X   1      62.651  52.191  27.5950  0.00  0.00     0.000 HD
ENDROOT
BRANCH 2 11
ATOM     11   O  A00 X   1      58.309  50.336  25.7860  0.00  0.00     0.000 O
ATOM     12   O  A00 X   1      58.724  48.324  24.5440  0.00  0.00     0.000 OA
ATOM     13   O  A00 X   1      57.744  50.241  23.4120  0.00  0.00     0.000 OA
ATOM     14   O  A00 X   1      56.505  49.048  25.0540  0.00  0.00     0.000 OA
ATOM     15   S  A00 X   1      57.813  49.438  24.6020  0.00  0.00     0.000 S
ENDBRANCH 2 11
BRANCH 5 16
ATOM     16   C  A00 X   1      60.365  54.387  24.9460  0.00  0.00     0.000 C
ATOM     17   O  A00 X   1      59.650  55.361  25.0650  0.00  0.00     0.000 OA
ATOM     18   O  A00 X   1      60.704  54.039  23.8320  0.00  0.00     0.000 OA
ENDBRANCH 5 16
BRANCH 1 19
ATOM     19  O4  A00 X   2      57.513  53.445  26.2320  0.00  0.00     0.000 O
BRANCH 19 23
ATOM     20  C1  A00 X   2      55.755  53.345  30.1390  0.00  0.00     0.000 C
ATOM     21  C2  A00 X   2      55.179  52.383  29.0720  0.00  0.00     0.000 C
ATOM     22  C3  A00 X   2      56.161  52.220  27.8930  0.00  0.00     0.000 C
ATOM     23  C4  A00 X   2      56.548  53.599  27.3120  0.00  0.00     0.000 C
ATOM     24  C5  A00 X   2      57.090  54.470  28.4780  0.00  0.00     0.000 C
ATOM     25  O5  A00 X   2      56.051  54.606  29.4820  0.00  0.00     0.000 O
ATOM     26   O  A00 X   2      55.613  51.268  26.9650  0.00  0.00     0.000 O
ATOM     28  HD  A00 X   2      54.844  51.665  26.9340  0.00  0.00     0.000 HD
BRANCH 21 30
ATOM     28   N  A00 X   2      53.856  52.566  29.6760  0.00  0.00     0.000 N
ATOM     30  HD  A00 X   2      53.804  51.868  29.1670  0.00  0.00     0.000 HD
ATOM     30   O  A00 X   2      52.650  50.584  29.4000  0.00  0.00     0.000 OA
ATOM     31   S  A00 X   2      52.599  51.933  28.9570  0.00  0.00     0.000 S
ATOM     32   O  A00 X   2      51.499  52.694  29.4630  0.00  0.00     0.000 OA
ATOM     33   O  A00 X   2      52.757  52.161  27.5510  0.00  0.00     0.000 OA
ENDBRANCH 21 30
BRANCH 24 34
ATOM     34   C  A00 X   2      57.761  55.818  28.1260  0.00  0.00     0.000 C
ATOM     35   O  A00 X   2      56.492  59.065  29.1780  0.00  0.00     0.000 OA
ATOM     36   O  A00 X   2      56.867  56.924  28.3630  0.00  0.00     0.000 O
ATOM     37   O  A00 X   2      57.004  57.300  30.6670  0.00  0.00     0.000 OA
ATOM     38   S  A00 X   2      57.351  57.958  29.4440  0.00  0.00     0.000 S
ATOM     39   O  A00 X   2      58.740  58.193  29.1870  0.00  0.00     0.000 OA
ENDBRANCH 24 34
BRANCH 20 40
ATOM     40  O4  A00 X   3      56.976  52.740  30.5880  0.00  0.00     0.000 O
BRANCH 40 44
ATOM     41  C1  A00 X   3      60.463  53.135  31.4870  0.00  0.00     0.000 C
ATOM     42  C2  A00 X   3      59.702  51.792  31.4830  0.00  0.00     0.000 C
ATOM     43  C3  A00 X   3      58.376  51.903  32.2790  0.00  0.00     0.000 C
ATOM     44  C4  A00 X   3      57.500  53.086  31.8880  0.00  0.00     0.000 C
ATOM     45  C5  A00 X   3      58.334  54.399  31.9200  0.00  0.00     0.000 C
ATOM     46  O5  A00 X   3      59.580  54.245  31.1660  0.00  0.00     0.000 O
ATOM     47   O  A00 X   3      57.630  50.695  32.4160  0.00  0.00     0.000 O
ATOM     49  HD  A00 X   3      56.958  51.230  32.2980  0.00  0.00     0.000 HD
BRANCH 42 49
ATOM     49   O  A00 X   3      59.462  51.446  30.1020  0.00  0.00     0.000 O
ATOM     50   O  A00 X   3      58.390  49.658  28.9250  0.00  0.00     0.000 OA
ATOM     51   O  A00 X   3      59.735  49.145  30.8010  0.00  0.00     0.000 OA
ATOM     52   O  A00 X   3      60.787  49.965  28.8500  0.00  0.00     0.000 OA
ATOM     53   S  A00 X   3      59.595  49.969  29.6270  0.00  0.00     0.000 S
ENDBRANCH 42 49
BRANCH 45 54
ATOM     54   C  A00 X   3      58.553  54.897  33.3540  0.00  0.00     0.000 C
ATOM     55   O  A00 X   3      58.862  56.051  33.5670  0.00  0.00     0.000 OA
ATOM     56   O  A00 X   3      58.423  54.142  34.3050  0.00  0.00     0.000 OA
ENDBRANCH 45 54
BRANCH 41 57
ATOM     57  O4  A00 X   4      61.217  53.319  32.7060  0.00  0.00     0.000 O
BRANCH 57 61
ATOM     58  C1  A00 X   4      64.874  55.427  33.6120  0.00  0.00     0.000 C
ATOM     59  C2  A00 X   4      63.664  56.236  33.0820  0.00  0.00     0.000 C
ATOM     60  C3  A00 X   4      62.333  55.458  33.1380  0.00  0.00     0.000 C
ATOM     61  C4  A00 X   4      62.475  54.037  32.5540  0.00  0.00     0.000 C
ATOM     62  C5  A00 X   4      63.592  53.340  33.3680  0.00  0.00     0.000 C
ATOM     63  O5  A00 X   4      64.841  54.050  33.1700  0.00  0.00     0.000 O
BRANCH 59 66
ATOM     64   N  A00 X   4      63.859  56.577  31.6620  0.00  0.00     0.000 N
ATOM     66  HD  A00 X   4      64.348  56.043  31.1860  0.00  0.00     0.000 HD
ATOM     66   O  A00 X   4      65.224  58.421  32.3950  0.00  0.00     0.000 OA
ATOM     67   S  A00 X   4      64.386  58.043  31.3000  0.00  0.00     0.000 S
ATOM     68   O  A00 X   4      65.065  57.777  30.0660  0.00  0.00     0.000 OA
ATOM     69   O  A00 X   4      63.135  58.730  31.1460  0.00  0.00     0.000 OA
ENDBRANCH 59 66
BRANCH 62 70
ATOM     70   C  A00 X   4      63.809  51.852  32.9990  0.00  0.00     0.000 C
ATOM     71   O  A00 X   4      65.134  50.452  29.9350  0.00  0.00     0.000 OA
ATOM     72   O  A00 X   4      63.195  49.912  31.1560  0.00  0.00     0.000 OA
ATOM     73   O  A00 X   4      64.582  51.771  31.7910  0.00  0.00     0.000 O
ATOM     74   O  A00 X   4      63.237  51.935  29.7990  0.00  0.00     0.000 OA
ATOM     75   S  A00 X   4      63.968  50.989  30.5790  0.00  0.00     0.000 S
ENDBRANCH 62 70
ENDBRANCH 57 61
ENDBRANCH 41 57
ENDBRANCH 40 44
ENDBRANCH 20 40
ENDBRANCH 19 23
ENDBRANCH 1 19
TORSDOF 14
ENDMDL
MODEL 71
REMARK VINA RESULT:      -0.2     61.991     66.325
ROOT
ATOM      1  C1  A00 X   1      41.445  41.937  55.8400  0.00  0.00     0.000 C
ATOM      2  C2  A00 X   1      40.681  41.621  57.1540  0.00  0.00     0.000 C
ATOM      3  C3  A00 X   1      39.329  40.851  56.9940  0.00  0.00     0.000 C
ATOM      4  C4  A00 X   1      38.741  40.823  55.5600  0.00  0.00     0.000 C
ATOM      5  C5  A00 X   1      39.268  41.970  54.6970  0.00  0.00     0.000 C
ATOM      6  O5  A00 X   1      40.693  41.744  54.6170  0.00  0.00     0.000 O
ATOM      7   O  A00 X   1      38.348  41.473  57.8220  0.00  0.00     0.000 O
ATOM      9  HD  A00 X   1      37.962  41.277  57.0710  0.00  0.00     0.000 HD
ATOM      9   O  A00 X   1      38.999  39.577  54.9140  0.00  0.00     0.000 O
ATOM     11  HD  A00 X   1      38.613  39.381  54.1640  0.00  0.00     0.000 HD
ENDROOT
BRANCH 2 11
ATOM     11   O  A00 X   1      41.561  40.854  57.9980  0.00  0.00     0.000 O
ATOM     12   O  A00 X   1      40.957  40.246  60.2420  0.00  0.00     0.000 OA
ATOM     13   O  A00 X   1      41.230  42.596  59.6780  0.00  0.00     0.000 OA
ATOM     14   O  A00 X   1      43.111  41.141  59.7210  0.00  0.00     0.000 OA
ATOM     15   S  A00 X   1      41.692  41.246  59.5100  0.00  0.00     0.000 S
ENDBRANCH 2 11
BRANCH 5 16
ATOM     16   C  A00 X   1      38.896  43.373  55.1890  0.00  0.00     0.000 C
ATOM     17   O  A00 X   1      39.434  44.331  54.6720  0.00  0.00     0.000 OA
ATOM     18   O  A00 X   1      38.080  43.561  56.0690  0.00  0.00     0.000 OA
ENDBRANCH 5 16
BRANCH 1 19
ATOM     19  O4  A00 X   2      42.090  43.234  55.8640  0.00  0.00     0.000 O
BRANCH 19 23
ATOM     20  C1  A00 X   2      45.502  41.924  53.6270  0.00  0.00     0.000 C
ATOM     21  C2  A00 X   2      45.633  41.970  55.1690  0.00  0.00     0.000 C
ATOM     22  C3  A00 X   2      44.244  42.031  55.8370  0.00  0.00     0.000 C
ATOM     23  C4  A00 X   2      43.419  43.208  55.2690  0.00  0.00     0.000 C
ATOM     24  C5  A00 X   2      43.378  43.058  53.7240  0.00  0.00     0.000 C
ATOM     25  O5  A00 X   2      44.737  43.088  53.2150  0.00  0.00     0.000 O
ATOM     26   O  A00 X   2      44.416  42.003  57.2640  0.00  0.00     0.000 O
ATOM     28  HD  A00 X   2      45.004  42.639  57.2560  0.00  0.00     0.000 HD
BRANCH 21 30
ATOM     28   N  A00 X   2      47.039  42.351  54.9990  0.00  0.00     0.000 N
ATOM     30  HD  A00 X   2      46.945  42.101  55.8220  0.00  0.00     0.000 HD
ATOM     30   O  A00 X   2      48.250  41.489  56.8010  0.00  0.00     0.000 OA
ATOM     31   S  A00 X   2      47.875  42.755  56.2780  0.00  0.00     0.000 S
ATOM     32   O  A00 X   2      48.952  43.532  55.7470  0.00  0.00     0.000 OA
ATOM     33   O  A00 X   2      47.029  43.571  57.0970  0.00  0.00     0.000 OA
ENDBRANCH 21 30
BRANCH 24 34
ATOM     34   C  A00 X   2      42.423  43.980  52.9300  0.00  0.00     0.000 C
ATOM     35   O  A00 X   2      43.518  46.354  50.3950  0.00  0.00     0.000 OA
ATOM     36   O  A00 X   2      43.147  45.039  52.2720  0.00  0.00     0.000 O
ATOM     37   O  A00 X   2      44.011  44.041  50.3410  0.00  0.00     0.000 OA
ATOM     38   S  A00 X   2      43.053  45.041  50.7020  0.00  0.00     0.000 S
ATOM     39   O  A00 X   2      41.680  44.792  50.3780  0.00  0.00     0.000 OA
ENDBRANCH 24 34
BRANCH 20 40
ATOM     40  O4  A00 X   3      44.757  40.733  53.3370  0.00  0.00     0.000 O
BRANCH 40 44
ATOM     41  C1  A00 X   3      42.169  39.074  51.4180  0.00  0.00     0.000 C
ATOM     42  C2  A00 X   3      43.018  38.401  52.5190  0.00  0.00     0.000 C
ATOM     43  C3  A00 X   3      44.530  38.646  52.2820  0.00  0.00     0.000 C
ATOM     44  C4  A00 X   3      44.906  40.103  52.0460  0.00  0.00     0.000 C
ATOM     45  C5  A00 X   3      44.015  40.708  50.9250  0.00  0.00     0.000 C
ATOM     46  O5  A00 X   3      42.598  40.444  51.1840  0.00  0.00     0.000 O
ATOM     47   O  A00 X   3      45.416  37.996  53.1910  0.00  0.00     0.000 O
ATOM     49  HD  A00 X   3      45.851  38.742  53.1250  0.00  0.00     0.000 HD
BRANCH 42 49
ATOM     49   O  A00 X   3      42.585  38.951  53.7820  0.00  0.00     0.000 O
ATOM     50   O  A00 X   3      43.221  38.724  56.0790  0.00  0.00     0.000 OA
ATOM     51   O  A00 X   3      43.129  36.789  54.7240  0.00  0.00     0.000 OA
ATOM     52   O  A00 X   3      41.106  37.885  55.2620  0.00  0.00     0.000 OA
ATOM     53   S  A00 X   3      42.502  38.046  55.0460  0.00  0.00     0.000 S
ENDBRANCH 42 49
BRANCH 45 54
ATOM     54   C  A00 X   3      44.469  40.254  49.5320  0.00  0.00     0.000 C
ATOM     55   O  A00 X   3      45.345  39.423  49.4070  0.00  0.00     0.000 OA
ATOM     56   O  A00 X   3      43.958  40.719  48.5250  0.00  0.00     0.000 OA
ENDBRANCH 45 54
BRANCH 41 57
ATOM     57  O4  A00 X   4      42.107  38.266  50.2220  0.00  0.00     0.000 O
BRANCH 57 61
ATOM     58  C1  A00 X   4      39.034  37.634  47.2560  0.00  0.00     0.000 C
ATOM     59  C2  A00 X   4      39.615  39.060  47.4300  0.00  0.00     0.000 C
ATOM     60  C3  A00 X   4      40.927  39.095  48.2390  0.00  0.00     0.000 C
ATOM     61  C4  A00 X   4      40.821  38.269  49.5400  0.00  0.00     0.000 C
ATOM     62  C5  A00 X   4      40.436  36.831  49.1130  0.00  0.00     0.000 C
ATOM     63  O5  A00 X   4      39.136  36.856  48.4700  0.00  0.00     0.000 O
BRANCH 59 66
ATOM     64   N  A00 X   4      38.707  39.958  48.1660  0.00  0.00     0.000 N
ATOM     66  HD  A00 X   4      38.176  39.601  48.7490  0.00  0.00     0.000 HD
ATOM     66   O  A00 X   4      37.495  40.256  46.1060  0.00  0.00     0.000 OA
ATOM     67   S  A00 X   4      37.777  40.951  47.3230  0.00  0.00     0.000 S
ATOM     68   O  A00 X   4      36.669  41.093  48.2230  0.00  0.00     0.000 OA
ATOM     69   O  A00 X   4      38.631  42.102  47.2550  0.00  0.00     0.000 OA
ENDBRANCH 59 66
BRANCH 62 70
ATOM     70   C  A00 X   4      40.388  35.817  50.2810  0.00  0.00     0.000 C
ATOM     71   O  A00 X   4      38.011  35.615  53.0040  0.00  0.00     0.000 OA
ATOM     72   O  A00 X   4      40.366  35.584  53.0170  0.00  0.00     0.000 OA
ATOM     73   O  A00 X   4      39.141  35.958  50.9810  0.00  0.00     0.000 O
ATOM     74   O  A00 X   4      39.192  37.689  52.6560  0.00  0.00     0.000 OA
ATOM     75   S  A00 X   4      39.194  36.268  52.5170  0.00  0.00     0.000 S
ENDBRANCH 62 70
ENDBRANCH 57 61
ENDBRANCH 41 57
ENDBRANCH 40 44
ENDBRANCH 20 40
ENDBRANCH 19 23
ENDBRANCH 1 19
TORSDOF 14
ENDMDL
MODEL 72
REMARK VINA RESULT:      -0.2     52.789     56.898
ROOT
ATOM      1  C1  A00 X   1      38.764  25.447  48.8380  0.00  0.00     0.000 C
ATOM      2  C2  A00 X   1      37.529  26.381  48.7290  0.00  0.00     0.000 C
ATOM      3  C3  A00 X   1      36.701  26.580  50.0410  0.00  0.00     0.000 C
ATOM      4  C4  A00 X   1      36.982  25.557  51.1710  0.00  0.00     0.000 C
ATOM      5  C5  A00 X   1      37.583  24.257  50.6360  0.00  0.00     0.000 C
ATOM      6  O5  A00 X   1      38.842  24.650  50.0460  0.00  0.00     0.000 O
ATOM      7   O  A00 X   1      35.314  26.466  49.7280  0.00  0.00     0.000 O
ATOM      9  HD  A00 X   1      35.442  26.049  50.4760  0.00  0.00     0.000 HD
ATOM      9   O  A00 X   1      37.838  26.107  52.1730  0.00  0.00     0.000 O
ATOM     11  HD  A00 X   1      37.965  25.689  52.9200  0.00  0.00     0.000 HD
ENDROOT
BRANCH 2 11
ATOM     11   O  A00 X   1      37.991  27.665  48.2660  0.00  0.00     0.000 O
ATOM     12   O  A00 X   1      36.472  29.464  47.7910  0.00  0.00     0.000 OA
ATOM     13   O  A00 X   1      36.367  27.434  46.4560  0.00  0.00     0.000 OA
ATOM     14   O  A00 X   1      38.243  28.887  46.2930  0.00  0.00     0.000 OA
ATOM     15   S  A00 X   1      37.187  28.397  47.1370  0.00  0.00     0.000 S
ENDBRANCH 2 11
BRANCH 5 16
ATOM     16   C  A00 X   1      36.678  23.469  49.6840  0.00  0.00     0.000 C
ATOM     17   O  A00 X   1      37.155  22.542  49.0620  0.00  0.00     0.000 OA
ATOM     18   O  A00 X   1      35.502  23.734  49.5330  0.00  0.00     0.000 OA
ENDBRANCH 5 16
BRANCH 1 19
ATOM     19  O4  A00 X   2      38.958  24.634  47.6550  0.00  0.00     0.000 O
BRANCH 19 23
ATOM     20  C1  A00 X   2      43.235  24.827  47.8450  0.00  0.00     0.000 C
ATOM     21  C2  A00 X   2      42.517  25.818  46.8980  0.00  0.00     0.000 C
ATOM     22  C3  A00 X   2      41.019  25.929  47.2520  0.00  0.00     0.000 C
ATOM     23  C4  A00 X   2      40.360  24.532  47.2710  0.00  0.00     0.000 C
ATOM     24  C5  A00 X   2      41.179  23.633  48.2370  0.00  0.00     0.000 C
ATOM     25  O5  A00 X   2      42.545  23.552  47.7540  0.00  0.00     0.000 O
ATOM     26   O  A00 X   2      40.413  26.909  46.3920  0.00  0.00     0.000 O
ATOM     28  HD  A00 X   2      40.739  26.553  45.6730  0.00  0.00     0.000 HD
BRANCH 21 30
ATOM     28   N  A00 X   2      43.653  25.705  45.9780  0.00  0.00     0.000 N
ATOM     30  HD  A00 X   2      43.205  26.406  45.7380  0.00  0.00     0.000 HD
ATOM     30   O  A00 X   2      43.901  27.749  44.8740  0.00  0.00     0.000 OA
ATOM     31   S  A00 X   2      43.557  26.406  44.5650  0.00  0.00     0.000 S
ATOM     32   O  A00 X   2      44.519  25.704  43.7720  0.00  0.00     0.000 OA
ATOM     33   O  A00 X   2      42.235  26.173  44.0650  0.00  0.00     0.000 OA
ENDBRANCH 21 30
BRANCH 24 34
ATOM     34   C  A00 X   2      40.595  22.250  48.6130  0.00  0.00     0.000 C
ATOM     35   O  A00 X   2      39.656  19.704  46.1850  0.00  0.00     0.000 OA
ATOM     36   O  A00 X   2      39.997  21.608  47.4690  0.00  0.00     0.000 O
ATOM     37   O  A00 X   2      41.805  20.683  46.3090  0.00  0.00     0.000 OA
ATOM     38   S  A00 X   2      40.658  20.245  47.0440  0.00  0.00     0.000 S
ATOM     39   O  A00 X   2      40.884  19.510  48.2520  0.00  0.00     0.000 OA
ENDBRANCH 24 34
BRANCH 20 40
ATOM     40  O4  A00 X   3      43.074  25.366  49.1650  0.00  0.00     0.000 O
BRANCH 40 44
ATOM     41  C1  A00 X   3      42.309  24.797  52.6600  0.00  0.00     0.000 C
ATOM     42  C2  A00 X   3      42.631  26.175  52.0430  0.00  0.00     0.000 C
ATOM     43  C3  A00 X   3      43.941  26.120  51.2140  0.00  0.00     0.000 C
ATOM     44  C4  A00 X   3      44.003  24.983  50.2020  0.00  0.00     0.000 C
ATOM     45  C5  A00 X   3      43.673  23.633  50.8990  0.00  0.00     0.000 C
ATOM     46  O5  A00 X   3      42.436  23.734  51.6760  0.00  0.00     0.000 O
ATOM     47   O  A00 X   3      44.384  27.360  50.6670  0.00  0.00     0.000 O
ATOM     49  HD  A00 X   3      44.589  26.860  49.9910  0.00  0.00     0.000 HD
BRANCH 42 49
ATOM     49   O  A00 X   3      41.502  26.545  51.2210  0.00  0.00     0.000 O
ATOM     50   O  A00 X   3      40.928  28.375  49.7880  0.00  0.00     0.000 OA
ATOM     51   O  A00 X   3      42.006  28.829  51.8430  0.00  0.00     0.000 OA
ATOM     52   O  A00 X   3      39.791  28.007  51.8900  0.00  0.00     0.000 OA
ATOM     53   S  A00 X   3      41.017  28.023  51.1710  0.00  0.00     0.000 S
ENDBRANCH 42 49
BRANCH 45 54
ATOM     54   C  A00 X   3      44.860  23.112  51.7180  0.00  0.00     0.000 C
ATOM     55   O  A00 X   3      44.889  21.960  52.1010  0.00  0.00     0.000 OA
ATOM     56   O  A00 X   3      45.795  23.845  52.0000  0.00  0.00     0.000 OA
ENDBRANCH 45 54
BRANCH 41 57
ATOM     57  O4  A00 X   4      43.060  24.568  53.8730  0.00  0.00     0.000 O
BRANCH 57 61
ATOM     58  C1  A00 X   4      42.213  22.348  57.4790  0.00  0.00     0.000 C
ATOM     59  C2  A00 X   4      42.286  21.581  56.1350  0.00  0.00     0.000 C
ATOM     60  C3  A00 X   4      42.938  22.392  54.9980  0.00  0.00     0.000 C
ATOM     61  C4  A00 X   4      42.355  23.819  54.9040  0.00  0.00     0.000 C
ATOM     62  C5  A00 X   4      42.579  24.473  56.2900  0.00  0.00     0.000 C
ATOM     63  O5  A00 X   4      41.837  23.732  57.2930  0.00  0.00     0.000 O
BRANCH 59 66
ATOM     64   N  A00 X   4      40.893  21.312  55.7330  0.00  0.00     0.000 N
ATOM     66  HD  A00 X   4      40.281  21.848  56.0300  0.00  0.00     0.000 HD
ATOM     66   O  A00 X   4      40.964  19.366  57.1490  0.00  0.00     0.000 OA
ATOM     67   S  A00 X   4      40.304  19.845  55.9750  0.00  0.00     0.000 S
ATOM     68   O  A00 X   4      38.911  20.148  56.1310  0.00  0.00     0.000 OA
ATOM     69   O  A00 X   4      40.635  19.229  54.7220  0.00  0.00     0.000 OA
ENDBRANCH 59 66
BRANCH 62 70
ATOM     70   C  A00 X   4      42.155  25.959  56.3630  0.00  0.00     0.000 C
ATOM     71   O  A00 X   4      38.825  27.372  56.2010  0.00  0.00     0.000 OA
ATOM     72   O  A00 X   4      40.793  27.945  55.0420  0.00  0.00     0.000 OA
ATOM     73   O  A00 X   4      40.727  26.039  56.5080  0.00  0.00     0.000 O
ATOM     74   O  A00 X   4      39.560  25.943  54.4030  0.00  0.00     0.000 OA
ATOM     75   S  A00 X   4      39.926  26.857  55.4360  0.00  0.00     0.000 S
ENDBRANCH 62 70
ENDBRANCH 57 61
ENDBRANCH 41 57
ENDBRANCH 40 44
ENDBRANCH 20 40
ENDBRANCH 19 23
ENDBRANCH 1 19
TORSDOF 14
ENDMDL
MODEL 73
REMARK VINA RESULT:      -0.2     61.914     66.266
ROOT
ATOM      1  C1  A00 X   1      32.294  46.855  54.7780  0.00  0.00     0.000 C
ATOM      2  C2  A00 X   1      33.197  47.867  55.5320  0.00  0.00     0.000 C
ATOM      3  C3  A00 X   1      32.915  48.033  57.0620  0.00  0.00     0.000 C
ATOM      4  C4  A00 X   1      31.562  47.462  57.5580  0.00  0.00     0.000 C
ATOM      5  C5  A00 X   1      30.538  47.342  56.4290  0.00  0.00     0.000 C
ATOM      6  O5  A00 X   1      31.123  46.401  55.5010  0.00  0.00     0.000 O
ATOM      7   O  A00 X   1      32.909  49.423  57.3780  0.00  0.00     0.000 O
ATOM      9  HD  A00 X   1      32.256  49.059  57.8150  0.00  0.00     0.000 HD
ATOM      9   O  A00 X   1      31.730  46.195  58.1930  0.00  0.00     0.000 O
ATOM     11  HD  A00 X   1      31.077  45.831  58.6300  0.00  0.00     0.000 HD
ENDROOT
BRANCH 2 11
ATOM     11   O  A00 X   1      34.566  47.455  55.3490  0.00  0.00     0.000 O
ATOM     12   O  A00 X   1      36.380  48.528  56.4990  0.00  0.00     0.000 OA
ATOM     13   O  A00 X   1      35.062  49.804  54.9020  0.00  0.00     0.000 OA
ATOM     14   O  A00 X   1      36.485  48.049  54.1600  0.00  0.00     0.000 OA
ATOM     15   S  A00 X   1      35.680  48.552  55.2400  0.00  0.00     0.000 S
ENDBRANCH 2 11
BRANCH 5 16
ATOM     16   C  A00 X   1      30.129  48.669  55.7810  0.00  0.00     0.000 C
ATOM     17   O  A00 X   1      30.360  49.702  56.3750  0.00  0.00     0.000 OA
ATOM     18   O  A00 X   1      29.590  48.724  54.6930  0.00  0.00     0.000 OA
ENDBRANCH 5 16
BRANCH 1 19
ATOM     19  O4  A00 X   2      31.951  47.297  53.4410  0.00  0.00     0.000 O
BRANCH 19 23
ATOM     20  C1  A00 X   2      32.297  43.384  51.7280  0.00  0.00     0.000 C
ATOM     21  C2  A00 X   2      33.510  44.336  51.5870  0.00  0.00     0.000 C
ATOM     22  C3  A00 X   2      33.415  45.500  52.5950  0.00  0.00     0.000 C
ATOM     23  C4  A00 X   2      32.060  46.230  52.4560  0.00  0.00     0.000 C
ATOM     24  C5  A00 X   2      30.933  45.171  52.5960  0.00  0.00     0.000 C
ATOM     25  O5  A00 X   2      31.093  44.177  51.5500  0.00  0.00     0.000 O
ATOM     26   O  A00 X   2      34.594  46.314  52.4730  0.00  0.00     0.000 O
ATOM     28  HD  A00 X   2      34.520  46.380  51.6130  0.00  0.00     0.000 HD
BRANCH 21 30
ATOM     28   N  A00 X   2      33.776  43.742  50.2740  0.00  0.00     0.000 N
ATOM     30  HD  A00 X   2      34.492  44.172  50.5040  0.00  0.00     0.000 HD
ATOM     30   O  A00 X   2      36.083  43.790  49.9070  0.00  0.00     0.000 OA
ATOM     31   S  A00 X   2      34.907  44.376  49.3690  0.00  0.00     0.000 S
ATOM     32   O  A00 X   2      34.566  43.944  48.0490  0.00  0.00     0.000 OA
ATOM     33   O  A00 X   2      34.784  45.799  49.4740  0.00  0.00     0.000 OA
ENDBRANCH 21 30
BRANCH 24 34
ATOM     34   C  A00 X   2      29.476  45.674  52.7230  0.00  0.00     0.000 C
ATOM     35   O  A00 X   2      26.843  44.930  50.3200  0.00  0.00     0.000 OA
ATOM     36   O  A00 X   2      28.763  45.531  51.4780  0.00  0.00     0.000 O
ATOM     37   O  A00 X   2      28.127  43.281  51.4260  0.00  0.00     0.000 OA
ATOM     38   S  A00 X   2      27.518  44.572  51.5240  0.00  0.00     0.000 S
ATOM     39   O  A00 X   2      26.812  44.882  52.7310  0.00  0.00     0.000 OA
ENDBRANCH 24 34
BRANCH 20 40
ATOM     40  O4  A00 X   3      32.349  42.885  53.0720  0.00  0.00     0.000 O
BRANCH 40 44
ATOM     41  C1  A00 X   3      30.560  42.090  56.1200  0.00  0.00     0.000 C
ATOM     42  C2  A00 X   3      32.084  41.934  55.9280  0.00  0.00     0.000 C
ATOM     43  C3  A00 X   3      32.402  41.135  54.6380  0.00  0.00     0.000 C
ATOM     44  C4  A00 X   3      31.692  41.639  53.3890  0.00  0.00     0.000 C
ATOM     45  C5  A00 X   3      30.166  41.765  53.6580  0.00  0.00     0.000 C
ATOM     46  O5  A00 X   3      29.912  42.517  54.8890  0.00  0.00     0.000 O
ATOM     47   O  A00 X   3      33.781  40.854  54.4040  0.00  0.00     0.000 O
ATOM     49  HD  A00 X   3      33.559  41.019  53.5840  0.00  0.00     0.000 HD
BRANCH 42 49
ATOM     49   O  A00 X   3      32.642  43.266  55.8750  0.00  0.00     0.000 O
ATOM     50   O  A00 X   3      34.810  44.223  55.5380  0.00  0.00     0.000 OA
ATOM     51   O  A00 X   3      34.610  42.305  56.9050  0.00  0.00     0.000 OA
ATOM     52   O  A00 X   3      33.692  44.341  57.6790  0.00  0.00     0.000 OA
ATOM     53   S  A00 X   3      34.020  43.567  56.5320  0.00  0.00     0.000 S
ENDBRANCH 42 49
BRANCH 45 54
ATOM     54   C  A00 X   3      29.471  40.398  53.6320  0.00  0.00     0.000 C
ATOM     55   O  A00 X   3      28.261  40.317  53.7030  0.00  0.00     0.000 OA
ATOM     56   O  A00 X   3      30.120  39.368  53.5420  0.00  0.00     0.000 OA
ENDBRANCH 45 54
BRANCH 41 57
ATOM     57  O4  A00 X   4      29.973  40.910  56.7130  0.00  0.00     0.000 O
BRANCH 57 61
ATOM     58  C1  A00 X   4      26.679  40.322  59.4420  0.00  0.00     0.000 C
ATOM     59  C2  A00 X   4      26.393  40.968  58.0630  0.00  0.00     0.000 C
ATOM     60  C3  A00 X   4      27.547  40.799  57.0540  0.00  0.00     0.000 C
ATOM     61  C4  A00 X   4      28.912  41.166  57.6770  0.00  0.00     0.000 C
ATOM     62  C5  A00 X   4      29.083  40.254  58.9170  0.00  0.00     0.000 C
ATOM     63  O5  A00 X   4      28.038  40.554  59.8780  0.00  0.00     0.000 O
BRANCH 59 66
ATOM     64   N  A00 X   4      26.205  42.424  58.1930  0.00  0.00     0.000 N
ATOM     66  HD  A00 X   4      26.612  42.823  58.8460  0.00  0.00     0.000 HD
ATOM     66   O  A00 X   4      23.937  41.969  58.8650  0.00  0.00     0.000 OA
ATOM     67   S  A00 X   4      24.711  42.993  58.2350  0.00  0.00     0.000 S
ATOM     68   O  A00 X   4      24.909  44.182  59.0120  0.00  0.00     0.000 OA
ATOM     69   O  A00 X   4      24.492  43.234  56.8370  0.00  0.00     0.000 OA
ENDBRANCH 59 66
BRANCH 62 70
ATOM     70   C  A00 X   4      30.454  40.397  59.6220  0.00  0.00     0.000 C
ATOM     71   O  A00 X   4      31.735  43.195  61.5300  0.00  0.00     0.000 OA
ATOM     72   O  A00 X   4      32.712  41.951  59.7860  0.00  0.00     0.000 OA
ATOM     73   O  A00 X   4      30.437  41.563  60.4610  0.00  0.00     0.000 O
ATOM     74   O  A00 X   4      30.981  43.588  59.2730  0.00  0.00     0.000 OA
ATOM     75   S  A00 X   4      31.528  42.662  60.2120  0.00  0.00     0.000 S
ENDBRANCH 62 70
ENDBRANCH 57 61
ENDBRANCH 41 57
ENDBRANCH 40 44
ENDBRANCH 20 40
ENDBRANCH 19 23
ENDBRANCH 1 19
TORSDOF 14
ENDMDL
MODEL 74
REMARK VINA RESULT:      -0.2     45.548     50.045
ROOT
ATOM      1  C1  A00 X   1      10.474  24.331  48.0490  0.00  0.00     0.000 C
ATOM      2  C2  A00 X   1      11.100  25.590  47.3930  0.00  0.00     0.000 C
ATOM      3  C3  A00 X   1      10.194  26.864  47.3470  0.00  0.00     0.000 C
ATOM      4  C4  A00 X   1       8.686  26.622  47.6170  0.00  0.00     0.000 C
ATOM      5  C5  A00 X   1       8.275  25.176  47.3420  0.00  0.00     0.000 C
ATOM      6  O5  A00 X   1       9.045  24.391  48.2810  0.00  0.00     0.000 O
ATOM      7   O  A00 X   1      10.284  27.443  46.0470  0.00  0.00     0.000 O
ATOM      9  HD  A00 X   1       9.453  27.482  46.2870  0.00  0.00     0.000 HD
ATOM      9   O  A00 X   1       8.332  26.978  48.9530  0.00  0.00     0.000 O
ATOM     11  HD  A00 X   1       7.501  27.017  49.1930  0.00  0.00     0.000 HD
ENDROOT
BRANCH 2 11
ATOM     11   O  A00 X   1      12.311  25.901  48.1080  0.00  0.00     0.000 O
ATOM     12   O  A00 X   1      13.558  27.909  47.6820  0.00  0.00     0.000 OA
ATOM     13   O  A00 X   1      13.343  26.245  45.9210  0.00  0.00     0.000 OA
ATOM     14   O  A00 X   1      14.631  25.781  47.8660  0.00  0.00     0.000 OA
ATOM     15   S  A00 X   1      13.520  26.515  47.3210  0.00  0.00     0.000 S
ENDBRANCH 2 11
BRANCH 5 16
ATOM     16   C  A00 X   1       8.436  24.722  45.8880  0.00  0.00     0.000 C
ATOM     17   O  A00 X   1       8.551  25.568  45.0250  0.00  0.00     0.000 OA
ATOM     18   O  A00 X   1       8.458  23.550  45.5690  0.00  0.00     0.000 OA
ENDBRANCH 5 16
BRANCH 1 19
ATOM     19  O4  A00 X   2      10.849  23.102  47.3790  0.00  0.00     0.000 O
BRANCH 19 23
ATOM     20  C1  A00 X   2      11.263  20.881  51.0210  0.00  0.00     0.000 C
ATOM     21  C2  A00 X   2      12.551  21.460  50.3870  0.00  0.00     0.000 C
ATOM     22  C3  A00 X   2      12.211  22.566  49.3650  0.00  0.00     0.000 C
ATOM     23  C4  A00 X   2      11.207  22.043  48.3130  0.00  0.00     0.000 C
ATOM     24  C5  A00 X   2       9.976  21.476  49.0720  0.00  0.00     0.000 C
ATOM     25  O5  A00 X   2      10.418  20.401  49.9410  0.00  0.00     0.000 O
ATOM     26   O  A00 X   2      13.438  23.117  48.8570  0.00  0.00     0.000 O
ATOM     28  HD  A00 X   2      13.770  22.339  48.6720  0.00  0.00     0.000 HD
BRANCH 21 30
ATOM     28   N  A00 X   2      13.274  20.277  50.8620  0.00  0.00     0.000 N
ATOM     30  HD  A00 X   2      13.871  20.868  50.6540  0.00  0.00     0.000 HD
ATOM     30   O  A00 X   2      15.471  20.910  51.3420  0.00  0.00     0.000 OA
ATOM     31   S  A00 X   2      14.779  20.080  50.4210  0.00  0.00     0.000 S
ATOM     32   O  A00 X   2      15.000  18.677  50.5890  0.00  0.00     0.000 OA
ATOM     33   O  A00 X   2      14.864  20.434  49.0360  0.00  0.00     0.000 OA
ENDBRANCH 21 30
BRANCH 24 34
ATOM     34   C  A00 X   2       8.724  21.099  48.2450  0.00  0.00     0.000 C
ATOM     35   O  A00 X   2       7.408  17.716  47.9630  0.00  0.00     0.000 OA
ATOM     36   O  A00 X   2       8.650  19.676  48.0290  0.00  0.00     0.000 O
ATOM     37   O  A00 X   2       7.760  18.830  50.0190  0.00  0.00     0.000 OA
ATOM     38   S  A00 X   2       7.388  18.969  48.6450  0.00  0.00     0.000 S
ATOM     39   O  A00 X   2       6.266  19.807  48.3420  0.00  0.00     0.000 OA
ENDBRANCH 24 34
BRANCH 20 40
ATOM     40  O4  A00 X   3      10.622  21.986  51.6760  0.00  0.00     0.000 O
BRANCH 40 44
ATOM     41  C1  A00 X   3       7.548  23.779  52.3530  0.00  0.00     0.000 C
ATOM     42  C2  A00 X   3       8.944  24.201  52.8610  0.00  0.00     0.000 C
ATOM     43  C3  A00 X   3       9.663  23.017  53.5560  0.00  0.00     0.000 C
ATOM     44  C4  A00 X   3       9.688  21.727  52.7460  0.00  0.00     0.000 C
ATOM     45  C5  A00 X   3       8.251  21.367  52.2750  0.00  0.00     0.000 C
ATOM     46  O5  A00 X   3       7.607  22.515  51.6350  0.00  0.00     0.000 O
ATOM     47   O  A00 X   3      10.928  23.314  54.1440  0.00  0.00     0.000 O
ATOM     49  HD  A00 X   3      11.130  22.532  53.8320  0.00  0.00     0.000 HD
BRANCH 42 49
ATOM     49   O  A00 X   3       9.687  24.671  51.7160  0.00  0.00     0.000 O
ATOM     50   O  A00 X   3      11.901  25.483  51.3010  0.00  0.00     0.000 OA
ATOM     51   O  A00 X   3      10.770  26.198  53.2500  0.00  0.00     0.000 OA
ATOM     52   O  A00 X   3       9.972  26.933  51.1500  0.00  0.00     0.000 OA
ATOM     53   S  A00 X   3      10.645  25.892  51.8470  0.00  0.00     0.000 S
ENDBRANCH 42 49
BRANCH 45 54
ATOM     54   C  A00 X   3       7.416  20.763  53.4110  0.00  0.00     0.000 C
ATOM     55   O  A00 X   3       7.834  20.759  54.5510  0.00  0.00     0.000 OA
ATOM     56   O  A00 X   3       6.319  20.275  53.1890  0.00  0.00     0.000 OA
ENDBRANCH 45 54
BRANCH 41 57
ATOM     57  O4  A00 X   4       6.563  23.809  53.4090  0.00  0.00     0.000 O
BRANCH 57 61
ATOM     58  C1  A00 X   4       2.348  24.739  53.4730  0.00  0.00     0.000 C
ATOM     59  C2  A00 X   4       2.828  23.535  52.6260  0.00  0.00     0.000 C
ATOM     60  C3  A00 X   4       4.265  23.083  52.9580  0.00  0.00     0.000 C
ATOM     61  C4  A00 X   4       5.243  24.277  53.0110  0.00  0.00     0.000 C
ATOM     62  C5  A00 X   4       4.679  25.256  54.0710  0.00  0.00     0.000 C
ATOM     63  O5  A00 X   4       3.382  25.736  53.6340  0.00  0.00     0.000 O
BRANCH 59 66
ATOM     64   N  A00 X   4       2.856  23.866  51.1890  0.00  0.00     0.000 N
ATOM     66  HD  A00 X   4       2.992  24.693  50.9720  0.00  0.00     0.000 HD
ATOM     66   O  A00 X   4       0.487  23.439  51.1470  0.00  0.00     0.000 OA
ATOM     67   S  A00 X   4       1.624  23.403  50.2810  0.00  0.00     0.000 S
ATOM     68   O  A00 X   4       1.657  24.414  49.2650  0.00  0.00     0.000 OA
ATOM     69   O  A00 X   4       2.096  22.118  49.8490  0.00  0.00     0.000 OA
ENDBRANCH 59 66
BRANCH 62 70
ATOM     70   C  A00 X   4       5.588  26.477  54.3500  0.00  0.00     0.000 C
ATOM     71   O  A00 X   4       6.321  29.290  52.1930  0.00  0.00     0.000 OA
ATOM     72   O  A00 X   4       7.755  27.887  53.4250  0.00  0.00     0.000 OA
ATOM     73   O  A00 X   4       5.390  27.460  53.3220  0.00  0.00     0.000 O
ATOM     74   O  A00 X   4       6.742  27.064  51.3670  0.00  0.00     0.000 OA
ATOM     75   S  A00 X   4       6.643  27.925  52.5010  0.00  0.00     0.000 S
ENDBRANCH 62 70
ENDBRANCH 57 61
ENDBRANCH 41 57
ENDBRANCH 40 44
ENDBRANCH 20 40
ENDBRANCH 19 23
ENDBRANCH 1 19
TORSDOF 14
ENDMDL
MODEL 75
REMARK VINA RESULT:      -0.2     54.228     58.617
ROOT
ATOM      1  C1  A00 X   1      50.869  11.121  50.1530  0.00  0.00     0.000 C
ATOM      2  C2  A00 X   1      49.568  10.303  50.3720  0.00  0.00     0.000 C
ATOM      3  C3  A00 X   1      48.298  10.817  49.6170  0.00  0.00     0.000 C
ATOM      4  C4  A00 X   1      48.393  12.257  49.0510  0.00  0.00     0.000 C
ATOM      5  C5  A00 X   1      49.448  13.093  49.7750  0.00  0.00     0.000 C
ATOM      6  O5  A00 X   1      50.697  12.412  49.5170  0.00  0.00     0.000 O
ATOM      7   O  A00 X   1      47.194  10.809  50.5190  0.00  0.00     0.000 O
ATOM      9  HD  A00 X   1      47.141  11.539  50.0570  0.00  0.00     0.000 HD
ATOM      9   O  A00 X   1      48.662  12.250  47.6490  0.00  0.00     0.000 O
ATOM     11  HD  A00 X   1      48.608  12.981  47.1870  0.00  0.00     0.000 HD
ENDROOT
BRANCH 2 11
ATOM     11   O  A00 X   1      49.832   8.944  49.9740  0.00  0.00     0.000 O
ATOM     12   O  A00 X   1      48.208   7.198  50.2580  0.00  0.00     0.000 OA
ATOM     13   O  A00 X   1      49.125   8.301  52.2220  0.00  0.00     0.000 OA
ATOM     14   O  A00 X   1      50.496   6.896  50.8790  0.00  0.00     0.000 OA
ATOM     15   S  A00 X   1      49.358   7.775  50.9060  0.00  0.00     0.000 S
ENDBRANCH 2 11
BRANCH 5 16
ATOM     16   C  A00 X   1      49.177  13.331  51.2640  0.00  0.00     0.000 C
ATOM     17   O  A00 X   1      50.080  13.747  51.9600  0.00  0.00     0.000 OA
ATOM     18   O  A00 X   1      48.091  13.126  51.7690  0.00  0.00     0.000 OA
ENDBRANCH 5 16
BRANCH 1 19
ATOM     19  O4  A00 X   2      51.674  11.226  51.3520  0.00  0.00     0.000 O
BRANCH 19 23
ATOM     20  C1  A00 X   2      55.396  10.978  49.2430  0.00  0.00     0.000 C
ATOM     21  C2  A00 X   2      54.854   9.680  49.8900  0.00  0.00     0.000 C
ATOM     22  C3  A00 X   2      53.352   9.817  50.2190  0.00  0.00     0.000 C
ATOM     23  C4  A00 X   2      53.097  11.071  51.0850  0.00  0.00     0.000 C
ATOM     24  C5  A00 X   2      53.701  12.293  50.3400  0.00  0.00     0.000 C
ATOM     25  O5  A00 X   2      55.124  12.073  50.1580  0.00  0.00     0.000 O
ATOM     26   O  A00 X   2      52.881   8.567  50.7530  0.00  0.00     0.000 O
ATOM     28  HD  A00 X   2      53.525   8.514  51.3300  0.00  0.00     0.000 HD
BRANCH 21 30
ATOM     28   N  A00 X   2      56.238   9.284  50.1680  0.00  0.00     0.000 N
ATOM     30  HD  A00 X   2      55.751   8.574  50.2590  0.00  0.00     0.000 HD
ATOM     30   O  A00 X   2      56.360   6.953  50.0710  0.00  0.00     0.000 OA
ATOM     31   S  A00 X   2      56.496   7.987  51.0340  0.00  0.00     0.000 S
ATOM     32   O  A00 X   2      57.822   8.175  51.5360  0.00  0.00     0.000 OA
ATOM     33   O  A00 X   2      55.550   8.001  52.1100  0.00  0.00     0.000 OA
ENDBRANCH 21 30
BRANCH 24 34
ATOM     34   C  A00 X   2      53.380  13.705  50.8830  0.00  0.00     0.000 C
ATOM     35   O  A00 X   2      54.170  14.822  54.2570  0.00  0.00     0.000 OA
ATOM     36   O  A00 X   2      53.476  13.747  52.3210  0.00  0.00     0.000 O
ATOM     37   O  A00 X   2      55.767  13.954  52.7450  0.00  0.00     0.000 OA
ATOM     38   S  A00 X   2      54.569  14.723  52.8920  0.00  0.00     0.000 S
ATOM     39   O  A00 X   2      54.463  15.936  52.1380  0.00  0.00     0.000 OA
ENDBRANCH 24 34
BRANCH 20 40
ATOM     40  O4  A00 X   3      54.637  11.158  48.0390  0.00  0.00     0.000 O
BRANCH 40 44
ATOM     41  C1  A00 X   3      52.842  13.400  45.8310  0.00  0.00     0.000 C
ATOM     42  C2  A00 X   3      52.992  11.879  45.6090  0.00  0.00     0.000 C
ATOM     43  C3  A00 X   3      54.477  11.446  45.7130  0.00  0.00     0.000 C
ATOM     44  C4  A00 X   3      55.195  11.941  46.9630  0.00  0.00     0.000 C
ATOM     45  C5  A00 X   3      55.003  13.476  47.1140  0.00  0.00     0.000 C
ATOM     46  O5  A00 X   3      53.589  13.840  46.9990  0.00  0.00     0.000 O
ATOM     47   O  A00 X   3      54.746  10.073  45.4400  0.00  0.00     0.000 O
ATOM     49  HD  A00 X   3      55.304  10.168  46.0950  0.00  0.00     0.000 HD
BRANCH 42 49
ATOM     49   O  A00 X   3      52.180  11.224  46.6080  0.00  0.00     0.000 O
ATOM     50   O  A00 X   3      51.697   8.966  47.2400  0.00  0.00     0.000 OA
ATOM     51   O  A00 X   3      51.801   9.510  44.9420  0.00  0.00     0.000 OA
ATOM     52   O  A00 X   3      50.020  10.384  46.2270  0.00  0.00     0.000 OA
ATOM     53   S  A00 X   3      51.372   9.943  46.2480  0.00  0.00     0.000 S
ENDBRANCH 42 49
BRANCH 45 54
ATOM     54   C  A00 X   3      55.907  14.258  46.1540  0.00  0.00     0.000 C
ATOM     55   O  A00 X   3      55.855  15.470  46.1030  0.00  0.00     0.000 OA
ATOM     56   O  A00 X   3      56.694  13.677  45.4230  0.00  0.00     0.000 OA
ENDBRANCH 45 54
BRANCH 41 57
ATOM     57  O4  A00 X   4      53.138  14.146  44.6290  0.00  0.00     0.000 O
BRANCH 57 61
ATOM     58  C1  A00 X   4      51.631  17.864  43.0350  0.00  0.00     0.000 C
ATOM     59  C2  A00 X   4      52.355  17.884  44.4040  0.00  0.00     0.000 C
ATOM     60  C3  A00 X   4      53.152  16.597  44.6970  0.00  0.00     0.000 C
ATOM     61  C4  A00 X   4      52.316  15.329  44.4180  0.00  0.00     0.000 C
ATOM     62  C5  A00 X   4      51.872  15.417  42.9370  0.00  0.00     0.000 C
ATOM     63  O5  A00 X   4      51.025  16.581  42.7600  0.00  0.00     0.000 O
BRANCH 59 66
ATOM     64   N  A00 X   4      51.376  17.996  45.5010  0.00  0.00     0.000 N
ATOM     66  HD  A00 X   4      50.583  17.676  45.3640  0.00  0.00     0.000 HD
ATOM     66   O  A00 X   4      51.332  20.367  45.0870  0.00  0.00     0.000 OA
ATOM     67   S  A00 X   4      51.129  19.436  46.1520  0.00  0.00     0.000 S
ATOM     68   O  A00 X   4      49.772  19.290  46.5930  0.00  0.00     0.000 OA
ATOM     69   O  A00 X   4      52.098  19.406  47.2100  0.00  0.00     0.000 OA
ENDBRANCH 59 66
BRANCH 62 70
ATOM     70   C  A00 X   4      51.107  14.170  42.4310  0.00  0.00     0.000 C
ATOM     71   O  A00 X   4      47.802  13.018  43.3550  0.00  0.00     0.000 OA
ATOM     72   O  A00 X   4      49.850  11.863  43.2320  0.00  0.00     0.000 OA
ATOM     73   O  A00 X   4      49.742  14.239  42.8740  0.00  0.00     0.000 O
ATOM     74   O  A00 X   4      49.429  13.370  45.1000  0.00  0.00     0.000 OA
ATOM     75   S  A00 X   4      49.188  13.048  43.7300  0.00  0.00     0.000 S
ENDBRANCH 62 70
ENDBRANCH 57 61
ENDBRANCH 41 57
ENDBRANCH 40 44
ENDBRANCH 20 40
ENDBRANCH 19 23
ENDBRANCH 1 19
TORSDOF 14
ENDMDL
MODEL 76
REMARK VINA RESULT:      -0.2     75.085     79.485
ROOT
ATOM      1  C1  A00 X   1      18.429  58.650  65.1780  0.00  0.00     0.000 C
ATOM      2  C2  A00 X   1      19.819  59.156  65.6470  0.00  0.00     0.000 C
ATOM      3  C3  A00 X   1      20.196  58.851  67.1340  0.00  0.00     0.000 C
ATOM      4  C4  A00 X   1      19.020  58.421  68.0470  0.00  0.00     0.000 C
ATOM      5  C5  A00 X   1      17.668  58.887  67.5050  0.00  0.00     0.000 C
ATOM      6  O5  A00 X   1      17.533  58.216  66.2320  0.00  0.00     0.000 O
ATOM      7   O  A00 X   1      20.751  60.029  67.7160  0.00  0.00     0.000 O
ATOM      9  HD  A00 X   1      20.229  59.673  68.3080  0.00  0.00     0.000 HD
ATOM      9   O  A00 X   1      19.000  57.007  68.2420  0.00  0.00     0.000 O
ATOM     11  HD  A00 X   1      18.478  56.652  68.8340  0.00  0.00     0.000 HD
ENDROOT
BRANCH 2 11
ATOM     11   O  A00 X   1      20.812  58.572  64.7810  0.00  0.00     0.000 O
ATOM     12   O  A00 X   1      23.164  58.803  65.2090  0.00  0.00     0.000 OA
ATOM     13   O  A00 X   1      21.844  60.785  64.7110  0.00  0.00     0.000 OA
ATOM     14   O  A00 X   1      22.244  59.151  63.0300  0.00  0.00     0.000 OA
ATOM     15   S  A00 X   1      22.100  59.397  64.4400  0.00  0.00     0.000 S
ENDBRANCH 2 11
BRANCH 5 16
ATOM     16   C  A00 X   1      17.493  60.406  67.4190  0.00  0.00     0.000 C
ATOM     17   O  A00 X   1      18.249  61.115  68.0520  0.00  0.00     0.000 OA
ATOM     18   O  A00 X   1      16.632  60.926  66.7380  0.00  0.00     0.000 OA
ENDBRANCH 5 16
BRANCH 1 19
ATOM     19  O4  A00 X   2      17.772  59.571  64.2730  0.00  0.00     0.000 O
BRANCH 19 23
ATOM     20  C1  A00 X   2      16.191  56.471  61.7730  0.00  0.00     0.000 C
ATOM     21  C2  A00 X   2      17.500  57.159  61.3160  0.00  0.00     0.000 C
ATOM     22  C3  A00 X   2      18.162  57.914  62.4880  0.00  0.00     0.000 C
ATOM     23  C4  A00 X   2      17.161  58.897  63.1360  0.00  0.00     0.000 C
ATOM     24  C5  A00 X   2      15.893  58.092  63.5300  0.00  0.00     0.000 C
ATOM     25  O5  A00 X   2      15.328  57.495  62.3340  0.00  0.00     0.000 O
ATOM     26   O  A00 X   2      19.404  58.476  62.0310  0.00  0.00     0.000 O
ATOM     28  HD  A00 X   2      19.041  58.840  61.3340  0.00  0.00     0.000 HD
BRANCH 21 30
ATOM     28   N  A00 X   2      17.055  57.000  59.9280  0.00  0.00     0.000 N
ATOM     30  HD  A00 X   2      17.901  57.181  59.9010  0.00  0.00     0.000 HD
ATOM     30   O  A00 X   2      18.946  56.719  58.5850  0.00  0.00     0.000 OA
ATOM     31   S  A00 X   2      17.907  57.668  58.7770  0.00  0.00     0.000 S
ATOM     32   O  A00 X   2      16.983  57.779  57.6910  0.00  0.00     0.000 OA
ATOM     33   O  A00 X   2      18.293  58.969  59.2360  0.00  0.00     0.000 OA
ENDBRANCH 21 30
BRANCH 24 34
ATOM     34   C  A00 X   2      14.829  58.796  64.4060  0.00  0.00     0.000 C
ATOM     35   O  A00 X   2      11.391  59.385  63.3620  0.00  0.00     0.000 OA
ATOM     36   O  A00 X   2      13.691  59.201  63.6200  0.00  0.00     0.000 O
ATOM     37   O  A00 X   2      12.416  57.253  63.3960  0.00  0.00     0.000 OA
ATOM     38   S  A00 X   2      12.325  58.535  64.0250  0.00  0.00     0.000 S
ATOM     39   O  A00 X   2      12.267  58.569  65.4560  0.00  0.00     0.000 OA
ENDBRANCH 24 34
BRANCH 20 40
ATOM     40  O4  A00 X   3      16.577  55.550  62.8040  0.00  0.00     0.000 O
BRANCH 40 44
ATOM     41  C1  A00 X   3      15.906  54.115  66.0620  0.00  0.00     0.000 C
ATOM     42  C2  A00 X   3      17.115  53.752  65.1720  0.00  0.00     0.000 C
ATOM     43  C3  A00 X   3      16.658  53.394  63.7340  0.00  0.00     0.000 C
ATOM     44  C4  A00 X   3      15.730  54.417  63.0920  0.00  0.00     0.000 C
ATOM     45  C5  A00 X   3      14.539  54.725  64.0420  0.00  0.00     0.000 C
ATOM     46  O5  A00 X   3      15.015  55.047  65.3890  0.00  0.00     0.000 O
ATOM     47   O  A00 X   3      17.685  52.958  62.8450  0.00  0.00     0.000 O
ATOM     49  HD  A00 X   3      17.236  53.431  62.2750  0.00  0.00     0.000 HD
BRANCH 42 49
ATOM     49   O  A00 X   3      18.001  54.893  65.1770  0.00  0.00     0.000 O
ATOM     50   O  A00 X   3      20.068  55.485  64.1250  0.00  0.00     0.000 OA
ATOM     51   O  A00 X   3      19.801  53.290  64.9620  0.00  0.00     0.000 OA
ATOM     52   O  A00 X   3      19.928  55.076  66.5050  0.00  0.00     0.000 OA
ATOM     53   S  A00 X   3      19.544  54.690  65.1910  0.00  0.00     0.000 S
ENDBRANCH 42 49
BRANCH 45 54
ATOM     54   C  A00 X   3      13.493  53.604  64.0240  0.00  0.00     0.000 C
ATOM     55   O  A00 X   3      13.708  52.567  63.4310  0.00  0.00     0.000 OA
ATOM     56   O  A00 X   3      12.426  53.735  64.6040  0.00  0.00     0.000 OA
ENDBRANCH 45 54
BRANCH 41 57
ATOM     57  O4  A00 X   4      15.245  52.935  66.5710  0.00  0.00     0.000 O
BRANCH 57 61
ATOM     58  C1  A00 X   4      13.211  52.076  70.2810  0.00  0.00     0.000 C
ATOM     59  C2  A00 X   4      12.643  53.188  69.3650  0.00  0.00     0.000 C
ATOM     60  C3  A00 X   4      13.220  53.161  67.9350  0.00  0.00     0.000 C
ATOM     61  C4  A00 X   4      14.759  53.041  67.9400  0.00  0.00     0.000 C
ATOM     62  C5  A00 X   4      15.093  51.750  68.7290  0.00  0.00     0.000 C
ATOM     63  O5  A00 X   4      14.634  51.895  70.0970  0.00  0.00     0.000 O
BRANCH 59 66
ATOM     64   N  A00 X   4      12.980  54.523  69.8920  0.00  0.00     0.000 N
ATOM     66  HD  A00 X   4      13.704  54.596  70.3620  0.00  0.00     0.000 HD
ATOM     66   O  A00 X   4      11.110  54.293  71.3910  0.00  0.00     0.000 OA
ATOM     67   S  A00 X   4      11.868  55.309  70.7310  0.00  0.00     0.000 S
ATOM     68   O  A00 X   4      12.701  56.108  71.5810  0.00  0.00     0.000 OA
ATOM     69   O  A00 X   4      11.228  56.043  69.6760  0.00  0.00     0.000 OA
ENDBRANCH 59 66
BRANCH 62 70
ATOM     70   C  A00 X   4      16.599  51.395  68.7510  0.00  0.00     0.000 C
ATOM     71   O  A00 X   4      19.304  53.115  70.4340  0.00  0.00     0.000 OA
ATOM     72   O  A00 X   4      19.114  52.359  68.2120  0.00  0.00     0.000 OA
ATOM     73   O  A00 X   4      17.262  52.200  69.7390  0.00  0.00     0.000 O
ATOM     74   O  A00 X   4      17.917  54.364  68.9080  0.00  0.00     0.000 OA
ATOM     75   S  A00 X   4      18.461  53.096  69.2720  0.00  0.00     0.000 S
ENDBRANCH 62 70
ENDBRANCH 57 61
ENDBRANCH 41 57
ENDBRANCH 40 44
ENDBRANCH 20 40
ENDBRANCH 19 23
ENDBRANCH 1 19
TORSDOF 14
ENDMDL
MODEL 77
REMARK VINA RESULT:      -0.2     45.541     50.497
ROOT
ATOM      1  C1  A00 X   1      53.748  10.918  31.9900  0.00  0.00     0.000 C
ATOM      2  C2  A00 X   1      54.354   9.732  31.1950  0.00  0.00     0.000 C
ATOM      3  C3  A00 X   1      55.552  10.078  30.2500  0.00  0.00     0.000 C
ATOM      4  C4  A00 X   1      55.745  11.586  29.9420  0.00  0.00     0.000 C
ATOM      5  C5  A00 X   1      54.461  12.387  30.1520  0.00  0.00     0.000 C
ATOM      6  O5  A00 X   1      54.161  12.238  31.5580  0.00  0.00     0.000 O
ATOM      7   O  A00 X   1      55.346   9.432  28.9960  0.00  0.00     0.000 O
ATOM      9  HD  A00 X   1      55.644  10.228  28.8270  0.00  0.00     0.000 HD
ATOM      9   O  A00 X   1      56.798  12.147  30.7260  0.00  0.00     0.000 O
ATOM     11  HD  A00 X   1      57.096  12.943  30.5570  0.00  0.00     0.000 HD
ENDROOT
BRANCH 2 11
ATOM     11   O  A00 X   1      54.781   8.738  32.1480  0.00  0.00     0.000 O
ATOM     12   O  A00 X   1      56.028   6.796  31.4840  0.00  0.00     0.000 OA
ATOM     13   O  A00 X   1      53.756   7.088  30.6670  0.00  0.00     0.000 OA
ATOM     14   O  A00 X   1      54.161   6.642  32.9680  0.00  0.00     0.000 OA
ATOM     15   S  A00 X   1      54.680   7.223  31.7590  0.00  0.00     0.000 S
ENDBRANCH 2 11
BRANCH 5 16
ATOM     16   C  A00 X   1      53.298  12.000  29.2320  0.00  0.00     0.000 C
ATOM     17   O  A00 X   1      53.539  11.362  28.2280  0.00  0.00     0.000 OA
ATOM     18   O  A00 X   1      52.147  12.303  29.4750  0.00  0.00     0.000 OA
ENDBRANCH 5 16
BRANCH 1 19
ATOM     19  O4  A00 X   2      52.307  10.831  32.1170  0.00  0.00     0.000 O
BRANCH 19 23
ATOM     20  C1  A00 X   2      52.269  12.261  36.1570  0.00  0.00     0.000 C
ATOM     21  C2  A00 X   2      52.203  10.730  35.9400  0.00  0.00     0.000 C
ATOM     22  C3  A00 X   2      52.656  10.357  34.5130  0.00  0.00     0.000 C
ATOM     23  C4  A00 X   2      51.844  11.147  33.4620  0.00  0.00     0.000 C
ATOM     24  C5  A00 X   2      51.975  12.657  33.7980  0.00  0.00     0.000 C
ATOM     25  O5  A00 X   2      51.451  12.886  35.1320  0.00  0.00     0.000 O
ATOM     26   O  A00 X   2      52.643   8.925  34.3850  0.00  0.00     0.000 O
ATOM     28  HD  A00 X   2      51.838   8.854  34.6970  0.00  0.00     0.000 HD
BRANCH 21 30
ATOM     28   N  A00 X   2      51.337  10.638  37.1200  0.00  0.00     0.000 N
ATOM     30  HD  A00 X   2      51.620   9.837  36.9540  0.00  0.00     0.000 HD
ATOM     30   O  A00 X   2      51.738   8.584  38.1580  0.00  0.00     0.000 OA
ATOM     31   S  A00 X   2      50.683   9.243  37.4740  0.00  0.00     0.000 S
ATOM     32   O  A00 X   2      49.560   9.592  38.2870  0.00  0.00     0.000 OA
ATOM     33   O  A00 X   2      50.242   8.658  36.2420  0.00  0.00     0.000 OA
ENDBRANCH 21 30
BRANCH 24 34
ATOM     34   C  A00 X   2      51.445  13.679  32.7650  0.00  0.00     0.000 C
ATOM     35   O  A00 X   2      48.016  13.753  31.5420  0.00  0.00     0.000 OA
ATOM     36   O  A00 X   2      50.182  13.257  32.2120  0.00  0.00     0.000 O
ATOM     37   O  A00 X   2      48.606  13.866  33.8290  0.00  0.00     0.000 OA
ATOM     38   S  A00 X   2      48.971  14.220  32.4920  0.00  0.00     0.000 S
ATOM     39   O  A00 X   2      49.452  15.550  32.2660  0.00  0.00     0.000 OA
ENDBRANCH 24 34
BRANCH 20 40
ATOM     40  O4  A00 X   3      53.644  12.622  35.9590  0.00  0.00     0.000 O
BRANCH 40 44
ATOM     41  C1  A00 X   3      56.010  14.926  34.4690  0.00  0.00     0.000 C
ATOM     42  C2  A00 X   3      56.396  13.671  35.2830  0.00  0.00     0.000 C
ATOM     43  C3  A00 X   3      55.649  13.639  36.6410  0.00  0.00     0.000 C
ATOM     44  C4  A00 X   3      54.143  13.846  36.5410  0.00  0.00     0.000 C
ATOM     45  C5  A00 X   3      53.835  15.127  35.7150  0.00  0.00     0.000 C
ATOM     46  O5  A00 X   3      54.568  15.119  34.4470  0.00  0.00     0.000 O
ATOM     47   O  A00 X   3      55.994  12.567  37.5160  0.00  0.00     0.000 O
ATOM     49  HD  A00 X   3      55.143  12.575  37.6780  0.00  0.00     0.000 HD
BRANCH 42 49
ATOM     49   O  A00 X   3      56.065  12.523  34.4710  0.00  0.00     0.000 O
ATOM     50   O  A00 X   3      56.153  10.143  34.7200  0.00  0.00     0.000 OA
ATOM     51   O  A00 X   3      57.959  11.441  35.5210  0.00  0.00     0.000 OA
ATOM     52   O  A00 X   3      57.613  11.311  33.1870  0.00  0.00     0.000 OA
ATOM     53   S  A00 X   3      56.992  11.272  34.4650  0.00  0.00     0.000 S
ENDBRANCH 42 49
BRANCH 45 54
ATOM     54   C  A00 X   3      54.064  16.401  36.5360  0.00  0.00     0.000 C
ATOM     55   O  A00 X   3      54.608  16.349  37.6210  0.00  0.00     0.000 OA
ATOM     56   O  A00 X   3      53.703  17.489  36.1160  0.00  0.00     0.000 OA
ENDBRANCH 45 54
BRANCH 41 57
ATOM     57  O4  A00 X   4      56.752  16.089  34.8980  0.00  0.00     0.000 O
BRANCH 57 61
ATOM     58  C1  A00 X   4      58.260  19.549  32.8020  0.00  0.00     0.000 C
ATOM     59  C2  A00 X   4      56.731  19.303  32.8220  0.00  0.00     0.000 C
ATOM     60  C3  A00 X   4      56.289  18.270  33.8790  0.00  0.00     0.000 C
ATOM     61  C4  A00 X   4      57.155  16.993  33.8300  0.00  0.00     0.000 C
ATOM     62  C5  A00 X   4      58.619  17.452  34.0400  0.00  0.00     0.000 C
ATOM     63  O5  A00 X   4      59.009  18.320  32.9450  0.00  0.00     0.000 O
BRANCH 59 66
ATOM     64   N  A00 X   4      56.305  18.754  31.5220  0.00  0.00     0.000 N
ATOM     66  HD  A00 X   4      56.888  18.303  31.0680  0.00  0.00     0.000 HD
ATOM     66   O  A00 X   4      56.268  21.015  30.6930  0.00  0.00     0.000 OA
ATOM     67   S  A00 X   4      55.643  19.751  30.4600  0.00  0.00     0.000 S
ATOM     68   O  A00 X   4      56.006  19.100  29.2350  0.00  0.00     0.000 OA
ATOM     69   O  A00 X   4      54.259  19.613  30.8120  0.00  0.00     0.000 OA
ENDBRANCH 59 66
BRANCH 62 70
ATOM     70   C  A00 X   4      59.638  16.291  34.1330  0.00  0.00     0.000 C
ATOM     71   O  A00 X   4      60.741  14.036  31.5240  0.00  0.00     0.000 OA
ATOM     72   O  A00 X   4      59.978  13.599  33.7090  0.00  0.00     0.000 OA
ATOM     73   O  A00 X   4      59.954  15.830  32.8100  0.00  0.00     0.000 O
ATOM     74   O  A00 X   4      58.378  14.209  31.9750  0.00  0.00     0.000 OA
ATOM     75   S  A00 X   4      59.708  14.316  32.4820  0.00  0.00     0.000 S
ENDBRANCH 62 70
ENDBRANCH 57 61
ENDBRANCH 41 57
ENDBRANCH 40 44
ENDBRANCH 20 40
ENDBRANCH 19 23
ENDBRANCH 1 19
TORSDOF 14
ENDMDL
MODEL 78
REMARK VINA RESULT:      -0.2     58.249     61.913
ROOT
ATOM      1  C1  A00 X   1      42.885   9.609  57.2660  0.00  0.00     0.000 C
ATOM      2  C2  A00 X   1      43.831   9.878  56.0650  0.00  0.00     0.000 C
ATOM      3  C3  A00 X   1      45.332   9.485  56.2710  0.00  0.00     0.000 C
ATOM      4  C4  A00 X   1      45.760   9.229  57.7390  0.00  0.00     0.000 C
ATOM      5  C5  A00 X   1      44.830   9.914  58.7400  0.00  0.00     0.000 C
ATOM      6  O5  A00 X   1      43.539   9.301  58.5220  0.00  0.00     0.000 O
ATOM      7   O  A00 X   1      46.153  10.547  55.7900  0.00  0.00     0.000 O
ATOM      9  HD  A00 X   1      46.505  10.266  56.5300  0.00  0.00     0.000 HD
ATOM      9   O  A00 X   1      45.831   7.832  58.0260  0.00  0.00     0.000 O
ATOM     11  HD  A00 X   1      46.184   7.551  58.7650  0.00  0.00     0.000 HD
ENDROOT
BRANCH 2 11
ATOM     11   O  A00 X   1      43.311   9.162  54.9280  0.00  0.00     0.000 O
ATOM     12   O  A00 X   1      44.272   9.385  52.7380  0.00  0.00     0.000 OA
ATOM     13   O  A00 X   1      43.235  11.320  53.7870  0.00  0.00     0.000 OA
ATOM     14   O  A00 X   1      41.909   9.473  53.0880  0.00  0.00     0.000 OA
ATOM     15   S  A00 X   1      43.200   9.903  53.5510  0.00  0.00     0.000 S
ENDBRANCH 2 11
BRANCH 5 16
ATOM     16   C  A00 X   1      44.803  11.444  58.6570  0.00  0.00     0.000 C
ATOM     17   O  A00 X   1      45.703  12.010  58.0710  0.00  0.00     0.000 OA
ATOM     18   O  A00 X   1      43.913  12.108  59.1500  0.00  0.00     0.000 OA
ENDBRANCH 5 16
BRANCH 1 19
ATOM     19  O4  A00 X   2      41.883  10.642  57.4320  0.00  0.00     0.000 O
BRANCH 19 23
ATOM     20  C1  A00 X   2      38.829   7.904  58.6760  0.00  0.00     0.000 C
ATOM     21  C2  A00 X   2      38.831   8.347  57.1920  0.00  0.00     0.000 C
ATOM     22  C3  A00 X   2      40.194   8.957  56.8030  0.00  0.00     0.000 C
ATOM     23  C4  A00 X   2      40.574  10.100  57.7710  0.00  0.00     0.000 C
ATOM     24  C5  A00 X   2      40.517   9.537  59.2170  0.00  0.00     0.000 C
ATOM     25  O5  A00 X   2      39.171   9.063  59.4810  0.00  0.00     0.000 O
ATOM     26   O  A00 X   2      40.168   9.288  55.4040  0.00  0.00     0.000 O
ATOM     28  HD  A00 X   2      39.419   9.718  55.4680  0.00  0.00     0.000 HD
BRANCH 21 30
ATOM     28   N  A00 X   2      37.367   8.283  57.2110  0.00  0.00     0.000 N
ATOM     30  HD  A00 X   2      37.606   8.307  56.3790  0.00  0.00     0.000 HD
ATOM     30   O  A00 X   2      36.637   7.675  55.0770  0.00  0.00     0.000 OA
ATOM     31   S  A00 X   2      36.569   8.795  55.9460  0.00  0.00     0.000 S
ATOM     32   O  A00 X   2      35.266   9.082  56.4610  0.00  0.00     0.000 OA
ATOM     33   O  A00 X   2      37.205  10.000  55.5040  0.00  0.00     0.000 OA
ENDBRANCH 21 30
BRANCH 24 34
ATOM     34   C  A00 X   2      41.077  10.415  60.3600  0.00  0.00     0.000 C
ATOM     35   O  A00 X   2      39.071  11.702  63.1130  0.00  0.00     0.000 OA
ATOM     36   O  A00 X   2      40.015  11.059  61.0930  0.00  0.00     0.000 O
ATOM     37   O  A00 X   2      39.234   9.410  62.5560  0.00  0.00     0.000 OA
ATOM     38   S  A00 X   2      39.915  10.667  62.6120  0.00  0.00     0.000 S
ATOM     39   O  A00 X   2      41.253  10.675  63.1220  0.00  0.00     0.000 OA
ENDBRANCH 24 34
BRANCH 20 40
ATOM     40  O4  A00 X   3      39.867   6.919  58.7880  0.00  0.00     0.000 O
BRANCH 40 44
ATOM     41  C1  A00 X   3      42.667   5.603  60.6720  0.00  0.00     0.000 C
ATOM     42  C2  A00 X   3      42.170   5.037  59.3240  0.00  0.00     0.000 C
ATOM     43  C3  A00 X   3      40.642   4.777  59.3620  0.00  0.00     0.000 C
ATOM     44  C4  A00 X   3      39.811   5.953  59.8590  0.00  0.00     0.000 C
ATOM     45  C5  A00 X   3      40.369   6.461  61.2180  0.00  0.00     0.000 C
ATOM     46  O5  A00 X   3      41.814   6.684  61.1400  0.00  0.00     0.000 O
ATOM     47   O  A00 X   3      40.085   4.171  58.1970  0.00  0.00     0.000 O
ATOM     49  HD  A00 X   3      39.435   4.721  58.3590  0.00  0.00     0.000 HD
BRANCH 42 49
ATOM     49   O  A00 X   3      42.516   6.002  58.3070  0.00  0.00     0.000 O
ATOM     50   O  A00 X   3      42.189   6.224  55.9460  0.00  0.00     0.000 OA
ATOM     51   O  A00 X   3      42.767   4.106  56.8240  0.00  0.00     0.000 OA
ATOM     52   O  A00 X   3      44.381   5.831  56.8900  0.00  0.00     0.000 OA
ATOM     53   S  A00 X   3      42.991   5.528  56.9020  0.00  0.00     0.000 S
ENDBRANCH 42 49
BRANCH 45 54
ATOM     54   C  A00 X   3      39.961   5.544  62.3780  0.00  0.00     0.000 C
ATOM     55   O  A00 X   3      39.416   4.481  62.1630  0.00  0.00     0.000 OA
ATOM     56   O  A00 X   3      40.176   5.867  63.5360  0.00  0.00     0.000 OA
ENDBRANCH 45 54
BRANCH 41 57
ATOM     57  O4  A00 X   4      42.876   4.555  61.6460  0.00  0.00     0.000 O
BRANCH 57 61
ATOM     58  C1  A00 X   4      45.724   4.046  64.8500  0.00  0.00     0.000 C
ATOM     59  C2  A00 X   4      44.750   5.249  64.9090  0.00  0.00     0.000 C
ATOM     60  C3  A00 X   4      43.566   5.130  63.9280  0.00  0.00     0.000 C
ATOM     61  C4  A00 X   4      44.034   4.736  62.5100  0.00  0.00     0.000 C
ATOM     62  C5  A00 X   4      44.804   3.401  62.6600  0.00  0.00     0.000 C
ATOM     63  O5  A00 X   4      45.972   3.615  63.4930  0.00  0.00     0.000 O
BRANCH 59 66
ATOM     64   N  A00 X   4      45.432   6.501  64.5370  0.00  0.00     0.000 N
ATOM     66  HD  A00 X   4      46.103   6.445  63.9930  0.00  0.00     0.000 HD
ATOM     66   O  A00 X   4      46.275   6.595  66.7900  0.00  0.00     0.000 OA
ATOM     67   S  A00 X   4      45.937   7.466  65.7090  0.00  0.00     0.000 S
ATOM     68   O  A00 X   4      47.046   8.102  65.0600  0.00  0.00     0.000 OA
ATOM     69   O  A00 X   4      44.783   8.306  65.8600  0.00  0.00     0.000 OA
ENDBRANCH 59 66
BRANCH 62 70
ATOM     70   C  A00 X   4      45.263   2.782  61.3180  0.00  0.00     0.000 C
ATOM     71   O  A00 X   4      47.820   3.960  59.0420  0.00  0.00     0.000 OA
ATOM     72   O  A00 X   4      45.599   3.290  58.6400  0.00  0.00     0.000 OA
ATOM     73   O  A00 X   4      46.464   3.437  60.8800  0.00  0.00     0.000 O
ATOM     74   O  A00 X   4      46.036   5.464  59.6500  0.00  0.00     0.000 OA
ATOM     75   S  A00 X   4      46.456   4.113  59.4640  0.00  0.00     0.000 S
ENDBRANCH 62 70
ENDBRANCH 57 61
ENDBRANCH 41 57
ENDBRANCH 40 44
ENDBRANCH 20 40
ENDBRANCH 19 23
ENDBRANCH 1 19
TORSDOF 14
ENDMDL
MODEL 79
REMARK VINA RESULT:      -0.2     57.325     61.511
ROOT
ATOM      1  C1  A00 X   1      29.622  66.373   6.1510  0.00  0.00     0.000 C
ATOM      2  C2  A00 X   1      29.891  67.863   6.4930  0.00  0.00     0.000 C
ATOM      3  C3  A00 X   1      31.393  68.273   6.6450  0.00  0.00     0.000 C
ATOM      4  C4  A00 X   1      32.394  67.099   6.8020  0.00  0.00     0.000 C
ATOM      5  C5  A00 X   1      31.717  65.829   7.3180  0.00  0.00     0.000 C
ATOM      6  O5  A00 X   1      30.757  65.483   6.2950  0.00  0.00     0.000 O
ATOM      7   O  A00 X   1      31.531  69.081   7.8120  0.00  0.00     0.000 O
ATOM      9  HD  A00 X   1      32.207  68.541   7.7940  0.00  0.00     0.000 HD
ATOM      9   O  A00 X   1      33.069  66.822   5.5760  0.00  0.00     0.000 O
ATOM     11  HD  A00 X   1      33.746  66.281   5.5580  0.00  0.00     0.000 HD
ENDROOT
BRANCH 2 11
ATOM     11   O  A00 X   1      29.288  68.666   5.4590  0.00  0.00     0.000 O
ATOM     12   O  A00 X   1      29.615  71.042   5.3440  0.00  0.00     0.000 OA
ATOM     13   O  A00 X   1      28.451  70.092   7.2570  0.00  0.00     0.000 OA
ATOM     14   O  A00 X   1      27.450  70.059   5.0990  0.00  0.00     0.000 OA
ATOM     15   S  A00 X   1      28.683  70.061   5.8390  0.00  0.00     0.000 S
ENDBRANCH 2 11
BRANCH 5 16
ATOM     16   C  A00 X   1      31.107  65.944   8.7190  0.00  0.00     0.000 C
ATOM     17   O  A00 X   1      31.459  66.860   9.4330  0.00  0.00     0.000 OA
ATOM     18   O  A00 X   1      30.280  65.157   9.1360  0.00  0.00     0.000 OA
ENDBRANCH 5 16
BRANCH 1 19
ATOM     19  O4  A00 X   2      28.450  65.847   6.8200  0.00  0.00     0.000 O
BRANCH 19 23
ATOM     20  C1  A00 X   2      27.166  63.558   3.4320  0.00  0.00     0.000 C
ATOM     21  C2  A00 X   2      26.507  64.941   3.6510  0.00  0.00     0.000 C
ATOM     22  C3  A00 X   2      27.350  65.805   4.6120  0.00  0.00     0.000 C
ATOM     23  C4  A00 X   2      27.612  65.050   5.9340  0.00  0.00     0.000 C
ATOM     24  C5  A00 X   2      28.253  63.680   5.5790  0.00  0.00     0.000 C
ATOM     25  O5  A00 X   2      27.334  62.939   4.7350  0.00  0.00     0.000 O
ATOM     26   O  A00 X   2      26.735  67.100   4.7280  0.00  0.00     0.000 O
ATOM     28  HD  A00 X   2      25.953  66.768   4.8970  0.00  0.00     0.000 HD
BRANCH 21 30
ATOM     28   N  A00 X   2      25.257  64.388   3.1210  0.00  0.00     0.000 N
ATOM     30  HD  A00 X   2      25.174  65.250   3.1100  0.00  0.00     0.000 HD
ATOM     30   O  A00 X   2      24.106  66.104   2.0320  0.00  0.00     0.000 OA
ATOM     31   S  A00 X   2      23.951  65.277   3.1760  0.00  0.00     0.000 S
ATOM     32   O  A00 X   2      22.888  64.323   3.0920  0.00  0.00     0.000 OA
ATOM     33   O  A00 X   2      23.935  65.929   4.4510  0.00  0.00     0.000 OA
ENDBRANCH 21 30
BRANCH 24 34
ATOM     34   C  A00 X   2      28.825  62.825   6.7340  0.00  0.00     0.000 C
ATOM     35   O  A00 X   2      26.873  61.686   9.5890  0.00  0.00     0.000 OA
ATOM     36   O  A00 X   2      27.941  62.828   7.8730  0.00  0.00     0.000 O
ATOM     37   O  A00 X   2      26.297  61.252   7.3370  0.00  0.00     0.000 OA
ATOM     38   S  A00 X   2      27.363  61.422   8.2760  0.00  0.00     0.000 S
ATOM     39   O  A00 X   2      28.458  60.500   8.2110  0.00  0.00     0.000 OA
ENDBRANCH 24 34
BRANCH 20 40
ATOM     40  O4  A00 X   3      28.454  63.828   2.8600  0.00  0.00     0.000 O
BRANCH 40 44
ATOM     41  C1  A00 X   3      32.003  63.100   2.8410  0.00  0.00     0.000 C
ATOM     42  C2  A00 X   3      31.316  64.154   1.9470  0.00  0.00     0.000 C
ATOM     43  C3  A00 X   3      30.098  63.545   1.2050  0.00  0.00     0.000 C
ATOM     44  C4  A00 X   3      29.121  62.796   2.1020  0.00  0.00     0.000 C
ATOM     45  C5  A00 X   3      29.885  61.752   2.9660  0.00  0.00     0.000 C
ATOM     46  O5  A00 X   3      31.031  62.368   3.6380  0.00  0.00     0.000 O
ATOM     47   O  A00 X   3      29.437  64.407   0.2810  0.00  0.00     0.000 O
ATOM     49  HD  A00 X   3      28.730  64.024   0.6030  0.00  0.00     0.000 HD
BRANCH 42 49
ATOM     49   O  A00 X   3      30.920  65.245   2.8060  0.00  0.00     0.000 O
ATOM     50   O  A00 X   3      29.747  67.316   2.5480  0.00  0.00     0.000 OA
ATOM     51   O  A00 X   3      31.313  66.678   0.8960  0.00  0.00     0.000 OA
ATOM     52   O  A00 X   3      32.113  67.254   3.0450  0.00  0.00     0.000 OA
ATOM     53   S  A00 X   3      31.022  66.716   2.3080  0.00  0.00     0.000 S
ENDBRANCH 42 49
BRANCH 45 54
ATOM     54   C  A00 X   3      30.259  60.507   2.1520  0.00  0.00     0.000 C
ATOM     55   O  A00 X   3      30.710  59.522   2.7000  0.00  0.00     0.000 OA
ATOM     56   O  A00 X   3      30.113  60.485   0.9400  0.00  0.00     0.000 OA
ENDBRANCH 45 54
BRANCH 41 57
ATOM     57  O4  A00 X   4      32.896  62.254   2.0820  0.00  0.00     0.000 O
BRANCH 57 61
ATOM     58  C1  A00 X   4      36.633  60.317   3.0390  0.00  0.00     0.000 C
ATOM     59  C2  A00 X   4      35.368  59.926   3.8430  0.00  0.00     0.000 C
ATOM     60  C3  A00 X   4      34.054  60.399   3.1900  0.00  0.00     0.000 C
ATOM     61  C4  A00 X   4      34.126  61.882   2.7660  0.00  0.00     0.000 C
ATOM     62  C5  A00 X   4      35.332  62.001   1.8020  0.00  0.00     0.000 C
ATOM     63  O5  A00 X   4      36.549  61.662   2.5160  0.00  0.00     0.000 O
BRANCH 59 66
ATOM     64   N  A00 X   4      35.409  60.567   5.1690  0.00  0.00     0.000 N
ATOM     66  HD  A00 X   4      35.847  61.311   5.2410  0.00  0.00     0.000 HD
ATOM     66   O  A00 X   4      36.834  58.764   5.8870  0.00  0.00     0.000 OA
ATOM     67   S  A00 X   4      35.886  59.692   6.4200  0.00  0.00     0.000 S
ATOM     68   O  A00 X   4      36.432  60.717   7.2600  0.00  0.00     0.000 OA
ATOM     69   O  A00 X   4      34.622  59.177   6.8650  0.00  0.00     0.000 OA
ENDBRANCH 59 66
BRANCH 62 70
ATOM     70   C  A00 X   4      35.505  63.406   1.1770  0.00  0.00     0.000 C
ATOM     71   O  A00 X   4      36.496  66.493   2.7880  0.00  0.00     0.000 OA
ATOM     72   O  A00 X   4      34.695  66.025   1.3460  0.00  0.00     0.000 OA
ATOM     73   O  A00 X   4      36.147  64.273   2.1260  0.00  0.00     0.000 O
ATOM     74   O  A00 X   4      34.600  65.291   3.6680  0.00  0.00     0.000 OA
ATOM     75   S  A00 X   4      35.406  65.595   2.5300  0.00  0.00     0.000 S
ENDBRANCH 62 70
ENDBRANCH 57 61
ENDBRANCH 41 57
ENDBRANCH 40 44
ENDBRANCH 20 40
ENDBRANCH 19 23
ENDBRANCH 1 19
TORSDOF 14
ENDMDL
MODEL 80
REMARK VINA RESULT:      -0.2     57.196     61.174
ROOT
ATOM      1  C1  A00 X   1      19.556  30.228  61.9750  0.00  0.00     0.000 C
ATOM      2  C2  A00 X   1      20.187  31.500  61.3480  0.00  0.00     0.000 C
ATOM      3  C3  A00 X   1      21.604  31.321  60.7090  0.00  0.00     0.000 C
ATOM      4  C4  A00 X   1      22.353  30.020  61.0980  0.00  0.00     0.000 C
ATOM      5  C5  A00 X   1      21.841  29.430  62.4120  0.00  0.00     0.000 C
ATOM      6  O5  A00 X   1      20.456  29.106  62.1540  0.00  0.00     0.000 O
ATOM      7   O  A00 X   1      22.433  32.404  61.1250  0.00  0.00     0.000 O
ATOM      9  HD  A00 X   1      22.916  31.686  61.1570  0.00  0.00     0.000 HD
ATOM      9   O  A00 X   1      22.267  29.040  60.0630  0.00  0.00     0.000 O
ATOM     11  HD  A00 X   1      22.750  28.322  60.0950  0.00  0.00     0.000 HD
ENDROOT
BRANCH 2 11
ATOM     11   O  A00 X   1      19.278  31.990  60.3430  0.00  0.00     0.000 O
ATOM     12   O  A00 X   1      19.656  34.063  59.1910  0.00  0.00     0.000 OA
ATOM     13   O  A00 X   1      19.259  34.089  61.5910  0.00  0.00     0.000 OA
ATOM     14   O  A00 X   1      17.513  33.497  60.0870  0.00  0.00     0.000 OA
ATOM     15   S  A00 X   1      18.933  33.519  60.3130  0.00  0.00     0.000 S
ENDBRANCH 2 11
BRANCH 5 16
ATOM     16   C  A00 X   1      22.045  30.318  63.6430  0.00  0.00     0.000 C
ATOM     17   O  A00 X   1      22.838  31.233  63.5750  0.00  0.00     0.000 OA
ATOM     18   O  A00 X   1      21.436  30.143  64.6800  0.00  0.00     0.000 OA
ENDBRANCH 5 16
BRANCH 1 19
ATOM     19  O4  A00 X   2      18.815  30.509  63.1870  0.00  0.00     0.000 O
BRANCH 19 23
ATOM     20  C1  A00 X   2      15.787  27.588  62.3730  0.00  0.00     0.000 C
ATOM     21  C2  A00 X   2      15.471  29.062  62.0200  0.00  0.00     0.000 C
ATOM     22  C3  A00 X   2      16.765  29.901  61.9570  0.00  0.00     0.000 C
ATOM     23  C4  A00 X   2      17.570  29.757  63.2680  0.00  0.00     0.000 C
ATOM     24  C5  A00 X   2      17.804  28.242  63.5180  0.00  0.00     0.000 C
ATOM     25  O5  A00 X   2      16.516  27.582  63.6290  0.00  0.00     0.000 O
ATOM     26   O  A00 X   2      16.426  31.241  61.5610  0.00  0.00     0.000 O
ATOM     28  HD  A00 X   2      15.803  31.314  62.1570  0.00  0.00     0.000 HD
BRANCH 21 30
ATOM     28   N  A00 X   2      14.074  28.810  62.3860  0.00  0.00     0.000 N
ATOM     30  HD  A00 X   2      14.086  29.550  61.9360  0.00  0.00     0.000 HD
ATOM     30   O  A00 X   2      12.718  30.165  61.0500  0.00  0.00     0.000 OA
ATOM     31   S  A00 X   2      13.067  30.028  62.4200  0.00  0.00     0.000 S
ATOM     32   O  A00 X   2      12.012  29.572  63.2700  0.00  0.00     0.000 OA
ATOM     33   O  A00 X   2      13.755  31.129  63.0270  0.00  0.00     0.000 OA
ENDBRANCH 21 30
BRANCH 24 34
ATOM     34   C  A00 X   2      18.783  27.834  64.6440  0.00  0.00     0.000 C
ATOM     35   O  A00 X   2      17.826  25.908  67.5820  0.00  0.00     0.000 OA
ATOM     36   O  A00 X   2      18.073  27.401  65.8220  0.00  0.00     0.000 O
ATOM     37   O  A00 X   2      17.470  25.189  65.3570  0.00  0.00     0.000 OA
ATOM     38   S  A00 X   2      18.329  25.909  66.2480  0.00  0.00     0.000 S
ATOM     39   O  A00 X   2      19.739  25.690  66.1310  0.00  0.00     0.000 OA
ENDBRANCH 24 34
BRANCH 20 40
ATOM     40  O4  A00 X   3      16.639  27.112  61.3210  0.00  0.00     0.000 O
BRANCH 40 44
ATOM     41  C1  A00 X   3      19.562  25.214  60.3310  0.00  0.00     0.000 C
ATOM     42  C2  A00 X   3      18.636  25.977  59.3580  0.00  0.00     0.000 C
ATOM     43  C3  A00 X   3      17.151  25.602  59.5960  0.00  0.00     0.000 C
ATOM     44  C4  A00 X   3      16.699  25.695  61.0480  0.00  0.00     0.000 C
ATOM     45  C5  A00 X   3      17.674  24.901  61.9610  0.00  0.00     0.000 C
ATOM     46  O5  A00 X   3      19.064  25.279  61.6960  0.00  0.00     0.000 O
ATOM     47   O  A00 X   3      16.210  26.182  58.6950  0.00  0.00     0.000 O
ATOM     49  HD  A00 X   3      15.732  26.249  59.4140  0.00  0.00     0.000 HD
BRANCH 42 49
ATOM     49   O  A00 X   3      18.866  27.387  59.5740  0.00  0.00     0.000 O
ATOM     50   O  A00 X   3      17.978  29.437  58.7150  0.00  0.00     0.000 OA
ATOM     51   O  A00 X   3      18.393  27.658  57.2160  0.00  0.00     0.000 OA
ATOM     52   O  A00 X   3      20.239  28.733  58.2260  0.00  0.00     0.000 OA
ATOM     53   S  A00 X   3      18.870  28.375  58.3710  0.00  0.00     0.000 S
ENDBRANCH 42 49
BRANCH 45 54
ATOM     54   C  A00 X   3      17.433  23.389  61.8710  0.00  0.00     0.000 C
ATOM     55   O  A00 X   3      16.702  22.930  61.0180  0.00  0.00     0.000 OA
ATOM     56   O  A00 X   3      17.969  22.622  62.6550  0.00  0.00     0.000 OA
ENDBRANCH 45 54
BRANCH 41 57
ATOM     57  O4  A00 X   4      19.833  23.872  59.8680  0.00  0.00     0.000 O
BRANCH 57 61
ATOM     58  C1  A00 X   4      23.281  21.294  60.1850  0.00  0.00     0.000 C
ATOM     59  C2  A00 X   4      22.576  21.752  61.4860  0.00  0.00     0.000 C
ATOM     60  C3  A00 X   4      21.177  22.354  61.2470  0.00  0.00     0.000 C
ATOM     61  C4  A00 X   4      21.188  23.397  60.1090  0.00  0.00     0.000 C
ATOM     62  C5  A00 X   4      21.731  22.668  58.8550  0.00  0.00     0.000 C
ATOM     63  O5  A00 X   4      23.094  22.238  59.1060  0.00  0.00     0.000 O
BRANCH 59 66
ATOM     64   N  A00 X   4      23.352  22.817  62.1460  0.00  0.00     0.000 N
ATOM     66  HD  A00 X   4      23.842  23.325  61.6440  0.00  0.00     0.000 HD
ATOM     66   O  A00 X   4      24.742  21.088  63.0810  0.00  0.00     0.000 OA
ATOM     67   S  A00 X   4      24.300  22.417  63.3700  0.00  0.00     0.000 S
ATOM     68   O  A00 X   4      25.302  23.437  63.2650  0.00  0.00     0.000 OA
ATOM     69   O  A00 X   4      23.390  22.596  64.4650  0.00  0.00     0.000 OA
ENDBRANCH 59 66
BRANCH 62 70
ATOM     70   C  A00 X   4      21.715  23.526  57.5680  0.00  0.00     0.000 C
ATOM     71   O  A00 X   4      23.753  26.403  56.7430  0.00  0.00     0.000 OA
ATOM     72   O  A00 X   4      21.424  26.084  56.6110  0.00  0.00     0.000 OA
ATOM     73   O  A00 X   4      22.853  24.403  57.5680  0.00  0.00     0.000 O
ATOM     74   O  A00 X   4      22.467  26.448  58.7830  0.00  0.00     0.000 OA
ATOM     75   S  A00 X   4      22.591  25.945  57.4520  0.00  0.00     0.000 S
ENDBRANCH 62 70
ENDBRANCH 57 61
ENDBRANCH 41 57
ENDBRANCH 40 44
ENDBRANCH 20 40
ENDBRANCH 19 23
ENDBRANCH 1 19
TORSDOF 14
ENDMDL
MODEL 81
REMARK VINA RESULT:      -0.2     57.504     61.625
ROOT
ATOM      1  C1  A00 X   1      21.037  65.829  11.8820  0.00  0.00     0.000 C
ATOM      2  C2  A00 X   1      19.961  66.944  11.8150  0.00  0.00     0.000 C
ATOM      3  C3  A00 X   1      20.308  68.280  12.5510  0.00  0.00     0.000 C
ATOM      4  C4  A00 X   1      21.493  68.205  13.5490  0.00  0.00     0.000 C
ATOM      5  C5  A00 X   1      21.747  66.779  14.0360  0.00  0.00     0.000 C
ATOM      6  O5  A00 X   1      22.100  66.041  12.8450  0.00  0.00     0.000 O
ATOM      7   O  A00 X   1      19.171  68.697  13.3030  0.00  0.00     0.000 O
ATOM      9  HD  A00 X   1      19.869  68.837  13.7970  0.00  0.00     0.000 HD
ATOM      9   O  A00 X   1      22.688  68.741  12.9810  0.00  0.00     0.000 O
ATOM     11  HD  A00 X   1      23.386  68.880  13.4750  0.00  0.00     0.000 HD
ENDROOT
BRANCH 2 11
ATOM     11   O  A00 X   1      19.708  67.227  10.4250  0.00  0.00     0.000 O
ATOM     12   O  A00 X   1      17.905  68.651   9.7260  0.00  0.00     0.000 OA
ATOM     13   O  A00 X   1      17.398  66.559  10.8590  0.00  0.00     0.000 OA
ATOM     14   O  A00 X   1      18.326  66.549   8.6690  0.00  0.00     0.000 OA
ATOM     15   S  A00 X   1      18.225  67.259   9.9150  0.00  0.00     0.000 S
ENDBRANCH 2 11
BRANCH 5 16
ATOM     16   C  A00 X   1      20.596  66.150  14.8290  0.00  0.00     0.000 C
ATOM     17   O  A00 X   1      20.636  64.960  15.0650  0.00  0.00     0.000 OA
ATOM     18   O  A00 X   1      19.653  66.799  15.2330  0.00  0.00     0.000 OA
ENDBRANCH 5 16
BRANCH 1 19
ATOM     19  O4  A00 X   2      20.466  64.504  12.0090  0.00  0.00     0.000 O
BRANCH 19 23
ATOM     20  C1  A00 X   2      23.503  62.625   9.6400  0.00  0.00     0.000 C
ATOM     21  C2  A00 X   2      22.178  63.003   8.9350  0.00  0.00     0.000 C
ATOM     22  C3  A00 X   2      21.385  64.030   9.7690  0.00  0.00     0.000 C
ATOM     23  C4  A00 X   2      21.171  63.512  11.2090  0.00  0.00     0.000 C
ATOM     24  C5  A00 X   2      22.563  63.152  11.7960  0.00  0.00     0.000 C
ATOM     25  O5  A00 X   2      23.170  62.129  10.9640  0.00  0.00     0.000 O
ATOM     26   O  A00 X   2      20.201  64.400   9.0420  0.00  0.00     0.000 O
ATOM     28  HD  A00 X   2      19.971  63.577   8.8980  0.00  0.00     0.000 HD
BRANCH 21 30
ATOM     28   N  A00 X   2      22.324  61.806   8.1010  0.00  0.00     0.000 N
ATOM     30  HD  A00 X   2      21.732  62.308   7.7170  0.00  0.00     0.000 HD
ATOM     30   O  A00 X   2      21.379  62.254   6.0120  0.00  0.00     0.000 OA
ATOM     31   S  A00 X   2      21.143  61.410   7.1290  0.00  0.00     0.000 S
ATOM     32   O  A00 X   2      21.355  60.016   6.8880  0.00  0.00     0.000 OA
ATOM     33   O  A00 X   2      19.919  61.609   7.8460  0.00  0.00     0.000 OA
ENDBRANCH 21 30
BRANCH 24 34
ATOM     34   C  A00 X   2      22.652  62.825  13.3050  0.00  0.00     0.000 C
ATOM     35   O  A00 X   2      23.744  59.617  14.6370  0.00  0.00     0.000 OA
ATOM     36   O  A00 X   2      22.766  61.405  13.5270  0.00  0.00     0.000 O
ATOM     37   O  A00 X   2      25.026  60.936  13.1510  0.00  0.00     0.000 OA
ATOM     38   S  A00 X   2      24.091  60.940  14.2340  0.00  0.00     0.000 S
ATOM     39   O  A00 X   2      24.322  61.861  15.3060  0.00  0.00     0.000 OA
ENDBRANCH 24 34
BRANCH 20 40
ATOM     40  O4  A00 X   3      24.242  63.849   9.7580  0.00  0.00     0.000 O
BRANCH 40 44
ATOM     41  C1  A00 X   3      26.370  66.019  11.7290  0.00  0.00     0.000 C
ATOM     42  C2  A00 X   3      25.868  66.337  10.3040  0.00  0.00     0.000 C
ATOM     43  C3  A00 X   3      26.149  65.155   9.3400  0.00  0.00     0.000 C
ATOM     44  C4  A00 X   3      25.682  63.798   9.8490  0.00  0.00     0.000 C
ATOM     45  C5  A00 X   3      26.231  63.549  11.2830  0.00  0.00     0.000 C
ATOM     46  O5  A00 X   3      25.952  64.692  12.1540  0.00  0.00     0.000 O
ATOM     47   O  A00 X   3      25.805  65.371   7.9730  0.00  0.00     0.000 O
ATOM     49  HD  A00 X   3      25.551  64.545   8.0240  0.00  0.00     0.000 HD
BRANCH 42 49
ATOM     49   O  A00 X   3      24.454  66.610  10.4050  0.00  0.00     0.000 O
ATOM     50   O  A00 X   3      22.665  67.072   8.8830  0.00  0.00     0.000 OA
ATOM     51   O  A00 X   3      24.769  68.084   8.5120  0.00  0.00     0.000 OA
ATOM     52   O  A00 X   3      23.509  68.760  10.3940  0.00  0.00     0.000 OA
ATOM     53   S  A00 X   3      23.795  67.692   9.5000  0.00  0.00     0.000 S
ENDBRANCH 42 49
BRANCH 45 54
ATOM     54   C  A00 X   3      27.712  63.152  11.2630  0.00  0.00     0.000 C
ATOM     55   O  A00 X   3      28.360  63.231  10.2390  0.00  0.00     0.000 OA
ATOM     56   O  A00 X   3      28.265  62.749  12.2740  0.00  0.00     0.000 OA
ENDBRANCH 45 54
BRANCH 41 57
ATOM     57  O4  A00 X   4      27.790  66.258  11.8610  0.00  0.00     0.000 O
BRANCH 57 61
ATOM     58  C1  A00 X   4      30.262  67.552  15.1550  0.00  0.00     0.000 C
ATOM     59  C2  A00 X   4      29.492  66.214  15.2870  0.00  0.00     0.000 C
ATOM     60  C3  A00 X   4      28.946  65.684  13.9450  0.00  0.00     0.000 C
ATOM     61  C4  A00 X   4      28.211  66.785  13.1510  0.00  0.00     0.000 C
ATOM     62  C5  A00 X   4      29.231  67.934  12.9530  0.00  0.00     0.000 C
ATOM     63  O5  A00 X   4      29.606  68.468  14.2480  0.00  0.00     0.000 O
BRANCH 59 66
ATOM     64   N  A00 X   4      28.308  66.380  16.1500  0.00  0.00     0.000 N
ATOM     66  HD  A00 X   4      27.943  67.164  16.1820  0.00  0.00     0.000 HD
ATOM     66   O  A00 X   4      29.779  66.138  18.0420  0.00  0.00     0.000 OA
ATOM     67   S  A00 X   4      28.414  65.917  17.6770  0.00  0.00     0.000 S
ATOM     68   O  A00 X   4      27.462  66.802  18.2820  0.00  0.00     0.000 OA
ATOM     69   O  A00 X   4      27.964  64.559  17.5620  0.00  0.00     0.000 OA
ENDBRANCH 59 66
BRANCH 62 70
ATOM     70   C  A00 X   4      28.711  69.097  12.0740  0.00  0.00     0.000 C
ATOM     71   O  A00 X   4      26.130  71.521  12.8290  0.00  0.00     0.000 OA
ATOM     72   O  A00 X   4      26.460  70.174  10.9260  0.00  0.00     0.000 OA
ATOM     73   O  A00 X   4      27.865  69.948  12.8650  0.00  0.00     0.000 O
ATOM     74   O  A00 X   4      25.585  69.177  12.9690  0.00  0.00     0.000 OA
ATOM     75   S  A00 X   4      26.396  70.187  12.3700  0.00  0.00     0.000 S
ENDBRANCH 62 70
ENDBRANCH 57 61
ENDBRANCH 41 57
ENDBRANCH 40 44
ENDBRANCH 20 40
ENDBRANCH 19 23
ENDBRANCH 1 19
TORSDOF 14
ENDMDL
MODEL 82
REMARK VINA RESULT:      -0.2     61.452     65.211
ROOT
ATOM      1  C1  A00 X   1      19.204  43.485  57.3140  0.00  0.00     0.000 C
ATOM      2  C2  A00 X   1      20.450  42.561  57.2620  0.00  0.00     0.000 C
ATOM      3  C3  A00 X   1      20.350  41.227  58.0720  0.00  0.00     0.000 C
ATOM      4  C4  A00 X   1      19.197  41.157  59.1060  0.00  0.00     0.000 C
ATOM      5  C5  A00 X   1      18.721  42.545  59.5340  0.00  0.00     0.000 C
ATOM      6  O5  A00 X   1      18.218  43.151  58.3220  0.00  0.00     0.000 O
ATOM      7   O  A00 X   1      21.560  41.043  58.8030  0.00  0.00     0.000 O
ATOM      9  HD  A00 X   1      20.909  40.816  59.3270  0.00  0.00     0.000 HD
ATOM      9   O  A00 X   1      18.093  40.402  58.6070  0.00  0.00     0.000 O
ATOM     11  HD  A00 X   1      17.442  40.175  59.1300  0.00  0.00     0.000 HD
ENDROOT
BRANCH 2 11
ATOM     11   O  A00 X   1      20.710  42.252  55.8790  0.00  0.00     0.000 O
ATOM     12   O  A00 X   1      22.556  40.869  55.2110  0.00  0.00     0.000 OA
ATOM     13   O  A00 X   1      22.997  43.004  56.2900  0.00  0.00     0.000 OA
ATOM     14   O  A00 X   1      22.065  42.930  54.1030  0.00  0.00     0.000 OA
ATOM     15   S  A00 X   1      22.191  42.255  55.3660  0.00  0.00     0.000 S
ENDBRANCH 2 11
BRANCH 5 16
ATOM     16   C  A00 X   1      19.771  43.396  60.2550  0.00  0.00     0.000 C
ATOM     17   O  A00 X   1      20.748  42.844  60.7180  0.00  0.00     0.000 OA
ATOM     18   O  A00 X   1      19.665  44.600  60.3730  0.00  0.00     0.000 OA
ENDBRANCH 5 16
BRANCH 1 19
ATOM     19  O4  A00 X   2      19.550  44.891  57.3590  0.00  0.00     0.000 O
BRANCH 19 23
ATOM     20  C1  A00 X   2      16.296  46.089  54.8410  0.00  0.00     0.000 C
ATOM     21  C2  A00 X   2      17.681  45.900  54.1770  0.00  0.00     0.000 C
ATOM     22  C3  A00 X   2      18.616  45.072  55.0820  0.00  0.00     0.000 C
ATOM     23  C4  A00 X   2      18.707  45.702  56.4910  0.00  0.00     0.000 C
ATOM     24  C5  A00 X   2      17.261  45.854  57.0360  0.00  0.00     0.000 C
ATOM     25  O5  A00 X   2      16.509  46.710  56.1360  0.00  0.00     0.000 O
ATOM     26   O  A00 X   2      19.862  44.867  54.3940  0.00  0.00     0.000 O
ATOM     28  HD  A00 X   2      19.953  45.707  54.2030  0.00  0.00     0.000 HD
BRANCH 21 30
ATOM     28   N  A00 X   2      17.356  47.006  53.2700  0.00  0.00     0.000 N
ATOM     30  HD  A00 X   2      18.032  46.589  52.9250  0.00  0.00     0.000 HD
ATOM     30   O  A00 X   2      18.409  46.604  51.2240  0.00  0.00     0.000 OA
ATOM     31   S  A00 X   2      18.476  47.539  52.2910  0.00  0.00     0.000 S
ATOM     32   O  A00 X   2      18.040  48.861  51.9630  0.00  0.00     0.000 OA
ATOM     33   O  A00 X   2      19.700  47.589  53.0340  0.00  0.00     0.000 OA
ENDBRANCH 21 30
BRANCH 24 34
ATOM     34   C  A00 X   2      17.083  46.248  58.5220  0.00  0.00     0.000 C
ATOM     35   O  A00 X   2      18.444  49.282  60.0050  0.00  0.00     0.000 OA
ATOM     36   O  A00 X   2      18.007  47.288  58.9010  0.00  0.00     0.000 O
ATOM     37   O  A00 X   2      17.019  49.258  58.1170  0.00  0.00     0.000 OA
ATOM     38   S  A00 X   2      17.345  48.637  59.3650  0.00  0.00     0.000 S
ATOM     39   O  A00 X   2      16.262  48.279  60.2310  0.00  0.00     0.000 OA
ENDBRANCH 24 34
BRANCH 20 40
ATOM     40  O4  A00 X   3      15.770  44.767  55.0230  0.00  0.00     0.000 O
BRANCH 40 44
ATOM     41  C1  A00 X   3      14.080  42.421  57.2070  0.00  0.00     0.000 C
ATOM     42  C2  A00 X   3      14.594  42.090  55.7890  0.00  0.00     0.000 C
ATOM     43  C3  A00 X   3      14.097  43.138  54.7600  0.00  0.00     0.000 C
ATOM     44  C4  A00 X   3      14.344  44.587  55.1610  0.00  0.00     0.000 C
ATOM     45  C5  A00 X   3      13.795  44.842  56.5930  0.00  0.00     0.000 C
ATOM     46  O5  A00 X   3      14.281  43.825  57.5280  0.00  0.00     0.000 O
ATOM     47   O  A00 X   3      14.440  42.885  53.3990  0.00  0.00     0.000 O
ATOM     49  HD  A00 X   3      14.555  43.743  53.3860  0.00  0.00     0.000 HD
BRANCH 42 49
ATOM     49   O  A00 X   3      16.037  42.061  55.8580  0.00  0.00     0.000 O
ATOM     50   O  A00 X   3      17.840  41.766  54.3120  0.00  0.00     0.000 OA
ATOM     51   O  A00 X   3      15.925  40.395  54.1070  0.00  0.00     0.000 OA
ATOM     52   O  A00 X   3      17.324  40.101  55.9890  0.00  0.00     0.000 OA
ATOM     53   S  A00 X   3      16.843  41.026  55.0210  0.00  0.00     0.000 S
ENDBRANCH 42 49
BRANCH 45 54
ATOM     54   C  A00 X   3      12.269  44.988  56.5990  0.00  0.00     0.000 C
ATOM     55   O  A00 X   3      11.614  44.675  55.6260  0.00  0.00     0.000 OA
ATOM     56   O  A00 X   3      11.686  45.421  57.5810  0.00  0.00     0.000 OA
ENDBRANCH 45 54
BRANCH 41 57
ATOM     57  O4  A00 X   4      12.724  41.962  57.4030  0.00  0.00     0.000 O
BRANCH 57 61
ATOM     58  C1  A00 X   4      10.604  40.440  60.8430  0.00  0.00     0.000 C
ATOM     59  C2  A00 X   4      11.155  41.887  60.8920  0.00  0.00     0.000 C
ATOM     60  C3  A00 X   4      11.563  42.437  59.5100  0.00  0.00     0.000 C
ATOM     61  C4  A00 X   4      12.436  41.432  58.7280  0.00  0.00     0.000 C
ATOM     62  C5  A00 X   4      11.607  40.129  58.6160  0.00  0.00     0.000 C
ATOM     63  O5  A00 X   4      11.366  39.600  59.9450  0.00  0.00     0.000 O
BRANCH 59 66
ATOM     64   N  A00 X   4      12.379  41.930  61.7130  0.00  0.00     0.000 N
ATOM     66  HD  A00 X   4      12.855  41.208  61.7590  0.00  0.00     0.000 HD
ATOM     66   O  A00 X   4      10.954  42.037  63.6510  0.00  0.00     0.000 OA
ATOM     67   S  A00 X   4      12.259  42.437  63.2250  0.00  0.00     0.000 S
ATOM     68   O  A00 X   4      13.349  41.725  63.8240  0.00  0.00     0.000 OA
ATOM     69   O  A00 X   4      12.503  43.840  63.0410  0.00  0.00     0.000 OA
ENDBRANCH 59 66
BRANCH 62 70
ATOM     70   C  A00 X   4      12.275  39.025  57.7620  0.00  0.00     0.000 C
ATOM     71   O  A00 X   4      15.229  37.068  58.5060  0.00  0.00     0.000 OA
ATOM     72   O  A00 X   4      14.629  38.265  56.5690  0.00  0.00     0.000 OA
ATOM     73   O  A00 X   4      13.269  38.351  58.5510  0.00  0.00     0.000 O
ATOM     74   O  A00 X   4      15.402  39.473  58.5390  0.00  0.00     0.000 OA
ATOM     75   S  A00 X   4      14.741  38.324  58.0090  0.00  0.00     0.000 S
ENDBRANCH 62 70
ENDBRANCH 57 61
ENDBRANCH 41 57
ENDBRANCH 40 44
ENDBRANCH 20 40
ENDBRANCH 19 23
ENDBRANCH 1 19
TORSDOF 14
ENDMDL
MODEL 83
REMARK VINA RESULT:      -0.2     26.078     29.976
ROOT
ATOM      1  C1  A00 X   1      27.460  12.631  27.9690  0.00  0.00     0.000 C
ATOM      2  C2  A00 X   1      27.547  12.089  26.5180  0.00  0.00     0.000 C
ATOM      3  C3  A00 X   1      27.467  10.535  26.3590  0.00  0.00     0.000 C
ATOM      4  C4  A00 X   1      27.680   9.718  27.6600  0.00  0.00     0.000 C
ATOM      5  C5  A00 X   1      28.449  10.508  28.7180  0.00  0.00     0.000 C
ATOM      6  O5  A00 X   1      27.603  11.641  29.0170  0.00  0.00     0.000 O
ATOM      7   O  A00 X   1      28.479  10.115  25.4470  0.00  0.00     0.000 O
ATOM      9  HD  A00 X   1      28.464   9.540  26.0950  0.00  0.00     0.000 HD
ATOM      9   O  A00 X   1      26.439   9.267  28.2020  0.00  0.00     0.000 O
ATOM     11  HD  A00 X   1      26.424   8.692  28.8500  0.00  0.00     0.000 HD
ENDROOT
BRANCH 2 11
ATOM     11   O  A00 X   1      26.482  12.693  25.7590  0.00  0.00     0.000 O
ATOM     12   O  A00 X   1      25.980  12.015  23.5100  0.00  0.00     0.000 OA
ATOM     13   O  A00 X   1      28.133  13.041  23.9920  0.00  0.00     0.000 OA
ATOM     14   O  A00 X   1      26.132  14.321  24.1220  0.00  0.00     0.000 OA
ATOM     15   S  A00 X   1      26.718  13.013  24.2430  0.00  0.00     0.000 S
ENDBRANCH 2 11
BRANCH 5 16
ATOM     16   C  A00 X   1      29.878  10.897  28.3240  0.00  0.00     0.000 C
ATOM     17   O  A00 X   1      30.473  11.700  29.0140  0.00  0.00     0.000 OA
ATOM     18   O  A00 X   1      30.437  10.427  27.3530  0.00  0.00     0.000 OA
ENDBRANCH 5 16
BRANCH 1 19
ATOM     19  O4  A00 X   2      28.326  13.770  28.1960  0.00  0.00     0.000 O
BRANCH 19 23
ATOM     20  C1  A00 X   2      25.481  15.836  30.6450  0.00  0.00     0.000 C
ATOM     21  C2  A00 X   2      25.572  16.245  29.1550  0.00  0.00     0.000 C
ATOM     22  C3  A00 X   2      26.292  15.159  28.3300  0.00  0.00     0.000 C
ATOM     23  C4  A00 X   2      27.670  14.831  28.9470  0.00  0.00     0.000 C
ATOM     24  C5  A00 X   2      27.446  14.456  30.4370  0.00  0.00     0.000 C
ATOM     25  O5  A00 X   2      26.832  15.583  31.1150  0.00  0.00     0.000 O
ATOM     26   O  A00 X   2      26.290  15.553  26.9470  0.00  0.00     0.000 O
ATOM     28  HD  A00 X   2      26.596  16.345  27.1200  0.00  0.00     0.000 HD
BRANCH 21 30
ATOM     28   N  A00 X   2      25.289  17.629  29.5500  0.00  0.00     0.000 N
ATOM     30  HD  A00 X   2      25.154  17.580  28.6960  0.00  0.00     0.000 HD
ATOM     30   O  A00 X   2      24.093  18.649  27.8220  0.00  0.00     0.000 OA
ATOM     31   S  A00 X   2      25.361  18.762  28.4500  0.00  0.00     0.000 S
ATOM     32   O  A00 X   2      25.555  19.959  29.2090  0.00  0.00     0.000 OA
ATOM     33   O  A00 X   2      26.513  18.494  27.6420  0.00  0.00     0.000 OA
ENDBRANCH 21 30
BRANCH 24 34
ATOM     34   C  A00 X   2      28.638  13.863  31.2240  0.00  0.00     0.000 C
ATOM     35   O  A00 X   2      30.196  15.478  34.0920  0.00  0.00     0.000 OA
ATOM     36   O  A00 X   2      29.260  14.860  32.0590  0.00  0.00     0.000 O
ATOM     37   O  A00 X   2      27.890  14.972  33.9510  0.00  0.00     0.000 OA
ATOM     38   S  A00 X   2      29.216  14.564  33.6030  0.00  0.00     0.000 S
ATOM     39   O  A00 X   2      29.547  13.179  33.7600  0.00  0.00     0.000 OA
ENDBRANCH 24 34
BRANCH 20 40
ATOM     40  O4  A00 X   3      24.729  14.614  30.6660  0.00  0.00     0.000 O
BRANCH 40 44
ATOM     41  C1  A00 X   3      24.482  11.246  31.9780  0.00  0.00     0.000 C
ATOM     42  C2  A00 X   3      23.508  11.865  30.9520  0.00  0.00     0.000 C
ATOM     43  C3  A00 X   3      22.987  13.241  31.4410  0.00  0.00     0.000 C
ATOM     44  C4  A00 X   3      24.076  14.208  31.8880  0.00  0.00     0.000 C
ATOM     45  C5  A00 X   3      25.010  13.516  32.9210  0.00  0.00     0.000 C
ATOM     46  O5  A00 X   3      25.469  12.218  32.4230  0.00  0.00     0.000 O
ATOM     47   O  A00 X   3      22.011  13.868  30.6110  0.00  0.00     0.000 O
ATOM     49  HD  A00 X   3      22.453  14.582  30.8230  0.00  0.00     0.000 HD
BRANCH 42 49
ATOM     49   O  A00 X   3      24.227  11.985  29.7050  0.00  0.00     0.000 O
ATOM     50   O  A00 X   3      23.775  12.855  27.5220  0.00  0.00     0.000 OA
ATOM     51   O  A00 X   3      22.092  11.617  28.6270  0.00  0.00     0.000 OA
ATOM     52   O  A00 X   3      24.038  10.483  27.9100  0.00  0.00     0.000 OA
ATOM     53   S  A00 X   3      23.503  11.725  28.3520  0.00  0.00     0.000 S
ENDBRANCH 42 49
BRANCH 45 54
ATOM     54   C  A00 X   3      24.361  13.436  34.3080  0.00  0.00     0.000 C
ATOM     55   O  A00 X   3      25.041  13.274  35.3010  0.00  0.00     0.000 OA
ATOM     56   O  A00 X   3      23.151  13.531  34.4390  0.00  0.00     0.000 OA
ENDBRANCH 45 54
BRANCH 41 57
ATOM     57  O4  A00 X   4      23.776  10.590  33.0560  0.00  0.00     0.000 O
BRANCH 57 61
ATOM     58  C1  A00 X   4      24.810   7.368  35.7370  0.00  0.00     0.000 C
ATOM     59  C2  A00 X   4      25.389   8.778  36.0140  0.00  0.00     0.000 C
ATOM     60  C3  A00 X   4      24.681   9.899  35.2270  0.00  0.00     0.000 C
ATOM     61  C4  A00 X   4      24.523   9.540  33.7340  0.00  0.00     0.000 C
ATOM     62  C5  A00 X   4      23.735   8.207  33.6880  0.00  0.00     0.000 C
ATOM     63  O5  A00 X   4      24.515   7.170  34.3360  0.00  0.00     0.000 O
BRANCH 59 66
ATOM     64   N  A00 X   4      26.801   8.823  35.5910  0.00  0.00     0.000 N
ATOM     66  HD  A00 X   4      27.044   8.289  34.9540  0.00  0.00     0.000 HD
ATOM     66   O  A00 X   4      27.362   7.809  37.7020  0.00  0.00     0.000 OA
ATOM     67   S  A00 X   4      27.932   8.666  36.7100  0.00  0.00     0.000 S
ATOM     68   O  A00 X   4      28.989   8.090  35.9300  0.00  0.00     0.000 OA
ATOM     69   O  A00 X   4      28.140  10.044  37.0550  0.00  0.00     0.000 OA
ENDBRANCH 59 66
BRANCH 62 70
ATOM     70   C  A00 X   4      23.378   7.734  32.2580  0.00  0.00     0.000 C
ATOM     71   O  A00 X   4      25.367   5.757  29.9680  0.00  0.00     0.000 OA
ATOM     72   O  A00 X   4      24.199   7.775  29.6380  0.00  0.00     0.000 OA
ATOM     73   O  A00 X   4      24.352   6.773  31.8190  0.00  0.00     0.000 O
ATOM     74   O  A00 X   4      26.311   7.792  30.8540  0.00  0.00     0.000 OA
ATOM     75   S  A00 X   4      25.131   7.074  30.4920  0.00  0.00     0.000 S
ENDBRANCH 62 70
ENDBRANCH 57 61
ENDBRANCH 41 57
ENDBRANCH 40 44
ENDBRANCH 20 40
ENDBRANCH 19 23
ENDBRANCH 1 19
TORSDOF 14
ENDMDL
MODEL 84
REMARK VINA RESULT:      -0.2     48.855     53.241
ROOT
ATOM      1  C1  A00 X   1      50.644   9.651  42.9410  0.00  0.00     0.000 C
ATOM      2  C2  A00 X   1      51.698   8.519  43.0750  0.00  0.00     0.000 C
ATOM      3  C3  A00 X   1      52.906   8.585  42.0830  0.00  0.00     0.000 C
ATOM      4  C4  A00 X   1      52.725   9.533  40.8700  0.00  0.00     0.000 C
ATOM      5  C5  A00 X   1      51.252   9.802  40.5630  0.00  0.00     0.000 C
ATOM      6  O5  A00 X   1      50.745  10.462  41.7450  0.00  0.00     0.000 O
ATOM      7   O  A00 X   1      53.131   7.283  41.5490  0.00  0.00     0.000 O
ATOM      9  HD  A00 X   1      53.221   7.845  40.8970  0.00  0.00     0.000 HD
ATOM      9   O  A00 X   1      53.410  10.770  41.0670  0.00  0.00     0.000 O
ATOM     11  HD  A00 X   1      53.500  11.332  40.4150  0.00  0.00     0.000 HD
ENDROOT
BRANCH 2 11
ATOM     11   O  A00 X   1      52.198   8.543  44.4260  0.00  0.00     0.000 O
ATOM     12   O  A00 X   1      54.045   7.174  45.1210  0.00  0.00     0.000 OA
ATOM     13   O  A00 X   1      51.982   6.110  44.3940  0.00  0.00     0.000 OA
ATOM     14   O  A00 X   1      52.049   7.345  46.4250  0.00  0.00     0.000 OA
ATOM     15   S  A00 X   1      52.604   7.191  45.1070  0.00  0.00     0.000 S
ENDBRANCH 2 11
BRANCH 5 16
ATOM     16   C  A00 X   1      50.440   8.569  40.1540  0.00  0.00     0.000 C
ATOM     17   O  A00 X   1      51.035   7.573  39.8000  0.00  0.00     0.000 OA
ATOM     18   O  A00 X   1      49.225   8.552  40.1780  0.00  0.00     0.000 OA
ENDBRANCH 5 16
BRANCH 1 19
ATOM     19  O4  A00 X   2      49.289   9.183  43.1500  0.00  0.00     0.000 O
BRANCH 19 23
ATOM     20  C1  A00 X   2      48.091  12.677  45.3240  0.00  0.00     0.000 C
ATOM     21  C2  A00 X   2      48.500  11.430  46.1440  0.00  0.00     0.000 C
ATOM     22  C3  A00 X   2      49.300  10.437  45.2740  0.00  0.00     0.000 C
ATOM     23  C4  A00 X   2      48.512  10.080  43.9940  0.00  0.00     0.000 C
ATOM     24  C5  A00 X   2      48.147  11.408  43.2750  0.00  0.00     0.000 C
ATOM     25  O5  A00 X   2      47.338  12.216  44.1700  0.00  0.00     0.000 O
ATOM     26   O  A00 X   2      49.714   9.333  46.0960  0.00  0.00     0.000 O
ATOM     28  HD  A00 X   2      48.918   9.204  46.4120  0.00  0.00     0.000 HD
BRANCH 21 30
ATOM     28   N  A00 X   2      47.489  11.798  47.1400  0.00  0.00     0.000 N
ATOM     30  HD  A00 X   2      48.012  11.220  47.5160  0.00  0.00     0.000 HD
ATOM     30   O  A00 X   2      48.248  11.108  49.2390  0.00  0.00     0.000 OA
ATOM     31   S  A00 X   2      47.199  10.802  48.3320  0.00  0.00     0.000 S
ATOM     32   O  A00 X   2      45.891  11.173  48.7740  0.00  0.00     0.000 OA
ATOM     33   O  A00 X   2      47.182   9.478  47.7830  0.00  0.00     0.000 OA
ENDBRANCH 21 30
BRANCH 24 34
ATOM     34   C  A00 X   2      47.555  11.323  41.8490  0.00  0.00     0.000 C
ATOM     35   O  A00 X   2      44.465   9.583  41.0220  0.00  0.00     0.000 OA
ATOM     36   O  A00 X   2      46.546  10.297  41.7620  0.00  0.00     0.000 O
ATOM     37   O  A00 X   2      44.625  11.293  42.6480  0.00  0.00     0.000 OA
ATOM     38   S  A00 X   2      45.104  10.803  41.3920  0.00  0.00     0.000 S
ATOM     39   O  A00 X   2      45.267  11.749  40.3300  0.00  0.00     0.000 OA
ENDBRANCH 24 34
BRANCH 20 40
ATOM     40  O4  A00 X   3      49.320  13.274  44.8870  0.00  0.00     0.000 O
BRANCH 40 44
ATOM     41  C1  A00 X   3      51.208  14.811  42.2040  0.00  0.00     0.000 C
ATOM     42  C2  A00 X   3      51.755  14.541  43.6220  0.00  0.00     0.000 C
ATOM     43  C3  A00 X   3      50.792  15.096  44.7030  0.00  0.00     0.000 C
ATOM     44  C4  A00 X   3      49.338  14.674  44.5340  0.00  0.00     0.000 C
ATOM     45  C5  A00 X   3      48.860  14.982  43.0870  0.00  0.00     0.000 C
ATOM     46  O5  A00 X   3      49.803  14.449  42.1010  0.00  0.00     0.000 O
ATOM     47   O  A00 X   3      51.238  14.980  46.0530  0.00  0.00     0.000 O
ATOM     49  HD  A00 X   3      50.404  14.798  46.1950  0.00  0.00     0.000 HD
BRANCH 42 49
ATOM     49   O  A00 X   3      51.921  13.111  43.7470  0.00  0.00     0.000 O
ATOM     50   O  A00 X   3      52.629  11.592  45.4560  0.00  0.00     0.000 OA
ATOM     51   O  A00 X   3      53.811  13.619  45.1700  0.00  0.00     0.000 OA
ATOM     52   O  A00 X   3      53.959  11.979  43.4740  0.00  0.00     0.000 OA
ATOM     53   S  A00 X   3      53.147  12.525  44.5060  0.00  0.00     0.000 S
ENDBRANCH 42 49
BRANCH 45 54
ATOM     54   C  A00 X   3      48.562  16.473  42.8920  0.00  0.00     0.000 C
ATOM     55   O  A00 X   3      48.952  17.292  43.6990  0.00  0.00     0.000 OA
ATOM     56   O  A00 X   3      47.927  16.863  41.9250  0.00  0.00     0.000 OA
ENDBRANCH 45 54
BRANCH 41 57
ATOM     57  O4  A00 X   4      51.501  16.156  41.7650  0.00  0.00     0.000 O
BRANCH 57 61
ATOM     58  C1  A00 X   4      52.276  17.880  37.8840  0.00  0.00     0.000 C
ATOM     59  C2  A00 X   4      50.898  17.221  38.1400  0.00  0.00     0.000 C
ATOM     60  C3  A00 X   4      50.605  16.971  39.6340  0.00  0.00     0.000 C
ATOM     61  C4  A00 X   4      51.795  16.294  40.3460  0.00  0.00     0.000 C
ATOM     62  C5  A00 X   4      53.015  17.227  40.1390  0.00  0.00     0.000 C
ATOM     63  O5  A00 X   4      53.311  17.317  38.7220  0.00  0.00     0.000 O
BRANCH 59 66
ATOM     64   N  A00 X   4      50.841  15.894  37.5020  0.00  0.00     0.000 N
ATOM     66  HD  A00 X   4      51.587  15.466  37.4000  0.00  0.00     0.000 HD
ATOM     66   O  A00 X   4      50.315  17.020  35.4390  0.00  0.00     0.000 OA
ATOM     67   S  A00 X   4      50.102  15.765  36.0890  0.00  0.00     0.000 S
ATOM     68   O  A00 X   4      50.810  14.652  35.5270  0.00  0.00     0.000 OA
ATOM     69   O  A00 X   4      48.771  15.454  36.5270  0.00  0.00     0.000 OA
ENDBRANCH 59 66
BRANCH 62 70
ATOM     70   C  A00 X   4      54.293  16.769  40.8810  0.00  0.00     0.000 C
ATOM     71   O  A00 X   4      56.390  13.895  40.2100  0.00  0.00     0.000 OA
ATOM     72   O  A00 X   4      55.448  14.670  42.2240  0.00  0.00     0.000 OA
ATOM     73   O  A00 X   4      54.933  15.727  40.1260  0.00  0.00     0.000 O
ATOM     74   O  A00 X   4      54.036  13.540  40.5910  0.00  0.00     0.000 OA
ATOM     75   S  A00 X   4      55.183  14.353  40.8390  0.00  0.00     0.000 S
ENDBRANCH 62 70
ENDBRANCH 57 61
ENDBRANCH 41 57
ENDBRANCH 40 44
ENDBRANCH 20 40
ENDBRANCH 19 23
ENDBRANCH 1 19
TORSDOF 14
ENDMDL
MODEL 85
REMARK VINA RESULT:      -0.2     52.485     55.726
ROOT
ATOM      1  C1  A00 X   1      30.248  58.165   5.7430  0.00  0.00     0.000 C
ATOM      2  C2  A00 X   1      29.126  57.577   4.8460  0.00  0.00     0.000 C
ATOM      3  C3  A00 X   1      29.589  56.954   3.4880  0.00  0.00     0.000 C
ATOM      4  C4  A00 X   1      31.027  57.321   3.0390  0.00  0.00     0.000 C
ATOM      5  C5  A00 X   1      31.521  58.613   3.6880  0.00  0.00     0.000 C
ATOM      6  O5  A00 X   1      31.538  58.330   5.1050  0.00  0.00     0.000 O
ATOM      7   O  A00 X   1      28.715  57.406   2.4560  0.00  0.00     0.000 O
ATOM      9  HD  A00 X   1      29.519  57.428   2.1370  0.00  0.00     0.000 HD
ATOM      9   O  A00 X   1      31.944  56.262   3.3120  0.00  0.00     0.000 O
ATOM     11  HD  A00 X   1      32.749  56.284   2.9930  0.00  0.00     0.000 HD
ENDROOT
BRANCH 2 11
ATOM     11   O  A00 X   1      28.434  56.572   5.6120  0.00  0.00     0.000 O
ATOM     12   O  A00 X   1      26.499  55.434   4.7600  0.00  0.00     0.000 OA
ATOM     13   O  A00 X   1      26.393  57.832   5.1510  0.00  0.00     0.000 OA
ATOM     14   O  A00 X   1      26.558  56.319   6.9790  0.00  0.00     0.000 OA
ATOM     15   S  A00 X   1      26.867  56.550   5.5940  0.00  0.00     0.000 S
ENDBRANCH 2 11
BRANCH 5 16
ATOM     16   C  A00 X   1      30.722  59.868   3.3240  0.00  0.00     0.000 C
ATOM     17   O  A00 X   1      30.927  60.889   3.9470  0.00  0.00     0.000 OA
ATOM     18   O  A00 X   1      29.898  59.880   2.4310  0.00  0.00     0.000 OA
ENDBRANCH 5 16
BRANCH 1 19
ATOM     19  O4  A00 X   2      29.840  59.374   6.4310  0.00  0.00     0.000 O
BRANCH 19 23
ATOM     20  C1  A00 X   2      31.993  58.424  10.0120  0.00  0.00     0.000 C
ATOM     21  C2  A00 X   2      30.477  58.115   9.9870  0.00  0.00     0.000 C
ATOM     22  C3  A00 X   2      29.944  58.097   8.5390  0.00  0.00     0.000 C
ATOM     23  C4  A00 X   2      30.301  59.413   7.8120  0.00  0.00     0.000 C
ATOM     24  C5  A00 X   2      31.836  59.616   7.9240  0.00  0.00     0.000 C
ATOM     25  O5  A00 X   2      32.197  59.689   9.3280  0.00  0.00     0.000 O
ATOM     26   O  A00 X   2      28.551  57.740   8.5650  0.00  0.00     0.000 O
ATOM     28  HD  A00 X   2      28.359  58.330   9.1690  0.00  0.00     0.000 HD
BRANCH 21 30
ATOM     28   N  A00 X   2      30.423  58.453  11.4130  0.00  0.00     0.000 N
ATOM     30  HD  A00 X   2      29.692  58.028  11.2280  0.00  0.00     0.000 HD
ATOM     30   O  A00 X   2      28.764  57.145  12.4090  0.00  0.00     0.000 OA
ATOM     31   S  A00 X   2      29.014  58.514  12.1260  0.00  0.00     0.000 S
ATOM     32   O  A00 X   2      29.250  59.335  13.2730  0.00  0.00     0.000 OA
ATOM     33   O  A00 X   2      28.111  59.166  11.2240  0.00  0.00     0.000 OA
ENDBRANCH 21 30
BRANCH 24 34
ATOM     34   C  A00 X   2      32.483  60.741   7.0820  0.00  0.00     0.000 C
ATOM     35   O  A00 X   2      34.116  63.669   8.5020  0.00  0.00     0.000 OA
ATOM     36   O  A00 X   2      32.728  61.916   7.8810  0.00  0.00     0.000 O
ATOM     37   O  A00 X   2      34.713  61.441   9.0230  0.00  0.00     0.000 OA
ATOM     38   S  A00 X   2      34.238  62.336   8.0120  0.00  0.00     0.000 S
ATOM     39   O  A00 X   2      34.806  62.219   6.7030  0.00  0.00     0.000 OA
ENDBRANCH 24 34
BRANCH 20 40
ATOM     40  O4  A00 X   3      32.616  57.368   9.2650  0.00  0.00     0.000 O
BRANCH 40 44
ATOM     41  C1  A00 X   3      35.051  56.492   6.7300  0.00  0.00     0.000 C
ATOM     42  C2  A00 X   3      34.124  55.485   7.4450  0.00  0.00     0.000 C
ATOM     43  C3  A00 X   3      34.200  55.657   8.9840  0.00  0.00     0.000 C
ATOM     44  C4  A00 X   3      34.017  57.088   9.4720  0.00  0.00     0.000 C
ATOM     45  C5  A00 X   3      34.985  58.037   8.7110  0.00  0.00     0.000 C
ATOM     46  O5  A00 X   3      34.887  57.834   7.2640  0.00  0.00     0.000 O
ATOM     47   O  A00 X   3      33.449  54.720   9.7530  0.00  0.00     0.000 O
ATOM     49  HD  A00 X   3      33.288  55.418  10.2390  0.00  0.00     0.000 HD
BRANCH 42 49
ATOM     49   O  A00 X   3      32.786  55.720   6.9530  0.00  0.00     0.000 O
ATOM     50   O  A00 X   3      30.599  54.855   7.4020  0.00  0.00     0.000 OA
ATOM     51   O  A00 X   3      32.421  53.352   7.2950  0.00  0.00     0.000 OA
ATOM     52   O  A00 X   3      31.726  54.424   5.3060  0.00  0.00     0.000 OA
ATOM     53   S  A00 X   3      31.813  54.527   6.7220  0.00  0.00     0.000 S
ENDBRANCH 42 49
BRANCH 45 54
ATOM     54   C  A00 X   3      36.420  57.927   9.2400  0.00  0.00     0.000 C
ATOM     55   O  A00 X   3      37.227  58.809   9.0280  0.00  0.00     0.000 OA
ATOM     56   O  A00 X   3      36.777  56.950   9.8800  0.00  0.00     0.000 OA
ENDBRANCH 45 54
BRANCH 41 57
ATOM     57  O4  A00 X   4      36.421  56.032   6.7070  0.00  0.00     0.000 O
BRANCH 57 61
ATOM     58  C1  A00 X   4      39.737  56.753   4.0380  0.00  0.00     0.000 C
ATOM     59  C2  A00 X   4      39.363  57.848   5.0680  0.00  0.00     0.000 C
ATOM     60  C3  A00 X   4      38.423  57.347   6.1830  0.00  0.00     0.000 C
ATOM     61  C4  A00 X   4      37.229  56.552   5.6130  0.00  0.00     0.000 C
ATOM     62  C5  A00 X   4      37.834  55.386   4.7920  0.00  0.00     0.000 C
ATOM     63  O5  A00 X   4      38.602  55.928   3.6880  0.00  0.00     0.000 O
BRANCH 59 66
ATOM     64   N  A00 X   4      38.636  58.953   4.4170  0.00  0.00     0.000 N
ATOM     66  HD  A00 X   4      38.171  58.765   3.7110  0.00  0.00     0.000 HD
ATOM     66   O  A00 X   4      40.773  59.817   3.7230  0.00  0.00     0.000 OA
ATOM     67   S  A00 X   4      39.453  60.272   4.0280  0.00  0.00     0.000 S
ATOM     68   O  A00 X   4      38.684  60.731   2.9090  0.00  0.00     0.000 OA
ATOM     69   O  A00 X   4      39.270  61.044   5.2240  0.00  0.00     0.000 OA
ENDBRANCH 59 66
BRANCH 62 70
ATOM     70   C  A00 X   4      36.784  54.401   4.2240  0.00  0.00     0.000 C
ATOM     71   O  A00 X   4      35.024  54.546   1.0640  0.00  0.00     0.000 OA
ATOM     72   O  A00 X   4      34.223  54.206   3.2520  0.00  0.00     0.000 OA
ATOM     73   O  A00 X   4      36.539  54.713   2.8430  0.00  0.00     0.000 O
ATOM     74   O  A00 X   4      34.888  56.442   2.5470  0.00  0.00     0.000 OA
ATOM     75   S  A00 X   4      35.064  55.032   2.4140  0.00  0.00     0.000 S
ENDBRANCH 62 70
ENDBRANCH 57 61
ENDBRANCH 41 57
ENDBRANCH 40 44
ENDBRANCH 20 40
ENDBRANCH 19 23
ENDBRANCH 1 19
TORSDOF 14
ENDMDL
MODEL 86
REMARK VINA RESULT:      -0.2     34.046     38.410
ROOT
ATOM      1  C1  A00 X   1      22.699  27.130  33.3010  0.00  0.00     0.000 C
ATOM      2  C2  A00 X   1      21.255  26.686  33.6570  0.00  0.00     0.000 C
ATOM      3  C3  A00 X   1      20.312  27.801  34.2180  0.00  0.00     0.000 C
ATOM      4  C4  A00 X   1      21.019  29.097  34.6940  0.00  0.00     0.000 C
ATOM      5  C5  A00 X   1      22.490  28.860  35.0360  0.00  0.00     0.000 C
ATOM      6  O5  A00 X   1      23.092  28.435  33.7930  0.00  0.00     0.000 O
ATOM      7   O  A00 X   1      19.614  27.283  35.3480  0.00  0.00     0.000 O
ATOM      9  HD  A00 X   1      19.849  28.094  35.5430  0.00  0.00     0.000 HD
ATOM      9   O  A00 X   1      20.911  30.137  33.7210  0.00  0.00     0.000 O
ATOM     11  HD  A00 X   1      21.146  30.947  33.9160  0.00  0.00     0.000 HD
ENDROOT
BRANCH 2 11
ATOM     11   O  A00 X   1      20.663  26.127  32.4680  0.00  0.00     0.000 O
ATOM     12   O  A00 X   1      18.342  25.518  32.3700  0.00  0.00     0.000 OA
ATOM     13   O  A00 X   1      19.818  24.341  33.9040  0.00  0.00     0.000 OA
ATOM     14   O  A00 X   1      20.056  24.066  31.5540  0.00  0.00     0.000 OA
ATOM     15   S  A00 X   1      19.643  24.946  32.6130  0.00  0.00     0.000 S
ENDBRANCH 2 11
BRANCH 5 16
ATOM     16   C  A00 X   1      22.737  27.894  36.1990  0.00  0.00     0.000 C
ATOM     17   O  A00 X   1      23.866  27.492  36.3910  0.00  0.00     0.000 OA
ATOM     18   O  A00 X   1      21.847  27.522  36.9380  0.00  0.00     0.000 OA
ENDBRANCH 5 16
BRANCH 1 19
ATOM     19  O4  A00 X   2      23.690  26.124  33.6240  0.00  0.00     0.000 O
BRANCH 19 23
ATOM     20  C1  A00 X   2      26.024  26.850  30.1030  0.00  0.00     0.000 C
ATOM     21  C2  A00 X   2      25.022  25.671  30.0660  0.00  0.00     0.000 C
ATOM     22  C3  A00 X   2      23.978  25.800  31.1950  0.00  0.00     0.000 C
ATOM     23  C4  A00 X   2      24.676  25.951  32.5660  0.00  0.00     0.000 C
ATOM     24  C5  A00 X   2      25.662  27.148  32.4670  0.00  0.00     0.000 C
ATOM     25  O5  A00 X   2      26.631  26.870  31.4230  0.00  0.00     0.000 O
ATOM     26   O  A00 X   2      23.034  24.723  31.0760  0.00  0.00     0.000 O
ATOM     28  HD  A00 X   2      23.652  24.119  31.0230  0.00  0.00     0.000 HD
BRANCH 21 30
ATOM     28   N  A00 X   2      25.970  24.941  29.2180  0.00  0.00     0.000 N
ATOM     30  HD  A00 X   2      25.209  24.535  29.1490  0.00  0.00     0.000 HD
ATOM     30   O  A00 X   2      24.749  23.570  27.7740  0.00  0.00     0.000 OA
ATOM     31   S  A00 X   2      25.660  23.435  28.8550  0.00  0.00     0.000 S
ATOM     32   O  A00 X   2      26.939  22.900  28.5040  0.00  0.00     0.000 OA
ATOM     33   O  A00 X   2      25.167  22.805  30.0440  0.00  0.00     0.000 OA
ENDBRANCH 21 30
BRANCH 24 34
ATOM     34   C  A00 X   2      26.319  27.656  33.7720  0.00  0.00     0.000 C
ATOM     35   O  A00 X   2      29.898  27.544  34.4320  0.00  0.00     0.000 OA
ATOM     36   O  A00 X   2      27.669  27.169  33.9010  0.00  0.00     0.000 O
ATOM     37   O  A00 X   2      28.934  28.595  32.5450  0.00  0.00     0.000 OA
ATOM     38   S  A00 X   2      28.783  28.279  33.9330  0.00  0.00     0.000 S
ATOM     39   O  A00 X   2      28.300  29.312  34.7990  0.00  0.00     0.000 OA
ENDBRANCH 24 34
BRANCH 20 40
ATOM     40  O4  A00 X   3      25.235  28.035  29.9200  0.00  0.00     0.000 O
BRANCH 40 44
ATOM     41  C1  A00 X   3      24.544  31.433  30.9670  0.00  0.00     0.000 C
ATOM     42  C2  A00 X   3      23.765  30.674  29.8710  0.00  0.00     0.000 C
ATOM     43  C3  A00 X   3      24.733  30.055  28.8300  0.00  0.00     0.000 C
ATOM     44  C4  A00 X   3      25.869  29.236  29.4310  0.00  0.00     0.000 C
ATOM     45  C5  A00 X   3      26.606  30.067  30.5190  0.00  0.00     0.000 C
ATOM     46  O5  A00 X   3      25.654  30.641  31.4720  0.00  0.00     0.000 O
ATOM     47   O  A00 X   3      24.119  29.402  27.7210  0.00  0.00     0.000 O
ATOM     49  HD  A00 X   3      24.768  28.840  27.8370  0.00  0.00     0.000 HD
BRANCH 42 49
ATOM     49   O  A00 X   3      22.982  29.658  30.5350  0.00  0.00     0.000 O
ATOM     50   O  A00 X   3      21.518  27.886  29.8650  0.00  0.00     0.000 OA
ATOM     51   O  A00 X   3      21.370  29.969  28.7560  0.00  0.00     0.000 OA
ATOM     52   O  A00 X   3      20.692  29.845  31.0170  0.00  0.00     0.000 OA
ATOM     53   S  A00 X   3      21.555  29.306  30.0230  0.00  0.00     0.000 S
ENDBRANCH 42 49
BRANCH 45 54
ATOM     54   C  A00 X   3      27.542  31.111  29.8980  0.00  0.00     0.000 C
ATOM     55   O  A00 X   3      28.464  31.574  30.5390  0.00  0.00     0.000 OA
ATOM     56   O  A00 X   3      27.377  31.496  28.7510  0.00  0.00     0.000 OA
ENDBRANCH 45 54
BRANCH 41 57
ATOM     57  O4  A00 X   4      24.919  32.760  30.5350  0.00  0.00     0.000 O
BRANCH 57 61
ATOM     58  C1  A00 X   4      25.797  36.421  32.6480  0.00  0.00     0.000 C
ATOM     59  C2  A00 X   4      26.887  35.321  32.5850  0.00  0.00     0.000 C
ATOM     60  C3  A00 X   4      26.606  34.238  31.5240  0.00  0.00     0.000 C
ATOM     61  C4  A00 X   4      25.156  33.716  31.6070  0.00  0.00     0.000 C
ATOM     62  C5  A00 X   4      24.238  34.951  31.4360  0.00  0.00     0.000 C
ATOM     63  O5  A00 X   4      24.465  35.870  32.5350  0.00  0.00     0.000 O
BRANCH 59 66
ATOM     64   N  A00 X   4      26.970  34.597  33.8660  0.00  0.00     0.000 N
ATOM     66  HD  A00 X   4      26.251  34.551  34.3470  0.00  0.00     0.000 HD
ATOM     66   O  A00 X   4      28.328  36.408  34.6880  0.00  0.00     0.000 OA
ATOM     67   S  A00 X   4      28.122  35.009  34.8960  0.00  0.00     0.000 S
ATOM     68   O  A00 X   4      27.499  34.655  36.1370  0.00  0.00     0.000 OA
ATOM     69   O  A00 X   4      29.163  34.110  34.4830  0.00  0.00     0.000 OA
ENDBRANCH 59 66
BRANCH 62 70
ATOM     70   C  A00 X   4      22.728  34.614  31.3810  0.00  0.00     0.000 C
ATOM     71   O  A00 X   4      20.422  34.108  34.1260  0.00  0.00     0.000 OA
ATOM     72   O  A00 X   4      20.827  32.811  32.2020  0.00  0.00     0.000 OA
ATOM     73   O  A00 X   4      22.163  34.749  32.6950  0.00  0.00     0.000 O
ATOM     74   O  A00 X   4      22.425  32.768  34.0410  0.00  0.00     0.000 OA
ATOM     75   S  A00 X   4      21.441  33.503  33.3140  0.00  0.00     0.000 S
ENDBRANCH 62 70
ENDBRANCH 57 61
ENDBRANCH 41 57
ENDBRANCH 40 44
ENDBRANCH 20 40
ENDBRANCH 19 23
ENDBRANCH 1 19
TORSDOF 14
ENDMDL
MODEL 87
REMARK VINA RESULT:      -0.2     37.006     41.391
ROOT
ATOM      1  C1  A00 X   1      43.271  22.762  26.0640  0.00  0.00     0.000 C
ATOM      2  C2  A00 X   1      42.387  23.843  25.3870  0.00  0.00     0.000 C
ATOM      3  C3  A00 X   1      40.844  23.581  25.4080  0.00  0.00     0.000 C
ATOM      4  C4  A00 X   1      40.417  22.134  25.7620  0.00  0.00     0.000 C
ATOM      5  C5  A00 X   1      41.530  21.121  25.4950  0.00  0.00     0.000 C
ATOM      6  O5  A00 X   1      42.604  21.515  26.3790  0.00  0.00     0.000 O
ATOM      7   O  A00 X   1      40.317  23.853  24.1110  0.00  0.00     0.000 O
ATOM      9  HD  A00 X   1      39.929  23.134  24.3990  0.00  0.00     0.000 HD
ATOM      9   O  A00 X   1      39.989  22.034  27.1200  0.00  0.00     0.000 O
ATOM     11  HD  A00 X   1      39.601  21.315  27.4080  0.00  0.00     0.000 HD
ENDROOT
BRANCH 2 11
ATOM     11   O  A00 X   1      42.658  25.101  26.0340  0.00  0.00     0.000 O
ATOM     12   O  A00 X   1      41.374  27.075  25.5630  0.00  0.00     0.000 OA
ATOM     13   O  A00 X   1      42.713  26.076  23.7950  0.00  0.00     0.000 OA
ATOM     14   O  A00 X   1      43.762  27.123  25.6560  0.00  0.00     0.000 OA
ATOM     15   S  A00 X   1      42.600  26.418  25.1860  0.00  0.00     0.000 S
ENDBRANCH 2 11
BRANCH 5 16
ATOM     16   C  A00 X   1      41.957  20.999  24.0290  0.00  0.00     0.000 C
ATOM     17   O  A00 X   1      42.969  20.381  23.7670  0.00  0.00     0.000 OA
ATOM     18   O  A00 X   1      41.317  21.490  23.1200  0.00  0.00     0.000 OA
ENDBRANCH 5 16
BRANCH 1 19
ATOM     19  O4  A00 X   2      44.516  22.533  25.3600  0.00  0.00     0.000 O
BRANCH 19 23
ATOM     20  C1  A00 X   2      46.823  22.096  28.9450  0.00  0.00     0.000 C
ATOM     21  C2  A00 X   2      46.832  23.480  28.2540  0.00  0.00     0.000 C
ATOM     22  C3  A00 X   2      45.654  23.610  27.2660  0.00  0.00     0.000 C
ATOM     23  C4  A00 X   2      45.657  22.437  26.2600  0.00  0.00     0.000 C
ATOM     24  C5  A00 X   2      45.666  21.114  27.0730  0.00  0.00     0.000 C
ATOM     25  O5  A00 X   2      46.855  21.083  27.9040  0.00  0.00     0.000 O
ATOM     26   O  A00 X   2      45.667  24.933  26.7030  0.00  0.00     0.000 O
ATOM     28  HD  A00 X   2      46.505  24.888  26.4900  0.00  0.00     0.000 HD
BRANCH 21 30
ATOM     28   N  A00 X   2      48.226  23.640  28.6780  0.00  0.00     0.000 N
ATOM     30  HD  A00 X   2      47.944  24.425  28.4450  0.00  0.00     0.000 HD
ATOM     30   O  A00 X   2      48.617  25.914  29.0490  0.00  0.00     0.000 OA
ATOM     31   S  A00 X   2      49.039  24.893  28.1570  0.00  0.00     0.000 S
ATOM     32   O  A00 X   2      50.405  24.493  28.2990  0.00  0.00     0.000 OA
ATOM     33   O  A00 X   2      48.712  25.064  26.7730  0.00  0.00     0.000 OA
ENDBRANCH 21 30
BRANCH 24 34
ATOM     34   C  A00 X   2      45.439  19.789  26.3070  0.00  0.00     0.000 C
ATOM     35   O  A00 X   2      47.914  17.131  26.0480  0.00  0.00     0.000 OA
ATOM     36   O  A00 X   2      46.683  19.099  26.0760  0.00  0.00     0.000 O
ATOM     37   O  A00 X   2      47.131  18.013  28.0990  0.00  0.00     0.000 OA
ATOM     38   S  A00 X   2      46.799  17.681  26.7470  0.00  0.00     0.000 S
ATOM     39   O  A00 X   2      45.550  17.020  26.5130  0.00  0.00     0.000 OA
ENDBRANCH 24 34
BRANCH 20 40
ATOM     40  O4  A00 X   3      45.573  22.021  29.6470  0.00  0.00     0.000 O
BRANCH 40 44
ATOM     41  C1  A00 X   3      42.660  20.040  30.4900  0.00  0.00     0.000 C
ATOM     42  C2  A00 X   3      42.890  21.500  30.9360  0.00  0.00     0.000 C
ATOM     43  C3  A00 X   3      44.289  21.669  31.5830  0.00  0.00     0.000 C
ATOM     44  C4  A00 X   3      45.440  21.108  30.7580  0.00  0.00     0.000 C
ATOM     45  C5  A00 X   3      45.138  19.638  30.3520  0.00  0.00     0.000 C
ATOM     46  O5  A00 X   3      43.805  19.524  29.7560  0.00  0.00     0.000 O
ATOM     47   O  A00 X   3      44.578  22.962  32.1120  0.00  0.00     0.000 O
ATOM     49  HD  A00 X   3      45.362  22.797  31.7820  0.00  0.00     0.000 HD
BRANCH 42 49
ATOM     49   O  A00 X   3      42.748  22.328  29.7610  0.00  0.00     0.000 O
ATOM     50   O  A00 X   3      42.976  24.655  29.2430  0.00  0.00     0.000 OA
ATOM     51   O  A00 X   3      41.917  24.034  31.2640  0.00  0.00     0.000 OA
ATOM     52   O  A00 X   3      40.821  23.559  29.2250  0.00  0.00     0.000 OA
ATOM     53   S  A00 X   3      42.080  23.731  29.8640  0.00  0.00     0.000 S
ENDBRANCH 42 49
BRANCH 45 54
ATOM     54   C  A00 X   3      45.361  18.670  31.5200  0.00  0.00     0.000 C
ATOM     55   O  A00 X   3      45.554  17.489  31.3170  0.00  0.00     0.000 OA
ATOM     56   O  A00 X   3      45.348  19.069  32.6750  0.00  0.00     0.000 OA
ENDBRANCH 45 54
BRANCH 41 57
ATOM     57  O4  A00 X   4      42.244  19.204  31.5930  0.00  0.00     0.000 O
BRANCH 57 61
ATOM     58  C1  A00 X   4      39.991  15.529  31.8330  0.00  0.00     0.000 C
ATOM     59  C2  A00 X   4      41.481  15.459  31.4140  0.00  0.00     0.000 C
ATOM     60  C3  A00 X   4      42.263  16.755  31.7080  0.00  0.00     0.000 C
ATOM     61  C4  A00 X   4      41.505  18.007  31.2180  0.00  0.00     0.000 C
ATOM     62  C5  A00 X   4      40.126  17.985  31.9230  0.00  0.00     0.000 C
ATOM     63  O5  A00 X   4      39.395  16.805  31.5040  0.00  0.00     0.000 O
BRANCH 59 66
ATOM     64   N  A00 X   4      41.603  15.255  29.9590  0.00  0.00     0.000 N
ATOM     66  HD  A00 X   4      40.964  15.555  29.4580  0.00  0.00     0.000 HD
ATOM     66   O  A00 X   4      41.228  12.910  30.3590  0.00  0.00     0.000 OA
ATOM     67   S  A00 X   4      41.879  13.773  29.4230  0.00  0.00     0.000 S
ATOM     68   O  A00 X   4      41.270  13.849  28.1270  0.00  0.00     0.000 OA
ATOM     69   O  A00 X   4      43.314  13.775  29.4000  0.00  0.00     0.000 OA
ENDBRANCH 59 66
BRANCH 62 70
ATOM     70   C  A00 X   4      39.252  19.231  31.6400  0.00  0.00     0.000 C
ATOM     71   O  A00 X   4      37.063  19.867  28.8280  0.00  0.00     0.000 OA
ATOM     72   O  A00 X   4      38.734  21.208  29.8060  0.00  0.00     0.000 OA
ATOM     73   O  A00 X   4      38.364  18.950  30.5470  0.00  0.00     0.000 O
ATOM     74   O  A00 X   4      39.372  19.328  28.3920  0.00  0.00     0.000 OA
ATOM     75   S  A00 X   4      38.421  19.892  29.2950  0.00  0.00     0.000 S
ENDBRANCH 62 70
ENDBRANCH 57 61
ENDBRANCH 41 57
ENDBRANCH 40 44
ENDBRANCH 20 40
ENDBRANCH 19 23
ENDBRANCH 1 19
TORSDOF 14
ENDMDL
MODEL 88
REMARK VINA RESULT:      -0.2     63.429     67.709
ROOT
ATOM      1  C1  A00 X   1      19.848  43.637  59.2170  0.00  0.00     0.000 C
ATOM      2  C2  A00 X   1      20.782  42.422  59.4590  0.00  0.00     0.000 C
ATOM      3  C3  A00 X   1      20.517  41.601  60.7650  0.00  0.00     0.000 C
ATOM      4  C4  A00 X   1      19.623  42.298  61.8220  0.00  0.00     0.000 C
ATOM      5  C5  A00 X   1      19.612  43.818  61.6580  0.00  0.00     0.000 C
ATOM      6  O5  A00 X   1      19.040  44.042  60.3500  0.00  0.00     0.000 O
ATOM      7   O  A00 X   1      21.766  41.339  61.4010  0.00  0.00     0.000 O
ATOM      9  HD  A00 X   1      21.201  41.546  62.0230  0.00  0.00     0.000 HD
ATOM      9   O  A00 X   1      18.286  41.800  61.7850  0.00  0.00     0.000 O
ATOM     11  HD  A00 X   1      17.721  42.008  62.4080  0.00  0.00     0.000 HD
ENDROOT
BRANCH 2 11
ATOM     11   O  A00 X   1      20.663  41.544  58.3220  0.00  0.00     0.000 O
ATOM     12   O  A00 X   1      21.690  39.374  58.2800  0.00  0.00     0.000 OA
ATOM     13   O  A00 X   1      23.097  41.354  58.3990  0.00  0.00     0.000 OA
ATOM     14   O  A00 X   1      21.854  40.876  56.4280  0.00  0.00     0.000 OA
ATOM     15   S  A00 X   1      21.921  40.732  57.8580  0.00  0.00     0.000 S
ENDBRANCH 2 11
BRANCH 5 16
ATOM     16   C  A00 X   1      20.969  44.501  61.8590  0.00  0.00     0.000 C
ATOM     17   O  A00 X   1      21.086  45.666  61.5380  0.00  0.00     0.000 OA
ATOM     18   O  A00 X   1      21.926  43.922  62.3320  0.00  0.00     0.000 OA
ENDBRANCH 5 16
BRANCH 1 19
ATOM     19  O4  A00 X   2      20.539  44.768  58.6310  0.00  0.00     0.000 O
BRANCH 19 23
ATOM     20  C1  A00 X   2      17.282  45.818  56.0510  0.00  0.00     0.000 C
ATOM     21  C2  A00 X   2      18.426  44.966  55.4480  0.00  0.00     0.000 C
ATOM     22  C3  A00 X   2      19.274  44.317  56.5620  0.00  0.00     0.000 C
ATOM     23  C4  A00 X   2      19.782  45.388  57.5530  0.00  0.00     0.000 C
ATOM     24  C5  A00 X   2      18.549  46.180  58.0680  0.00  0.00     0.000 C
ATOM     25  O5  A00 X   2      17.884  46.799  56.9360  0.00  0.00     0.000 O
ATOM     26   O  A00 X   2      20.276  43.485  55.9530  0.00  0.00     0.000 O
ATOM     28  HD  A00 X   2      20.539  44.109  55.4140  0.00  0.00     0.000 HD
BRANCH 21 30
ATOM     28   N  A00 X   2      18.226  45.668  54.1760  0.00  0.00     0.000 N
ATOM     30  HD  A00 X   2      18.699  44.963  54.0020  0.00  0.00     0.000 HD
ATOM     30   O  A00 X   2      18.744  44.190  52.4420  0.00  0.00     0.000 OA
ATOM     31   S  A00 X   2      19.242  45.399  52.9940  0.00  0.00     0.000 S
ATOM     32   O  A00 X   2      19.099  46.550  52.1570  0.00  0.00     0.000 OA
ATOM     33   O  A00 X   2      20.555  45.360  53.5660  0.00  0.00     0.000 OA
ENDBRANCH 21 30
BRANCH 24 34
ATOM     34   C  A00 X   2      18.758  47.160  59.2470  0.00  0.00     0.000 C
ATOM     35   O  A00 X   2      18.276  50.762  59.0160  0.00  0.00     0.000 OA
ATOM     36   O  A00 X   2      18.843  48.523  58.7850  0.00  0.00     0.000 O
ATOM     37   O  A00 X   2      16.619  49.169  58.4610  0.00  0.00     0.000 OA
ATOM     38   S  A00 X   2      17.719  49.484  59.3190  0.00  0.00     0.000 S
ATOM     39   O  A00 X   2      17.575  49.201  60.7160  0.00  0.00     0.000 OA
ENDBRANCH 24 34
BRANCH 20 40
ATOM     40  O4  A00 X   3      16.483  44.906  56.8180  0.00  0.00     0.000 O
BRANCH 40 44
ATOM     41  C1  A00 X   3      14.700  44.265  59.9060  0.00  0.00     0.000 C
ATOM     42  C2  A00 X   3      14.838  43.257  58.7440  0.00  0.00     0.000 C
ATOM     43  C3  A00 X   3      14.436  43.907  57.3950  0.00  0.00     0.000 C
ATOM     44  C4  A00 X   3      15.110  45.244  57.1100  0.00  0.00     0.000 C
ATOM     45  C5  A00 X   3      14.924  46.202  58.3200  0.00  0.00     0.000 C
ATOM     46  O5  A00 X   3      15.305  45.545  59.5710  0.00  0.00     0.000 O
ATOM     47   O  A00 X   3      14.442  43.043  56.2610  0.00  0.00     0.000 O
ATOM     49  HD  A00 X   3      14.764  43.744  55.8680  0.00  0.00     0.000 HD
BRANCH 42 49
ATOM     49   O  A00 X   3      16.213  42.816  58.7280  0.00  0.00     0.000 O
ATOM     50   O  A00 X   3      17.558  41.385  57.3580  0.00  0.00     0.000 OA
ATOM     51   O  A00 X   3      15.357  40.710  57.8960  0.00  0.00     0.000 OA
ATOM     52   O  A00 X   3      16.968  40.780  59.6240  0.00  0.00     0.000 OA
ATOM     53   S  A00 X   3      16.561  41.338  58.3810  0.00  0.00     0.000 S
ENDBRANCH 42 49
BRANCH 45 54
ATOM     54   C  A00 X   3      13.512  46.800  58.3580  0.00  0.00     0.000 C
ATOM     55   O  A00 X   3      13.292  47.828  58.9650  0.00  0.00     0.000 OA
ATOM     56   O  A00 X   3      12.585  46.253  57.7800  0.00  0.00     0.000 OA
ENDBRANCH 45 54
BRANCH 41 57
ATOM     57  O4  A00 X   4      13.334  44.364  60.3670  0.00  0.00     0.000 O
BRANCH 57 61
ATOM     58  C1  A00 X   4      11.562  45.514  64.1320  0.00  0.00     0.000 C
ATOM     59  C2  A00 X   4      12.070  46.626  63.1820  0.00  0.00     0.000 C
ATOM     60  C3  A00 X   4      12.342  46.131  61.7460  0.00  0.00     0.000 C
ATOM     61  C4  A00 X   4      13.177  44.832  61.7370  0.00  0.00     0.000 C
ATOM     62  C5  A00 X   4      12.381  43.797  62.5700  0.00  0.00     0.000 C
ATOM     63  O5  A00 X   4      12.270  44.269  63.9370  0.00  0.00     0.000 O
BRANCH 59 66
ATOM     64   N  A00 X   4      13.356  47.169  63.6550  0.00  0.00     0.000 N
ATOM     66  HD  A00 X   4      13.868  46.642  64.1140  0.00  0.00     0.000 HD
ATOM     66   O  A00 X   4      12.100  48.542  65.1830  0.00  0.00     0.000 OA
ATOM     67   S  A00 X   4      13.343  48.541  64.4770  0.00  0.00     0.000 S
ATOM     68   O  A00 X   4      14.513  48.368  65.2880  0.00  0.00     0.000 OA
ATOM     69   O  A00 X   4      13.504  49.480  63.4040  0.00  0.00     0.000 OA
ENDBRANCH 59 66
BRANCH 62 70
ATOM     70   C  A00 X   4      13.008  42.383  62.5870  0.00  0.00     0.000 C
ATOM     71   O  A00 X   4      15.633  41.099  64.7250  0.00  0.00     0.000 OA
ATOM     72   O  A00 X   4      15.375  41.003  62.3860  0.00  0.00     0.000 OA
ATOM     73   O  A00 X   4      13.834  42.243  63.7540  0.00  0.00     0.000 O
ATOM     74   O  A00 X   4      16.067  43.090  63.4370  0.00  0.00     0.000 OA
ATOM     75   S  A00 X   4      15.342  41.866  63.5460  0.00  0.00     0.000 S
ENDBRANCH 62 70
ENDBRANCH 57 61
ENDBRANCH 41 57
ENDBRANCH 40 44
ENDBRANCH 20 40
ENDBRANCH 19 23
ENDBRANCH 1 19
TORSDOF 14
ENDMDL
MODEL 89
REMARK VINA RESULT:      -0.2     22.678     27.094
ROOT
ATOM      1  C1  A00 X   1       7.689  12.950  28.2880  0.00  0.00     0.000 C
ATOM      2  C2  A00 X   1       6.493  13.938  28.3430  0.00  0.00     0.000 C
ATOM      3  C3  A00 X   1       5.409  13.645  29.4320  0.00  0.00     0.000 C
ATOM      4  C4  A00 X   1       5.462  12.231  30.0650  0.00  0.00     0.000 C
ATOM      5  C5  A00 X   1       6.174  11.222  29.1640  0.00  0.00     0.000 C
ATOM      6  O5  A00 X   1       7.524  11.725  29.0440  0.00  0.00     0.000 O
ATOM      7   O  A00 X   1       4.119  13.776  28.8410  0.00  0.00     0.000 O
ATOM      9  HD  A00 X   1       4.094  13.081  29.3560  0.00  0.00     0.000 HD
ATOM      9   O  A00 X   1       6.087  12.256  31.3480  0.00  0.00     0.000 O
ATOM     11  HD  A00 X   1       6.062  11.560  31.8640  0.00  0.00     0.000 HD
ENDROOT
BRANCH 2 11
ATOM     11   O  A00 X   1       7.026  15.260  28.5550  0.00  0.00     0.000 O
ATOM     12   O  A00 X   1       5.620  17.206  28.5870  0.00  0.00     0.000 OA
ATOM     13   O  A00 X   1       5.816  15.914  26.5360  0.00  0.00     0.000 OA
ATOM     14   O  A00 X   1       7.669  17.159  27.3580  0.00  0.00     0.000 OA
ATOM     15   S  A00 X   1       6.466  16.449  27.7010  0.00  0.00     0.000 S
ENDBRANCH 2 11
BRANCH 5 16
ATOM     16   C  A00 X   1       5.494  10.965  27.8150  0.00  0.00     0.000 C
ATOM     17   O  A00 X   1       6.098  10.336  26.9710  0.00  0.00     0.000 OA
ATOM     18   O  A00 X   1       4.373  11.361  27.5650  0.00  0.00     0.000 OA
ENDBRANCH 5 16
BRANCH 1 19
ATOM     19  O4  A00 X   2       8.132  12.680  26.9350  0.00  0.00     0.000 O
BRANCH 19 23
ATOM     20  C1  A00 X   2      12.278  12.489  28.0040  0.00  0.00     0.000 C
ATOM     21  C2  A00 X   2      11.751  13.822  27.4190  0.00  0.00     0.000 C
ATOM     22  C3  A00 X   2      10.211  13.885  27.4930  0.00  0.00     0.000 C
ATOM     23  C4  A00 X   2       9.583  12.644  26.8200  0.00  0.00     0.000 C
ATOM     24  C5  A00 X   2      10.203  11.381  27.4790  0.00  0.00     0.000 C
ATOM     25  O5  A00 X   2      11.640  11.406  27.2760  0.00  0.00     0.000 O
ATOM     26   O  A00 X   2       9.778  15.165  27.0030  0.00  0.00     0.000 O
ATOM     28  HD  A00 X   2      10.249  15.103  26.2780  0.00  0.00     0.000 HD
BRANCH 21 30
ATOM     28   N  A00 X   2      13.053  14.007  26.7700  0.00  0.00     0.000 N
ATOM     30  HD  A00 X   2      12.652  14.774  26.7510  0.00  0.00     0.000 HD
ATOM     30   O  A00 X   2      13.488  16.300  26.6530  0.00  0.00     0.000 OA
ATOM     31   S  A00 X   2      13.237  15.217  25.7690  0.00  0.00     0.000 S
ATOM     32   O  A00 X   2      14.352  14.823  24.9640  0.00  0.00     0.000 OA
ATOM     33   O  A00 X   2      12.049  15.291  24.9720  0.00  0.00     0.000 OA
ENDBRANCH 21 30
BRANCH 24 34
ATOM     34   C  A00 X   2       9.577  10.007  27.1450  0.00  0.00     0.000 C
ATOM     35   O  A00 X   2      11.339   7.324  25.4260  0.00  0.00     0.000 OA
ATOM     36   O  A00 X   2      10.366   9.296  26.1710  0.00  0.00     0.000 O
ATOM     37   O  A00 X   2      12.111   8.354  27.4110  0.00  0.00     0.000 OA
ATOM     38   S  A00 X   2      10.967   7.929  26.6630  0.00  0.00     0.000 S
ATOM     39   O  A00 X   2       9.921   7.259  27.3760  0.00  0.00     0.000 OA
ENDBRANCH 24 34
BRANCH 20 40
ATOM     40  O4  A00 X   3      11.844  12.469  29.3720  0.00  0.00     0.000 O
BRANCH 40 44
ATOM     41  C1  A00 X   3      10.392  10.559  32.0870  0.00  0.00     0.000 C
ATOM     42  C2  A00 X   3      10.785  12.050  32.1710  0.00  0.00     0.000 C
ATOM     43  C3  A00 X   3      12.239  12.269  31.6790  0.00  0.00     0.000 C
ATOM     44  C4  A00 X   3      12.550  11.645  30.3250  0.00  0.00     0.000 C
ATOM     45  C5  A00 X   3      12.132  10.148  30.3200  0.00  0.00     0.000 C
ATOM     46  O5  A00 X   3      10.758   9.987  30.8010  0.00  0.00     0.000 O
ATOM     47   O  A00 X   3      12.741  13.599  31.7940  0.00  0.00     0.000 O
ATOM     49  HD  A00 X   3      13.099  13.409  31.0280  0.00  0.00     0.000 HD
BRANCH 42 49
ATOM     49   O  A00 X   3       9.838  12.783  31.3640  0.00  0.00     0.000 O
ATOM     50   O  A00 X   3       9.530  15.061  30.6960  0.00  0.00     0.000 OA
ATOM     51   O  A00 X   3      10.163  14.602  32.9270  0.00  0.00     0.000 OA
ATOM     52   O  A00 X   3       8.000  13.969  32.2170  0.00  0.00     0.000 OA
ATOM     53   S  A00 X   3       9.346  14.190  31.8140  0.00  0.00     0.000 S
ENDBRANCH 42 49
BRANCH 45 54
ATOM     54   C  A00 X   3      13.141   9.274  31.0740  0.00  0.00     0.000 C
ATOM     55   O  A00 X   3      13.202   8.079  30.8680  0.00  0.00     0.000 OA
ATOM     56   O  A00 X   3      13.900   9.764  31.8970  0.00  0.00     0.000 OA
ENDBRANCH 45 54
BRANCH 41 57
ATOM     57  O4  A00 X   4      10.883   9.812  33.2230  0.00  0.00     0.000 O
BRANCH 57 61
ATOM     58  C1  A00 X   4       9.581   6.179  35.1580  0.00  0.00     0.000 C
ATOM     59  C2  A00 X   4      10.379   6.069  33.8350  0.00  0.00     0.000 C
ATOM     60  C3  A00 X   4      11.089   7.379  33.4350  0.00  0.00     0.000 C
ATOM     61  C4  A00 X   4      10.144   8.595  33.5280  0.00  0.00     0.000 C
ATOM     62  C5  A00 X   4       9.627   8.635  34.9880  0.00  0.00     0.000 C
ATOM     63  O5  A00 X   4       8.863   7.431  35.2560  0.00  0.00     0.000 O
BRANCH 59 66
ATOM     64   N  A00 X   4       9.481   5.756  32.7090  0.00  0.00     0.000 N
ATOM     66  HD  A00 X   4       8.659   6.023  32.7670  0.00  0.00     0.000 HD
ATOM     66   O  A00 X   4       9.591   3.450  33.3930  0.00  0.00     0.000 OA
ATOM     67   S  A00 X   4       9.383   4.237  32.2180  0.00  0.00     0.000 S
ATOM     68   O  A00 X   4       8.050   4.221  31.6920  0.00  0.00     0.000 OA
ATOM     69   O  A00 X   4      10.411   4.228  31.2160  0.00  0.00     0.000 OA
ENDBRANCH 59 66
BRANCH 62 70
ATOM     70   C  A00 X   4       8.740   9.861  35.3110  0.00  0.00     0.000 C
ATOM     71   O  A00 X   4       5.182  10.280  34.7920  0.00  0.00     0.000 OA
ATOM     72   O  A00 X   4       6.990  11.681  34.2300  0.00  0.00     0.000 OA
ATOM     73   O  A00 X   4       7.357   9.498  35.1720  0.00  0.00     0.000 O
ATOM     74   O  A00 X   4       6.559   9.681  32.9060  0.00  0.00     0.000 OA
ATOM     75   S  A00 X   4       6.478  10.329  34.1750  0.00  0.00     0.000 S
ENDBRANCH 62 70
ENDBRANCH 57 61
ENDBRANCH 41 57
ENDBRANCH 40 44
ENDBRANCH 20 40
ENDBRANCH 19 23
ENDBRANCH 1 19
TORSDOF 14
ENDMDL
MODEL 90
REMARK VINA RESULT:      -0.2     60.803     64.955
ROOT
ATOM      1  C1  A00 X   1      24.286  46.372  55.3720  0.00  0.00     0.000 C
ATOM      2  C2  A00 X   1      24.333  47.771  56.0430  0.00  0.00     0.000 C
ATOM      3  C3  A00 X   1      23.982  47.815  57.5670  0.00  0.00     0.000 C
ATOM      4  C4  A00 X   1      23.285  46.549  58.1290  0.00  0.00     0.000 C
ATOM      5  C5  A00 X   1      22.588  45.740  57.0360  0.00  0.00     0.000 C
ATOM      6  O5  A00 X   1      23.653  45.326  56.1500  0.00  0.00     0.000 O
ATOM      7   O  A00 X   1      23.093  48.904  57.8000  0.00  0.00     0.000 O
ATOM      9  HD  A00 X   1      22.809  48.237  58.2740  0.00  0.00     0.000 HD
ATOM      9   O  A00 X   1      24.206  45.716  58.8330  0.00  0.00     0.000 O
ATOM     11  HD  A00 X   1      23.922  45.049  59.3070  0.00  0.00     0.000 HD
ENDROOT
BRANCH 2 11
ATOM     11   O  A00 X   1      25.657  48.305  55.8500  0.00  0.00     0.000 O
ATOM     12   O  A00 X   1      26.251  50.517  56.5710  0.00  0.00     0.000 OA
ATOM     13   O  A00 X   1      24.570  50.243  54.8350  0.00  0.00     0.000 OA
ATOM     14   O  A00 X   1      26.846  49.701  54.4050  0.00  0.00     0.000 OA
ATOM     15   S  A00 X   1      25.813  49.799  55.4010  0.00  0.00     0.000 S
ENDBRANCH 2 11
BRANCH 5 16
ATOM     16   C  A00 X   1      21.445  46.467  56.3210  0.00  0.00     0.000 C
ATOM     17   O  A00 X   1      20.978  45.971  55.3160  0.00  0.00     0.000 OA
ATOM     18   O  A00 X   1      20.985  47.516  56.7270  0.00  0.00     0.000 OA
ENDBRANCH 5 16
BRANCH 1 19
ATOM     19  O4  A00 X   2      23.765  46.414  54.0210  0.00  0.00     0.000 O
BRANCH 19 23
ATOM     20  C1  A00 X   2      26.426  43.383  52.5730  0.00  0.00     0.000 C
ATOM     21  C2  A00 X   2      26.818  44.859  52.3200  0.00  0.00     0.000 C
ATOM     22  C3  A00 X   2      26.027  45.805  53.2470  0.00  0.00     0.000 C
ATOM     23  C4  A00 X   2      24.508  45.555  53.1090  0.00  0.00     0.000 C
ATOM     24  C5  A00 X   2      24.249  44.045  53.3670  0.00  0.00     0.000 C
ATOM     25  O5  A00 X   2      24.990  43.271  52.3880  0.00  0.00     0.000 O
ATOM     26   O  A00 X   2      26.475  47.152  53.0220  0.00  0.00     0.000 O
ATOM     28  HD  A00 X   2      26.386  47.092  52.1630  0.00  0.00     0.000 HD
BRANCH 21 30
ATOM     28   N  A00 X   2      27.405  44.444  51.0420  0.00  0.00     0.000 N
ATOM     30  HD  A00 X   2      27.711  45.235  51.2130  0.00  0.00     0.000 HD
ATOM     30   O  A00 X   2      29.217  45.846  50.5830  0.00  0.00     0.000 OA
ATOM     31   S  A00 X   2      27.932  45.558  50.0520  0.00  0.00     0.000 S
ATOM     32   O  A00 X   2      27.937  44.905  48.7790  0.00  0.00     0.000 OA
ATOM     33   O  A00 X   2      26.972  46.621  50.0610  0.00  0.00     0.000 OA
ENDBRANCH 21 30
BRANCH 24 34
ATOM     34   C  A00 X   2      22.783  43.575  53.5150  0.00  0.00     0.000 C
ATOM     35   O  A00 X   2      21.146  41.251  51.2400  0.00  0.00     0.000 OA
ATOM     36   O  A00 X   2      22.308  42.956  52.3020  0.00  0.00     0.000 O
ATOM     37   O  A00 X   2      23.160  40.780  52.3870  0.00  0.00     0.000 OA
ATOM     38   S  A00 X   2      21.894  41.445  52.4380  0.00  0.00     0.000 S
ATOM     39   O  A00 X   2      21.137  41.340  53.6500  0.00  0.00     0.000 OA
ENDBRANCH 24 34
BRANCH 20 40
ATOM     40  O4  A00 X   3      26.754  43.125  53.9460  0.00  0.00     0.000 O
BRANCH 40 44
ATOM     41  C1  A00 X   3      25.753  41.648  57.0990  0.00  0.00     0.000 C
ATOM     42  C2  A00 X   3      27.063  42.433  56.8710  0.00  0.00     0.000 C
ATOM     43  C3  A00 X   3      27.826  41.893  55.6350  0.00  0.00     0.000 C
ATOM     44  C4  A00 X   3      26.980  41.765  54.3740  0.00  0.00     0.000 C
ATOM     45  C5  A00 X   3      25.685  40.961  54.6820  0.00  0.00     0.000 C
ATOM     46  O5  A00 X   3      25.004  41.498  55.8610  0.00  0.00     0.000 O
ATOM     47   O  A00 X   3      29.097  42.487  55.3790  0.00  0.00     0.000 O
ATOM     49  HD  A00 X   3      28.837  42.420  54.5560  0.00  0.00     0.000 HD
BRANCH 42 49
ATOM     49   O  A00 X   3      26.700  43.821  56.7030  0.00  0.00     0.000 O
ATOM     50   O  A00 X   3      27.848  45.864  56.2110  0.00  0.00     0.000 OA
ATOM     51   O  A00 X   3      28.838  44.333  57.7160  0.00  0.00     0.000 OA
ATOM     52   O  A00 X   3      26.867  45.454  58.3830  0.00  0.00     0.000 OA
ATOM     53   S  A00 X   3      27.608  44.946  57.2800  0.00  0.00     0.000 S
ENDBRANCH 42 49
BRANCH 45 54
ATOM     54   C  A00 X   3      25.962  39.455  54.7790  0.00  0.00     0.000 C
ATOM     55   O  A00 X   3      27.083  39.045  54.9980  0.00  0.00     0.000 OA
ATOM     56   O  A00 X   3      25.060  38.644  54.6360  0.00  0.00     0.000 OA
ENDBRANCH 45 54
BRANCH 41 57
ATOM     57  O4  A00 X   4      25.989  40.405  57.7960  0.00  0.00     0.000 O
BRANCH 57 61
ATOM     58  C1  A00 X   4      23.523  37.910  60.3130  0.00  0.00     0.000 C
ATOM     59  C2  A00 X   4      23.326  37.839  58.7780  0.00  0.00     0.000 C
ATOM     60  C3  A00 X   4      24.478  38.483  57.9800  0.00  0.00     0.000 C
ATOM     61  C4  A00 X   4      24.846  39.879  58.5280  0.00  0.00     0.000 C
ATOM     62  C5  A00 X   4      25.209  39.679  60.0200  0.00  0.00     0.000 C
ATOM     63  O5  A00 X   4      24.045  39.191  60.7340  0.00  0.00     0.000 O
BRANCH 59 66
ATOM     64   N  A00 X   4      22.116  38.576  58.3700  0.00  0.00     0.000 N
ATOM     66  HD  A00 X   4      21.866  39.240  58.8670  0.00  0.00     0.000 HD
ATOM     66   O  A00 X   4      20.843  36.629  58.9930  0.00  0.00     0.000 OA
ATOM     67   S  A00 X   4      20.778  37.743  58.1000  0.00  0.00     0.000 S
ATOM     68   O  A00 X   4      19.789  38.731  58.4170  0.00  0.00     0.000 OA
ATOM     69   O  A00 X   4      20.920  37.484  56.6950  0.00  0.00     0.000 OA
ENDBRANCH 59 66
BRANCH 62 70
ATOM     70   C  A00 X   4      25.716  40.961  60.7240  0.00  0.00     0.000 C
ATOM     71   O  A00 X   4      23.786  43.594  62.2890  0.00  0.00     0.000 OA
ATOM     72   O  A00 X   4      25.548  43.702  60.7300  0.00  0.00     0.000 OA
ATOM     73   O  A00 X   4      24.621  41.589  61.4110  0.00  0.00     0.000 O
ATOM     74   O  A00 X   4      23.323  43.038  59.9880  0.00  0.00     0.000 OA
ATOM     75   S  A00 X   4      24.283  43.076  61.0450  0.00  0.00     0.000 S
ENDBRANCH 62 70
ENDBRANCH 57 61
ENDBRANCH 41 57
ENDBRANCH 40 44
ENDBRANCH 20 40
ENDBRANCH 19 23
ENDBRANCH 1 19
TORSDOF 14
ENDMDL
MODEL 91
REMARK VINA RESULT:      -0.2     66.830     70.684
ROOT
ATOM      1  C1  A00 X   1      44.062  27.314  64.9980  0.00  0.00     0.000 C
ATOM      2  C2  A00 X   1      44.681  27.835  63.6740  0.00  0.00     0.000 C
ATOM      3  C3  A00 X   1      45.302  26.751  62.7320  0.00  0.00     0.000 C
ATOM      4  C4  A00 X   1      45.554  25.366  63.3810  0.00  0.00     0.000 C
ATOM      5  C5  A00 X   1      45.670  25.455  64.9030  0.00  0.00     0.000 C
ATOM      6  O5  A00 X   1      44.381  25.943  65.3410  0.00  0.00     0.000 O
ATOM      7   O  A00 X   1      46.567  27.218  62.2690  0.00  0.00     0.000 O
ATOM      9  HD  A00 X   1      46.658  26.377  62.4550  0.00  0.00     0.000 HD
ATOM      9   O  A00 X   1      44.536  24.431  63.0280  0.00  0.00     0.000 O
ATOM     11  HD  A00 X   1      44.626  23.590  63.2150  0.00  0.00     0.000 HD
ENDROOT
BRANCH 2 11
ATOM     11   O  A00 X   1      43.652  28.545  62.9580  0.00  0.00     0.000 O
ATOM     12   O  A00 X   1      43.984  29.349  60.7200  0.00  0.00     0.000 OA
ATOM     13   O  A00 X   1      45.336  30.260  62.5250  0.00  0.00     0.000 OA
ATOM     14   O  A00 X   1      43.006  30.722  62.4140  0.00  0.00     0.000 OA
ATOM     15   S  A00 X   1      44.050  29.788  62.0910  0.00  0.00     0.000 S
ENDBRANCH 2 11
BRANCH 5 16
ATOM     16   C  A00 X   1      46.847  26.290  65.4160  0.00  0.00     0.000 C
ATOM     17   O  A00 X   1      46.883  26.582  66.5930  0.00  0.00     0.000 OA
ATOM     18   O  A00 X   1      47.747  26.662  64.6900  0.00  0.00     0.000 OA
ENDBRANCH 5 16
BRANCH 1 19
ATOM     19  O4  A00 X   2      44.295  28.206  66.1150  0.00  0.00     0.000 O
BRANCH 19 23
ATOM     20  C1  A00 X   2      40.382  27.643  67.7690  0.00  0.00     0.000 C
ATOM     21  C2  A00 X   2      40.622  28.913  66.9170  0.00  0.00     0.000 C
ATOM     22  C3  A00 X   2      41.893  28.764  66.0550  0.00  0.00     0.000 C
ATOM     23  C4  A00 X   2      43.107  28.395  66.9370  0.00  0.00     0.000 C
ATOM     24  C5  A00 X   2      42.735  27.124  67.7490  0.00  0.00     0.000 C
ATOM     25  O5  A00 X   2      41.573  27.417  68.5680  0.00  0.00     0.000 O
ATOM     26   O  A00 X   2      42.034  29.937  65.2350  0.00  0.00     0.000 O
ATOM     28  HD  A00 X   2      41.934  30.478  65.9030  0.00  0.00     0.000 HD
BRANCH 21 30
ATOM     28   N  A00 X   2      39.699  29.634  67.7990  0.00  0.00     0.000 N
ATOM     30  HD  A00 X   2      39.796  30.118  67.0880  0.00  0.00     0.000 HD
ATOM     30   O  A00 X   2      38.612  31.269  66.5340  0.00  0.00     0.000 OA
ATOM     31   S  A00 X   2      39.533  31.194  67.6110  0.00  0.00     0.000 S
ATOM     32   O  A00 X   2      39.024  31.635  68.8730  0.00  0.00     0.000 OA
ATOM     33   O  A00 X   2      40.841  31.735  67.3860  0.00  0.00     0.000 OA
ENDBRANCH 21 30
BRANCH 24 34
ATOM     34   C  A00 X   2      43.858  26.413  68.5390  0.00  0.00     0.000 C
ATOM     35   O  A00 X   2      45.874  28.017  71.1120  0.00  0.00     0.000 OA
ATOM     36   O  A00 X   2      44.703  27.364  69.2170  0.00  0.00     0.000 O
ATOM     37   O  A00 X   2      43.511  27.926  71.1500  0.00  0.00     0.000 OA
ATOM     38   S  A00 X   2      44.718  27.249  70.7860  0.00  0.00     0.000 S
ATOM     39   O  A00 X   2      44.812  25.852  71.0880  0.00  0.00     0.000 OA
ENDBRANCH 24 34
BRANCH 20 40
ATOM     40  O4  A00 X   3      40.224  26.570  66.8290  0.00  0.00     0.000 O
BRANCH 40 44
ATOM     41  C1  A00 X   3      41.163  23.182  65.9550  0.00  0.00     0.000 C
ATOM     42  C2  A00 X   3      40.256  24.092  65.0990  0.00  0.00     0.000 C
ATOM     43  C3  A00 X   3      39.111  24.696  65.9520  0.00  0.00     0.000 C
ATOM     44  C4  A00 X   3      39.567  25.355  67.2480  0.00  0.00     0.000 C
ATOM     45  C5  A00 X   3      40.468  24.377  68.0540  0.00  0.00     0.000 C
ATOM     46  O5  A00 X   3      41.527  23.824  67.2080  0.00  0.00     0.000 O
ATOM     47   O  A00 X   3      38.158  25.487  65.2460  0.00  0.00     0.000 O
ATOM     49  HD  A00 X   3      38.200  25.974  65.9600  0.00  0.00     0.000 HD
BRANCH 42 49
ATOM     49   O  A00 X   3      41.099  25.124  64.5410  0.00  0.00     0.000 O
ATOM     50   O  A00 X   3      40.789  27.060  63.1670  0.00  0.00     0.000 OA
ATOM     51   O  A00 X   3      39.610  25.081  62.6330  0.00  0.00     0.000 OA
ATOM     52   O  A00 X   3      41.957  25.105  62.3550  0.00  0.00     0.000 OA
ATOM     53   S  A00 X   3      40.861  25.635  63.0900  0.00  0.00     0.000 S
ENDBRANCH 42 49
BRANCH 45 54
ATOM     54   C  A00 X   3      39.641  23.300  68.7670  0.00  0.00     0.000 C
ATOM     55   O  A00 X   3      40.120  22.652  69.6740  0.00  0.00     0.000 OA
ATOM     56   O  A00 X   3      38.488  23.074  68.4330  0.00  0.00     0.000 OA
ENDBRANCH 45 54
BRANCH 41 57
ATOM     57  O4  A00 X   4      40.595  21.862  66.1150  0.00  0.00     0.000 O
BRANCH 57 61
ATOM     58  C1  A00 X   4      42.324  17.957  66.7500  0.00  0.00     0.000 C
ATOM     59  C2  A00 X   4      42.222  18.927  67.9530  0.00  0.00     0.000 C
ATOM     60  C3  A00 X   4      41.281  20.123  67.7010  0.00  0.00     0.000 C
ATOM     61  C4  A00 X   4      41.562  20.797  66.3410  0.00  0.00     0.000 C
ATOM     62  C5  A00 X   4      41.403  19.693  65.2670  0.00  0.00     0.000 C
ATOM     63  O5  A00 X   4      42.400  18.663  65.4900  0.00  0.00     0.000 O
BRANCH 59 66
ATOM     64   N  A00 X   4      43.559  19.498  68.1990  0.00  0.00     0.000 N
ATOM     66  HD  A00 X   4      44.103  19.547  67.5270  0.00  0.00     0.000 HD
ATOM     66   O  A00 X   4      44.067  17.507  69.4560  0.00  0.00     0.000 OA
ATOM     67   S  A00 X   4      44.435  18.887  69.3900  0.00  0.00     0.000 S
ATOM     68   O  A00 X   4      45.757  19.150  68.8990  0.00  0.00     0.000 OA
ATOM     69   O  A00 X   4      44.028  19.742  70.4690  0.00  0.00     0.000 OA
ENDBRANCH 59 66
BRANCH 62 70
ATOM     70   C  A00 X   4      41.540  20.202  63.8120  0.00  0.00     0.000 C
ATOM     71   O  A00 X   4      44.512  20.396  61.7540  0.00  0.00     0.000 OA
ATOM     72   O  A00 X   4      42.852  22.003  62.2060  0.00  0.00     0.000 OA
ATOM     73   O  A00 X   4      42.844  19.867  63.3120  0.00  0.00     0.000 O
ATOM     74   O  A00 X   4      44.525  21.490  63.9020  0.00  0.00     0.000 OA
ATOM     75   S  A00 X   4      43.753  21.035  62.7910  0.00  0.00     0.000 S
ENDBRANCH 62 70
ENDBRANCH 57 61
ENDBRANCH 41 57
ENDBRANCH 40 44
ENDBRANCH 20 40
ENDBRANCH 19 23
ENDBRANCH 1 19
TORSDOF 14
ENDMDL
MODEL 92
REMARK VINA RESULT:      -0.2     35.168     39.598
ROOT
ATOM      1  C1  A00 X   1      12.992  14.889  39.5160  0.00  0.00     0.000 C
ATOM      2  C2  A00 X   1      13.033  15.383  38.0460  0.00  0.00     0.000 C
ATOM      3  C3  A00 X   1      12.434  16.804  37.7810  0.00  0.00     0.000 C
ATOM      4  C4  A00 X   1      11.555  17.381  38.9200  0.00  0.00     0.000 C
ATOM      5  C5  A00 X   1      10.993  16.287  39.8270  0.00  0.00     0.000 C
ATOM      6  O5  A00 X   1      12.156  15.662  40.4130  0.00  0.00     0.000 O
ATOM      7   O  A00 X   1      11.606  16.742  36.6220  0.00  0.00     0.000 O
ATOM      9  HD  A00 X   1      11.195  17.235  37.2040  0.00  0.00     0.000 HD
ATOM      9   O  A00 X   1      12.275  18.333  39.7030  0.00  0.00     0.000 O
ATOM     11  HD  A00 X   1      11.864  18.826  40.2850  0.00  0.00     0.000 HD
ENDROOT
BRANCH 2 11
ATOM     11   O  A00 X   1      14.409  15.366  37.6160  0.00  0.00     0.000 O
ATOM     12   O  A00 X   1      15.041  15.887  35.3590  0.00  0.00     0.000 OA
ATOM     13   O  A00 X   1      13.669  13.925  35.7880  0.00  0.00     0.000 OA
ATOM     14   O  A00 X   1      15.935  13.991  36.5070  0.00  0.00     0.000 OA
ATOM     15   S  A00 X   1      14.757  14.762  36.2130  0.00  0.00     0.000 S
ENDBRANCH 2 11
BRANCH 5 16
ATOM     16   C  A00 X   1      10.047  15.297  39.1380  0.00  0.00     0.000 C
ATOM     17   O  A00 X   1       9.719  14.294  39.7370  0.00  0.00     0.000 OA
ATOM     18   O  A00 X   1       9.611  15.484  38.0190  0.00  0.00     0.000 OA
ENDBRANCH 5 16
BRANCH 1 19
ATOM     19  O4  A00 X   2      12.713  13.471  39.6240  0.00  0.00     0.000 O
BRANCH 19 23
ATOM     20  C1  A00 X   2      15.352  12.900  42.9520  0.00  0.00     0.000 C
ATOM     21  C2  A00 X   2      15.879  12.516  41.5480  0.00  0.00     0.000 C
ATOM     22  C3  A00 X   2      15.020  13.165  40.4420  0.00  0.00     0.000 C
ATOM     23  C4  A00 X   2      13.527  12.817  40.6390  0.00  0.00     0.000 C
ATOM     24  C5  A00 X   2      13.130  13.232  42.0820  0.00  0.00     0.000 C
ATOM     25  O5  A00 X   2      13.958  12.501  43.0230  0.00  0.00     0.000 O
ATOM     26   O  A00 X   2      15.588  12.835  39.1630  0.00  0.00     0.000 O
ATOM     28  HD  A00 X   2      15.629  11.989  39.3430  0.00  0.00     0.000 HD
BRANCH 21 30
ATOM     28   N  A00 X   2      16.625  11.418  42.1700  0.00  0.00     0.000 N
ATOM     30  HD  A00 X   2      16.956  11.528  41.3770  0.00  0.00     0.000 HD
ATOM     30   O  A00 X   2      18.578  11.074  40.9340  0.00  0.00     0.000 OA
ATOM     31   S  A00 X   2      17.374  10.385  41.2360  0.00  0.00     0.000 S
ATOM     32   O  A00 X   2      17.530   9.230  42.0650  0.00  0.00     0.000 OA
ATOM     33   O  A00 X   2      16.499  10.095  40.1380  0.00  0.00     0.000 OA
ENDBRANCH 21 30
BRANCH 24 34
ATOM     34   C  A00 X   2      11.629  13.202  42.4580  0.00  0.00     0.000 C
ATOM     35   O  A00 X   2       9.534  10.231  42.2610  0.00  0.00     0.000 OA
ATOM     36   O  A00 X   2      10.987  12.015  41.9530  0.00  0.00     0.000 O
ATOM     37   O  A00 X   2      11.548  10.348  43.4950  0.00  0.00     0.000 OA
ATOM     38   S  A00 X   2      10.389  11.058  43.0480  0.00  0.00     0.000 S
ATOM     39   O  A00 X   2       9.718  11.896  43.9950  0.00  0.00     0.000 OA
ENDBRANCH 24 34
BRANCH 20 40
ATOM     40  O4  A00 X   3      15.446  14.331  43.0230  0.00  0.00     0.000 O
BRANCH 40 44
ATOM     41  C1  A00 X   3      13.775  17.409  43.9480  0.00  0.00     0.000 C
ATOM     42  C2  A00 X   3      15.169  17.328  43.2890  0.00  0.00     0.000 C
ATOM     43  C3  A00 X   3      16.088  16.341  44.0540  0.00  0.00     0.000 C
ATOM     44  C4  A00 X   3      15.471  14.973  44.3150  0.00  0.00     0.000 C
ATOM     45  C5  A00 X   3      14.076  15.137  44.9820  0.00  0.00     0.000 C
ATOM     46  O5  A00 X   3      13.246  16.084  44.2330  0.00  0.00     0.000 O
ATOM     47   O  A00 X   3      17.432  16.251  43.5850  0.00  0.00     0.000 O
ATOM     49  HD  A00 X   3      17.317  15.410  43.7580  0.00  0.00     0.000 HD
BRANCH 42 49
ATOM     49   O  A00 X   3      14.967  16.909  41.9220  0.00  0.00     0.000 O
ATOM     50   O  A00 X   3      16.360  16.378  40.0490  0.00  0.00     0.000 OA
ATOM     51   O  A00 X   3      16.921  18.237  41.3980  0.00  0.00     0.000 OA
ATOM     52   O  A00 X   3      14.968  18.355  40.0720  0.00  0.00     0.000 OA
ATOM     53   S  A00 X   3      15.850  17.494  40.7810  0.00  0.00     0.000 S
ENDBRANCH 42 49
BRANCH 45 54
ATOM     54   C  A00 X   3      14.196  15.487  46.4700  0.00  0.00     0.000 C
ATOM     55   O  A00 X   3      15.237  15.917  46.9230  0.00  0.00     0.000 OA
ATOM     56   O  A00 X   3      13.248  15.337  47.2260  0.00  0.00     0.000 OA
ENDBRANCH 45 54
BRANCH 41 57
ATOM     57  O4  A00 X   4      13.773  18.299  45.0860  0.00  0.00     0.000 O
BRANCH 57 61
ATOM     58  C1  A00 X   4      10.718  20.720  46.9410  0.00  0.00     0.000 C
ATOM     59  C2  A00 X   4      10.724  19.196  47.2160  0.00  0.00     0.000 C
ATOM     60  C3  A00 X   4      12.040  18.503  46.8090  0.00  0.00     0.000 C
ATOM     61  C4  A00 X   4      12.488  18.913  45.3890  0.00  0.00     0.000 C
ATOM     62  C5  A00 X   4      12.620  20.456  45.4020  0.00  0.00     0.000 C
ATOM     63  O5  A00 X   4      11.321  21.044  45.6680  0.00  0.00     0.000 O
BRANCH 59 66
ATOM     64   N  A00 X   4       9.665  18.560  46.4130  0.00  0.00     0.000 N
ATOM     66  HD  A00 X   4       9.432  18.951  45.6760  0.00  0.00     0.000 HD
ATOM     66   O  A00 X   4       8.112  19.191  48.1420  0.00  0.00     0.000 OA
ATOM     67   S  A00 X   4       8.284  18.193  47.1330  0.00  0.00     0.000 S
ATOM     68   O  A00 X   4       7.383  18.278  46.0210  0.00  0.00     0.000 OA
ATOM     69   O  A00 X   4       8.569  16.853  47.5590  0.00  0.00     0.000 OA
ENDBRANCH 59 66
BRANCH 62 70
ATOM     70   C  A00 X   4      13.170  21.054  44.0850  0.00  0.00     0.000 C
ATOM     71   O  A00 X   4      11.336  22.185  41.1760  0.00  0.00     0.000 OA
ATOM     72   O  A00 X   4      13.198  20.756  41.3550  0.00  0.00     0.000 OA
ATOM     73   O  A00 X   4      12.081  21.589  43.3150  0.00  0.00     0.000 O
ATOM     74   O  A00 X   4      10.985  19.930  41.9540  0.00  0.00     0.000 OA
ATOM     75   S  A00 X   4      11.874  21.043  41.8590  0.00  0.00     0.000 S
ENDBRANCH 62 70
ENDBRANCH 57 61
ENDBRANCH 41 57
ENDBRANCH 40 44
ENDBRANCH 20 40
ENDBRANCH 19 23
ENDBRANCH 1 19
TORSDOF 14
ENDMDL
MODEL 93
REMARK VINA RESULT:      -0.2     61.389     64.937
ROOT
ATOM      1  C1  A00 X   1      41.050  17.690  59.7830  0.00  0.00     0.000 C
ATOM      2  C2  A00 X   1      40.793  16.186  59.5020  0.00  0.00     0.000 C
ATOM      3  C3  A00 X   1      41.408  15.180  60.5300  0.00  0.00     0.000 C
ATOM      4  C4  A00 X   1      42.487  15.767  61.4760  0.00  0.00     0.000 C
ATOM      5  C5  A00 X   1      43.137  17.025  60.9000  0.00  0.00     0.000 C
ATOM      6  O5  A00 X   1      42.056  17.977  60.7860  0.00  0.00     0.000 O
ATOM      7   O  A00 X   1      42.033  14.118  59.8130  0.00  0.00     0.000 O
ATOM      9  HD  A00 X   1      42.556  14.323  60.4720  0.00  0.00     0.000 HD
ATOM      9   O  A00 X   1      41.950  16.049  62.7680  0.00  0.00     0.000 O
ATOM     11  HD  A00 X   1      42.474  16.255  63.4270  0.00  0.00     0.000 HD
ENDROOT
BRANCH 2 11
ATOM     11   O  A00 X   1      39.367  15.987  59.4470  0.00  0.00     0.000 O
ATOM     12   O  A00 X   1      38.402  13.862  58.8840  0.00  0.00     0.000 OA
ATOM     13   O  A00 X   1      39.731  15.042  57.2240  0.00  0.00     0.000 OA
ATOM     14   O  A00 X   1      37.617  15.896  57.9040  0.00  0.00     0.000 OA
ATOM     15   S  A00 X   1      38.767  15.121  58.2860  0.00  0.00     0.000 S
ENDBRANCH 2 11
BRANCH 5 16
ATOM     16   C  A00 X   1      43.910  16.815  59.5940  0.00  0.00     0.000 C
ATOM     17   O  A00 X   1      44.282  17.791  58.9760  0.00  0.00     0.000 OA
ATOM     18   O  A00 X   1      44.168  15.710  59.1600  0.00  0.00     0.000 OA
ENDBRANCH 5 16
BRANCH 1 19
ATOM     19  O4  A00 X   2      41.275  18.457  58.5750  0.00  0.00     0.000 O
BRANCH 19 23
ATOM     20  C1  A00 X   2      39.188  21.910  60.0180  0.00  0.00     0.000 C
ATOM     21  C2  A00 X   2      38.421  20.956  59.0700  0.00  0.00     0.000 C
ATOM     22  C3  A00 X   2      39.120  19.583  58.9900  0.00  0.00     0.000 C
ATOM     23  C4  A00 X   2      40.606  19.750  58.6000  0.00  0.00     0.000 C
ATOM     24  C5  A00 X   2      41.253  20.737  59.6090  0.00  0.00     0.000 C
ATOM     25  O5  A00 X   2      40.554  22.007  59.5340  0.00  0.00     0.000 O
ATOM     26   O  A00 X   2      38.335  18.714  58.1550  0.00  0.00     0.000 O
ATOM     28  HD  A00 X   2      38.282  19.294  57.5150  0.00  0.00     0.000 HD
BRANCH 21 30
ATOM     28   N  A00 X   2      37.733  22.125  58.5120  0.00  0.00     0.000 N
ATOM     30  HD  A00 X   2      37.284  21.427  58.2640  0.00  0.00     0.000 HD
ATOM     30   O  A00 X   2      35.590  21.462  57.8570  0.00  0.00     0.000 OA
ATOM     31   S  A00 X   2      36.792  21.923  57.2570  0.00  0.00     0.000 S
ATOM     32   O  A00 X   2      36.716  23.228  56.6780  0.00  0.00     0.000 OA
ATOM     33   O  A00 X   2      37.461  21.022  56.3670  0.00  0.00     0.000 OA
ENDBRANCH 21 30
BRANCH 24 34
ATOM     34   C  A00 X   2      42.791  20.900  59.5810  0.00  0.00     0.000 C
ATOM     35   O  A00 X   2      44.677  21.965  56.6540  0.00  0.00     0.000 OA
ATOM     36   O  A00 X   2      43.283  20.982  58.2280  0.00  0.00     0.000 O
ATOM     37   O  A00 X   2      42.899  23.203  57.6030  0.00  0.00     0.000 OA
ATOM     38   S  A00 X   2      44.004  22.329  57.8570  0.00  0.00     0.000 S
ATOM     39   O  A00 X   2      44.861  22.647  58.9600  0.00  0.00     0.000 OA
ENDBRANCH 24 34
BRANCH 20 40
ATOM     40  O4  A00 X   3      39.178  21.271  61.3020  0.00  0.00     0.000 O
BRANCH 40 44
ATOM     41  C1  A00 X   3      41.121  20.341  64.2150  0.00  0.00     0.000 C
ATOM     42  C2  A00 X   3      39.636  19.978  63.9940  0.00  0.00     0.000 C
ATOM     43  C3  A00 X   3      38.807  21.234  63.6220  0.00  0.00     0.000 C
ATOM     44  C4  A00 X   3      39.393  22.066  62.4880  0.00  0.00     0.000 C
ATOM     45  C5  A00 X   3      40.884  22.394  62.7840  0.00  0.00     0.000 C
ATOM     46  O5  A00 X   3      41.625  21.183  63.1410  0.00  0.00     0.000 O
ATOM     47   O  A00 X   3      37.402  21.033  63.4790  0.00  0.00     0.000 O
ATOM     49  HD  A00 X   3      37.504  21.586  62.8210  0.00  0.00     0.000 HD
BRANCH 42 49
ATOM     49   O  A00 X   3      39.594  18.987  62.9440  0.00  0.00     0.000 O
ATOM     50   O  A00 X   3      37.893  17.803  61.7460  0.00  0.00     0.000 OA
ATOM     51   O  A00 X   3      37.646  18.105  64.0780  0.00  0.00     0.000 OA
ATOM     52   O  A00 X   3      39.362  16.677  63.3020  0.00  0.00     0.000 OA
ATOM     53   S  A00 X   3      38.567  17.819  63.0060  0.00  0.00     0.000 S
ENDBRANCH 42 49
BRANCH 45 54
ATOM     54   C  A00 X   3      41.023  23.514  63.8220  0.00  0.00     0.000 C
ATOM     55   O  A00 X   3      40.091  23.809  64.5440  0.00  0.00     0.000 OA
ATOM     56   O  A00 X   3      42.070  24.130  63.9410  0.00  0.00     0.000 OA
ENDBRANCH 45 54
BRANCH 41 57
ATOM     57  O4  A00 X   4      41.349  20.876  65.5370  0.00  0.00     0.000 O
BRANCH 57 61
ATOM     58  C1  A00 X   4      44.779  20.921  68.1580  0.00  0.00     0.000 C
ATOM     59  C2  A00 X   4      44.740  21.917  66.9720  0.00  0.00     0.000 C
ATOM     60  C3  A00 X   4      43.342  22.060  66.3370  0.00  0.00     0.000 C
ATOM     61  C4  A00 X   4      42.696  20.686  66.0580  0.00  0.00     0.000 C
ATOM     62  C5  A00 X   4      42.645  19.944  67.4160  0.00  0.00     0.000 C
ATOM     63  O5  A00 X   4      43.998  19.733  67.8950  0.00  0.00     0.000 O
BRANCH 59 66
ATOM     64   N  A00 X   4      45.621  21.438  65.8930  0.00  0.00     0.000 N
ATOM     66  HD  A00 X   4      45.753  20.584  65.8330  0.00  0.00     0.000 HD
ATOM     66   O  A00 X   4      47.462  22.419  67.0970  0.00  0.00     0.000 OA
ATOM     67   S  A00 X   4      47.078  22.086  65.7610  0.00  0.00     0.000 S
ATOM     68   O  A00 X   4      47.793  20.995  65.1670  0.00  0.00     0.000 OA
ATOM     69   O  A00 X   4      46.794  23.165  64.8570  0.00  0.00     0.000 OA
ENDBRANCH 59 66
BRANCH 62 70
ATOM     70   C  A00 X   4      41.924  18.576  67.3630  0.00  0.00     0.000 C
ATOM     71   O  A00 X   4      43.323  15.306  66.6860  0.00  0.00     0.000 OA
ATOM     72   O  A00 X   4      41.436  16.385  65.7800  0.00  0.00     0.000 OA
ATOM     73   O  A00 X   4      42.902  17.525  67.3090  0.00  0.00     0.000 O
ATOM     74   O  A00 X   4      43.666  17.064  65.0710  0.00  0.00     0.000 OA
ATOM     75   S  A00 X   4      42.839  16.526  66.1020  0.00  0.00     0.000 S
ENDBRANCH 62 70
ENDBRANCH 57 61
ENDBRANCH 41 57
ENDBRANCH 40 44
ENDBRANCH 20 40
ENDBRANCH 19 23
ENDBRANCH 1 19
TORSDOF 14
ENDMDL
MODEL 94
REMARK VINA RESULT:      -0.2     41.861     46.038
ROOT
ATOM      1  C1  A00 X   1      18.597  15.394  51.3740  0.00  0.00     0.000 C
ATOM      2  C2  A00 X   1      19.584  15.200  52.5550  0.00  0.00     0.000 C
ATOM      3  C3  A00 X   1      19.457  13.854  53.3430  0.00  0.00     0.000 C
ATOM      4  C4  A00 X   1      18.151  13.056  53.0960  0.00  0.00     0.000 C
ATOM      5  C5  A00 X   1      17.019  13.945  52.5820  0.00  0.00     0.000 C
ATOM      6  O5  A00 X   1      17.497  14.452  51.3160  0.00  0.00     0.000 O
ATOM      7   O  A00 X   1      19.502  14.136  54.7400  0.00  0.00     0.000 O
ATOM      9  HD  A00 X   1      18.890  13.535  54.6200  0.00  0.00     0.000 HD
ATOM      9   O  A00 X   1      18.364  11.974  52.1900  0.00  0.00     0.000 O
ATOM     11  HD  A00 X   1      17.752  11.373  52.0700  0.00  0.00     0.000 HD
ENDROOT
BRANCH 2 11
ATOM     11   O  A00 X   1      20.922  15.312  52.0310  0.00  0.00     0.000 O
ATOM     12   O  A00 X   1      22.856  14.839  53.3740  0.00  0.00     0.000 OA
ATOM     13   O  A00 X   1      21.412  16.701  53.9800  0.00  0.00     0.000 OA
ATOM     14   O  A00 X   1      22.729  16.791  52.0010  0.00  0.00     0.000 OA
ATOM     15   S  A00 X   1      22.039  15.941  52.9340  0.00  0.00     0.000 S
ENDBRANCH 2 11
BRANCH 5 16
ATOM     16   C  A00 X   1      16.568  15.043  53.5510  0.00  0.00     0.000 C
ATOM     17   O  A00 X   1      15.833  15.916  53.1380  0.00  0.00     0.000 OA
ATOM     18   O  A00 X   1      16.912  15.067  54.7160  0.00  0.00     0.000 OA
ENDBRANCH 5 16
BRANCH 1 19
ATOM     19  O4  A00 X   2      18.130  16.760  51.2510  0.00  0.00     0.000 O
BRANCH 19 23
ATOM     20  C1  A00 X   2      18.264  16.743  46.9680  0.00  0.00     0.000 C
ATOM     21  C2  A00 X   2      19.461  17.376  47.7180  0.00  0.00     0.000 C
ATOM     22  C3  A00 X   2      19.482  16.930  49.1950  0.00  0.00     0.000 C
ATOM     23  C4  A00 X   2      18.125  17.227  49.8720  0.00  0.00     0.000 C
ATOM     24  C5  A00 X   2      17.012  16.558  49.0190  0.00  0.00     0.000 C
ATOM     25  O5  A00 X   2      17.053  17.115  47.6790  0.00  0.00     0.000 O
ATOM     26   O  A00 X   2      20.646  17.487  49.8280  0.00  0.00     0.000 O
ATOM     28  HD  A00 X   2      20.481  18.287  49.5420  0.00  0.00     0.000 HD
BRANCH 21 30
ATOM     28   N  A00 X   2      19.580  18.351  46.6290  0.00  0.00     0.000 N
ATOM     30  HD  A00 X   2      20.319  18.386  47.0790  0.00  0.00     0.000 HD
ATOM     30   O  A00 X   2      21.835  18.922  46.4070  0.00  0.00     0.000 OA
ATOM     31   S  A00 X   2      20.612  19.538  46.7840  0.00  0.00     0.000 S
ATOM     32   O  A00 X   2      20.129  20.528  45.8710  0.00  0.00     0.000 OA
ATOM     33   O  A00 X   2      20.513  20.013  48.1320  0.00  0.00     0.000 OA
ENDBRANCH 21 30
BRANCH 24 34
ATOM     34   C  A00 X   2      15.581  16.510  49.6030  0.00  0.00     0.000 C
ATOM     35   O  A00 X   2      13.683  19.454  50.5990  0.00  0.00     0.000 OA
ATOM     36   O  A00 X   2      15.228  17.762  50.2250  0.00  0.00     0.000 O
ATOM     37   O  A00 X   2      14.603  19.142  48.4420  0.00  0.00     0.000 OA
ATOM     38   S  A00 X   2      14.005  18.510  49.5790  0.00  0.00     0.000 S
ATOM     39   O  A00 X   2      13.004  17.516  49.3340  0.00  0.00     0.000 OA
ENDBRANCH 24 34
BRANCH 20 40
ATOM     40  O4  A00 X   3      18.457  15.324  47.0570  0.00  0.00     0.000 O
BRANCH 40 44
ATOM     41  C1  A00 X   3      16.931  12.110  47.7410  0.00  0.00     0.000 C
ATOM     42  C2  A00 X   3      18.426  12.325  47.4220  0.00  0.00     0.000 C
ATOM     43  C3  A00 X   3      18.603  13.169  46.1340  0.00  0.00     0.000 C
ATOM     44  C4  A00 X   3      17.796  14.461  46.1070  0.00  0.00     0.000 C
ATOM     45  C5  A00 X   3      16.305  14.163  46.4320  0.00  0.00     0.000 C
ATOM     46  O5  A00 X   3      16.186  13.356  47.6480  0.00  0.00     0.000 O
ATOM     47   O  A00 X   3      19.947  13.358  45.6930  0.00  0.00     0.000 O
ATOM     49  HD  A00 X   3      19.656  14.153  45.5090  0.00  0.00     0.000 HD
BRANCH 42 49
ATOM     49   O  A00 X   3      19.014  12.979  48.5670  0.00  0.00     0.000 O
ATOM     50   O  A00 X   3      21.165  13.854  49.1490  0.00  0.00     0.000 OA
ATOM     51   O  A00 X   3      21.044  11.790  48.0010  0.00  0.00     0.000 OA
ATOM     52   O  A00 X   3      20.263  11.888  50.2290  0.00  0.00     0.000 OA
ATOM     53   S  A00 X   3      20.457  12.618  49.0250  0.00  0.00     0.000 S
ENDBRANCH 42 49
BRANCH 45 54
ATOM     54   C  A00 X   3      15.573  13.554  45.2300  0.00  0.00     0.000 C
ATOM     55   O  A00 X   3      14.361  13.571  45.1700  0.00  0.00     0.000 OA
ATOM     56   O  A00 X   3      16.196  13.042  44.3120  0.00  0.00     0.000 OA
ENDBRANCH 45 54
BRANCH 41 57
ATOM     57  O4  A00 X   4      16.368  11.030  46.9630  0.00  0.00     0.000 O
BRANCH 57 61
ATOM     58  C1  A00 X   4      13.077   8.315  47.6200  0.00  0.00     0.000 C
ATOM     59  C2  A00 X   4      12.764   9.763  47.1680  0.00  0.00     0.000 C
ATOM     60  C3  A00 X   4      13.995  10.517  46.6250  0.00  0.00     0.000 C
ATOM     61  C4  A00 X   4      15.214  10.374  47.5600  0.00  0.00     0.000 C
ATOM     62  C5  A00 X   4      15.477   8.854  47.7040  0.00  0.00     0.000 C
ATOM     63  O5  A00 X   4      14.330   8.229  48.3360  0.00  0.00     0.000 O
BRANCH 59 66
ATOM     64   N  A00 X   4      12.292  10.548  48.3240  0.00  0.00     0.000 N
ATOM     66  HD  A00 X   4      12.566  10.308  49.1090  0.00  0.00     0.000 HD
ATOM     66   O  A00 X   4      10.110   9.602  47.9480  0.00  0.00     0.000 OA
ATOM     67   S  A00 X   4      10.718  10.775  48.4930  0.00  0.00     0.000 S
ATOM     68   O  A00 X   4      10.628  10.912  49.9170  0.00  0.00     0.000 OA
ATOM     69   O  A00 X   4      10.561  12.007  47.7730  0.00  0.00     0.000 OA
ENDBRANCH 59 66
BRANCH 62 70
ATOM     70   C  A00 X   4      16.741   8.507  48.5270  0.00  0.00     0.000 C
ATOM     71   O  A00 X   4      17.055   8.040  52.1030  0.00  0.00     0.000 OA
ATOM     72   O  A00 X   4      18.331   9.335  50.6070  0.00  0.00     0.000 OA
ATOM     73   O  A00 X   4      16.357   8.175  49.8710  0.00  0.00     0.000 O
ATOM     74   O  A00 X   4      16.124  10.110  51.2880  0.00  0.00     0.000 OA
ATOM     75   S  A00 X   4      16.992   9.004  51.0410  0.00  0.00     0.000 S
ENDBRANCH 62 70
ENDBRANCH 57 61
ENDBRANCH 41 57
ENDBRANCH 40 44
ENDBRANCH 20 40
ENDBRANCH 19 23
ENDBRANCH 1 19
TORSDOF 14
ENDMDL
MODEL 95
REMARK VINA RESULT:      -0.2     49.496     53.295
ROOT
ATOM      1  C1  A00 X   1      36.457   8.198  51.9490  0.00  0.00     0.000 C
ATOM      2  C2  A00 X   1      37.091   7.927  50.5590  0.00  0.00     0.000 C
ATOM      3  C3  A00 X   1      36.909   6.481  49.9910  0.00  0.00     0.000 C
ATOM      4  C4  A00 X   1      36.453   5.412  51.0170  0.00  0.00     0.000 C
ATOM      5  C5  A00 X   1      36.784   5.814  52.4540  0.00  0.00     0.000 C
ATOM      6  O5  A00 X   1      36.026   7.024  52.6800  0.00  0.00     0.000 O
ATOM      7   O  A00 X   1      38.158   6.033  49.4680  0.00  0.00     0.000 O
ATOM      9  HD  A00 X   1      37.803   5.365  49.8900  0.00  0.00     0.000 HD
ATOM      9   O  A00 X   1      35.057   5.139  50.9010  0.00  0.00     0.000 O
ATOM     11  HD  A00 X   1      34.702   4.471  51.3230  0.00  0.00     0.000 HD
ENDROOT
BRANCH 2 11
ATOM     11   O  A00 X   1      36.528   8.871  49.6280  0.00  0.00     0.000 O
ATOM     12   O  A00 X   1      36.959   8.741  47.2690  0.00  0.00     0.000 OA
ATOM     13   O  A00 X   1      38.802   9.185  48.7930  0.00  0.00     0.000 OA
ATOM     14   O  A00 X   1      37.097  10.810  48.4580  0.00  0.00     0.000 OA
ATOM     15   S  A00 X   1      37.422   9.409  48.4580  0.00  0.00     0.000 S
ENDBRANCH 2 11
BRANCH 5 16
ATOM     16   C  A00 X   1      38.278   5.960  52.7590  0.00  0.00     0.000 C
ATOM     17   O  A00 X   1      38.610   6.468  53.8100  0.00  0.00     0.000 OA
ATOM     18   O  A00 X   1      39.140   5.580  51.9910  0.00  0.00     0.000 OA
ENDBRANCH 5 16
BRANCH 1 19
ATOM     19  O4  A00 X   2      37.269   9.067  52.7760  0.00  0.00     0.000 O
BRANCH 19 23
ATOM     20  C1  A00 X   2      33.911  11.161  54.4210  0.00  0.00     0.000 C
ATOM     21  C2  A00 X   2      34.638  11.809  53.2170  0.00  0.00     0.000 C
ATOM     22  C3  A00 X   2      35.511  10.773  52.4800  0.00  0.00     0.000 C
ATOM     23  C4  A00 X   2      36.481  10.080  53.4640  0.00  0.00     0.000 C
ATOM     24  C5  A00 X   2      35.636   9.491  54.6270  0.00  0.00     0.000 C
ATOM     25  O5  A00 X   2      34.923  10.573  55.2810  0.00  0.00     0.000 O
ATOM     26   O  A00 X   2      36.108  11.404  51.3340  0.00  0.00     0.000 O
ATOM     28  HD  A00 X   2      36.399  12.078  51.7950  0.00  0.00     0.000 HD
BRANCH 21 30
ATOM     28   N  A00 X   2      34.403  13.133  53.8020  0.00  0.00     0.000 N
ATOM     30  HD  A00 X   2      34.594  13.258  52.9660  0.00  0.00     0.000 HD
ATOM     30   O  A00 X   2      34.083  14.652  52.0560  0.00  0.00     0.000 OA
ATOM     31   S  A00 X   2      35.025  14.398  53.0870  0.00  0.00     0.000 S
ATOM     32   O  A00 X   2      35.068  15.384  54.1230  0.00  0.00     0.000 OA
ATOM     33   O  A00 X   2      36.353  14.045  52.6810  0.00  0.00     0.000 OA
ENDBRANCH 21 30
BRANCH 24 34
ATOM     34   C  A00 X   2      36.341   8.548  55.6300  0.00  0.00     0.000 C
ATOM     35   O  A00 X   2      39.344   9.426  57.4920  0.00  0.00     0.000 OA
ATOM     36   O  A00 X   2      37.671   9.012  55.9380  0.00  0.00     0.000 O
ATOM     37   O  A00 X   2      37.347  10.692  57.5330  0.00  0.00     0.000 OA
ATOM     38   S  A00 X   2      37.919   9.383  57.4460  0.00  0.00     0.000 S
ATOM     39   O  A00 X   2      37.318   8.342  58.2240  0.00  0.00     0.000 OA
ENDBRANCH 24 34
BRANCH 20 40
ATOM     40  O4  A00 X   3      33.091  10.123  53.8650  0.00  0.00     0.000 O
BRANCH 40 44
ATOM     41  C1  A00 X   3      31.896   6.710  54.0860  0.00  0.00     0.000 C
ATOM     42  C2  A00 X   3      31.521   7.703  52.9650  0.00  0.00     0.000 C
ATOM     43  C3  A00 X   3      31.025   9.047  53.5570  0.00  0.00     0.000 C
ATOM     44  C4  A00 X   3      31.945   9.654  54.6090  0.00  0.00     0.000 C
ATOM     45  C5  A00 X   3      32.272   8.598  55.7020  0.00  0.00     0.000 C
ATOM     46  O5  A00 X   3      32.726   7.343  55.0990  0.00  0.00     0.000 O
ATOM     47   O  A00 X   3      30.568  10.013  52.6120  0.00  0.00     0.000 O
ATOM     49  HD  A00 X   3      30.970  10.562  53.1480  0.00  0.00     0.000 HD
BRANCH 42 49
ATOM     49   O  A00 X   3      32.700   7.887  52.1510  0.00  0.00     0.000 O
ATOM     50   O  A00 X   3      33.307   9.220  50.2580  0.00  0.00     0.000 OA
ATOM     51   O  A00 X   3      31.173   8.203  50.3000  0.00  0.00     0.000 OA
ATOM     52   O  A00 X   3      33.078   6.819  50.0940  0.00  0.00     0.000 OA
ATOM     53   S  A00 X   3      32.573   8.045  50.6080  0.00  0.00     0.000 S
ENDBRANCH 42 49
BRANCH 45 54
ATOM     54   C  A00 X   3      31.104   8.411  56.6780  0.00  0.00     0.000 C
ATOM     55   O  A00 X   3      31.283   7.910  57.7690  0.00  0.00     0.000 OA
ATOM     56   O  A00 X   3      29.974   8.760  56.3740  0.00  0.00     0.000 OA
ENDBRANCH 45 54
BRANCH 41 57
ATOM     57  O4  A00 X   4      30.731   6.039  54.6180  0.00  0.00     0.000 O
BRANCH 57 61
ATOM     58  C1  A00 X   4      30.113   2.124  56.3290  0.00  0.00     0.000 C
ATOM     59  C2  A00 X   4      31.060   3.111  57.0580  0.00  0.00     0.000 C
ATOM     60  C3  A00 X   4      30.924   4.567  56.5690  0.00  0.00     0.000 C
ATOM     61  C4  A00 X   4      30.946   4.659  55.0280  0.00  0.00     0.000 C
ATOM     62  C5  A00 X   4      29.788   3.763  54.5220  0.00  0.00     0.000 C
ATOM     63  O5  A00 X   4      30.043   2.389  54.9100  0.00  0.00     0.000 O
BRANCH 59 66
ATOM     64   N  A00 X   4      32.480   3.222  57.4350  0.00  0.00     0.000 N
ATOM     66  HD  A00 X   4      33.069   3.134  56.8070  0.00  0.00     0.000 HD
ATOM     66   O  A00 X   4      32.242   1.110  58.5670  0.00  0.00     0.000 OA
ATOM     67   S  A00 X   4      33.020   2.307  58.6310  0.00  0.00     0.000 S
ATOM     68   O  A00 X   4      34.396   2.170  58.2510  0.00  0.00     0.000 OA
ATOM     69   O  A00 X   4      32.802   3.189  59.7430  0.00  0.00     0.000 OA
ENDBRANCH 59 66
BRANCH 62 70
ATOM     70   C  A00 X   4      29.575   3.810  52.9900  0.00  0.00     0.000 C
ATOM     71   O  A00 X   4      31.735   2.557  50.3680  0.00  0.00     0.000 OA
ATOM     72   O  A00 X   4      30.684   4.649  50.6210  0.00  0.00     0.000 OA
ATOM     73   O  A00 X   4      30.557   2.980  52.3490  0.00  0.00     0.000 O
ATOM     74   O  A00 X   4      32.647   4.117  51.9650  0.00  0.00     0.000 OA
ATOM     75   S  A00 X   4      31.490   3.642  51.2760  0.00  0.00     0.000 S
ENDBRANCH 62 70
ENDBRANCH 57 61
ENDBRANCH 41 57
ENDBRANCH 40 44
ENDBRANCH 20 40
ENDBRANCH 19 23
ENDBRANCH 1 19
TORSDOF 14
ENDMDL
MODEL 96
REMARK VINA RESULT:      -0.1     43.059     47.221
ROOT
ATOM      1  C1  A00 X   1      20.295  16.797  52.3220  0.00  0.00     0.000 C
ATOM      2  C2  A00 X   1      21.283  16.603  53.5040  0.00  0.00     0.000 C
ATOM      3  C3  A00 X   1      21.156  15.257  54.2920  0.00  0.00     0.000 C
ATOM      4  C4  A00 X   1      19.850  14.459  54.0450  0.00  0.00     0.000 C
ATOM      5  C5  A00 X   1      18.718  15.349  53.5310  0.00  0.00     0.000 C
ATOM      6  O5  A00 X   1      19.196  15.855  52.2650  0.00  0.00     0.000 O
ATOM      7   O  A00 X   1      21.201  15.539  55.6890  0.00  0.00     0.000 O
ATOM      9  HD  A00 X   1      20.589  14.938  55.5690  0.00  0.00     0.000 HD
ATOM      9   O  A00 X   1      20.063  13.377  53.1380  0.00  0.00     0.000 O
ATOM     11  HD  A00 X   1      19.451  12.776  53.0190  0.00  0.00     0.000 HD
ENDROOT
BRANCH 2 11
ATOM     11   O  A00 X   1      22.621  16.716  52.9800  0.00  0.00     0.000 O
ATOM     12   O  A00 X   1      24.554  16.241  54.3230  0.00  0.00     0.000 OA
ATOM     13   O  A00 X   1      23.111  18.103  54.9300  0.00  0.00     0.000 OA
ATOM     14   O  A00 X   1      24.428  18.194  52.9510  0.00  0.00     0.000 OA
ATOM     15   S  A00 X   1      23.738  17.344  53.8830  0.00  0.00     0.000 S
ENDBRANCH 2 11
BRANCH 5 16
ATOM     16   C  A00 X   1      18.266  16.446  54.5000  0.00  0.00     0.000 C
ATOM     17   O  A00 X   1      18.572  16.350  55.6700  0.00  0.00     0.000 OA
ATOM     18   O  A00 X   1      17.621  17.410  54.1370  0.00  0.00     0.000 OA
ENDBRANCH 5 16
BRANCH 1 19
ATOM     19  O4  A00 X   2      19.828  18.163  52.2000  0.00  0.00     0.000 O
BRANCH 19 23
ATOM     20  C1  A00 X   2      19.937  18.142  47.9160  0.00  0.00     0.000 C
ATOM     21  C2  A00 X   2      21.146  18.762  48.6580  0.00  0.00     0.000 C
ATOM     22  C3  A00 X   2      21.170  18.317  50.1360  0.00  0.00     0.000 C
ATOM     23  C4  A00 X   2      19.821  18.629  50.8200  0.00  0.00     0.000 C
ATOM     24  C5  A00 X   2      18.696  17.972  49.9740  0.00  0.00     0.000 C
ATOM     25  O5  A00 X   2      18.735  18.527  48.6340  0.00  0.00     0.000 O
ATOM     26   O  A00 X   2      22.345  18.861  50.7620  0.00  0.00     0.000 O
ATOM     28  HD  A00 X   2      22.186  19.663  50.4760  0.00  0.00     0.000 HD
BRANCH 21 30
ATOM     28   N  A00 X   2      21.269  19.733  47.5670  0.00  0.00     0.000 N
ATOM     30  HD  A00 X   2      22.011  19.761  48.0130  0.00  0.00     0.000 HD
ATOM     30   O  A00 X   2      23.529  20.280  47.3330  0.00  0.00     0.000 OA
ATOM     31   S  A00 X   2      22.315  20.910  47.7140  0.00  0.00     0.000 S
ATOM     32   O  A00 X   2      21.837  21.903  46.8030  0.00  0.00     0.000 OA
ATOM     33   O  A00 X   2      22.227  21.388  49.0620  0.00  0.00     0.000 OA
ENDBRANCH 21 30
BRANCH 24 34
ATOM     34   C  A00 X   2      17.267  17.941  50.5660  0.00  0.00     0.000 C
ATOM     35   O  A00 X   2      14.413  19.663  49.1020  0.00  0.00     0.000 OA
ATOM     36   O  A00 X   2      16.442  18.976  49.9960  0.00  0.00     0.000 O
ATOM     37   O  A00 X   2      15.756  18.105  47.9360  0.00  0.00     0.000 OA
ATOM     38   S  A00 X   2      15.186  18.469  49.1970  0.00  0.00     0.000 S
ATOM     39   O  A00 X   2      14.599  17.427  49.9850  0.00  0.00     0.000 OA
ENDBRANCH 24 34
BRANCH 20 40
ATOM     40  O4  A00 X   3      20.115  16.721  48.0050  0.00  0.00     0.000 O
BRANCH 40 44
ATOM     41  C1  A00 X   3      18.594  13.497  48.6540  0.00  0.00     0.000 C
ATOM     42  C2  A00 X   3      20.090  13.718  48.3400  0.00  0.00     0.000 C
ATOM     43  C3  A00 X   3      20.268  14.575  47.0600  0.00  0.00     0.000 C
ATOM     44  C4  A00 X   3      19.458  15.865  47.0450  0.00  0.00     0.000 C
ATOM     45  C5  A00 X   3      17.967  15.561  47.3640  0.00  0.00     0.000 C
ATOM     46  O5  A00 X   3      17.847  14.742  48.5720  0.00  0.00     0.000 O
ATOM     47   O  A00 X   3      21.611  14.771  46.6240  0.00  0.00     0.000 O
ATOM     49  HD  A00 X   3      21.319  15.567  46.4480  0.00  0.00     0.000 HD
BRANCH 42 49
ATOM     49   O  A00 X   3      20.674  14.362  49.4930  0.00  0.00     0.000 O
ATOM     50   O  A00 X   3      22.822  15.236  50.0870  0.00  0.00     0.000 OA
ATOM     51   O  A00 X   3      22.708  13.185  48.9170  0.00  0.00     0.000 OA
ATOM     52   O  A00 X   3      21.923  13.257  51.1450  0.00  0.00     0.000 OA
ATOM     53   S  A00 X   3      22.117  14.000  49.9490  0.00  0.00     0.000 S
ENDBRANCH 42 49
BRANCH 45 54
ATOM     54   C  A00 X   3      17.238  14.963  46.1540  0.00  0.00     0.000 C
ATOM     55   O  A00 X   3      16.028  15.015  46.0730  0.00  0.00     0.000 OA
ATOM     56   O  A00 X   3      17.862  14.423  45.2530  0.00  0.00     0.000 OA
ENDBRANCH 45 54
BRANCH 41 57
ATOM     57  O4  A00 X   4      18.035  12.424  47.8640  0.00  0.00     0.000 O
BRANCH 57 61
ATOM     58  C1  A00 X   4      14.700   9.747  48.4520  0.00  0.00     0.000 C
ATOM     59  C2  A00 X   4      14.414  11.196  47.9830  0.00  0.00     0.000 C
ATOM     60  C3  A00 X   4      15.666  11.933  47.4670  0.00  0.00     0.000 C
ATOM     61  C4  A00 X   4      16.860  11.783  48.4350  0.00  0.00     0.000 C
ATOM     62  C5  A00 X   4      17.103  10.261  48.5950  0.00  0.00     0.000 C
ATOM     63  O5  A00 X   4      15.933   9.653  49.2000  0.00  0.00     0.000 O
BRANCH 59 66
ATOM     64   N  A00 X   4      13.909  12.036  49.0840  0.00  0.00     0.000 N
ATOM     66  HD  A00 X   4      14.161  11.837  49.8880  0.00  0.00     0.000 HD
ATOM     66   O  A00 X   4      11.739  11.067  48.6950  0.00  0.00     0.000 OA
ATOM     67   S  A00 X   4      12.330  12.268  49.1970  0.00  0.00     0.000 S
ATOM     68   O  A00 X   4      12.200  12.476  50.6100  0.00  0.00     0.000 OA
ATOM     69   O  A00 X   4      12.192  13.461  48.4120  0.00  0.00     0.000 OA
ENDBRANCH 59 66
BRANCH 62 70
ATOM     70   C  A00 X   4      18.341   9.906  49.4510  0.00  0.00     0.000 C
ATOM     71   O  A00 X   4      18.590   9.600  53.0500  0.00  0.00     0.000 OA
ATOM     72   O  A00 X   4      19.935  10.771  51.5130  0.00  0.00     0.000 OA
ATOM     73   O  A00 X   4      17.927   9.655  50.8040  0.00  0.00     0.000 O
ATOM     74   O  A00 X   4      17.751  11.663  52.1240  0.00  0.00     0.000 OA
ATOM     75   S  A00 X   4      18.579  10.514  51.9420  0.00  0.00     0.000 S
ENDBRANCH 62 70
ENDBRANCH 57 61
ENDBRANCH 41 57
ENDBRANCH 40 44
ENDBRANCH 20 40
ENDBRANCH 19 23
ENDBRANCH 1 19
TORSDOF 14
ENDMDL
MODEL 97
REMARK VINA RESULT:      -0.1     51.190     55.358
ROOT
ATOM      1  C1  A00 X   1      50.732   9.321  44.6420  0.00  0.00     0.000 C
ATOM      2  C2  A00 X   1      51.208   7.881  44.9710  0.00  0.00     0.000 C
ATOM      3  C3  A00 X   1      52.645   7.503  44.4820  0.00  0.00     0.000 C
ATOM      4  C4  A00 X   1      53.266   8.458  43.4300  0.00  0.00     0.000 C
ATOM      5  C5  A00 X   1      52.202   9.251  42.6720  0.00  0.00     0.000 C
ATOM      6  O5  A00 X   1      51.544  10.045  43.6850  0.00  0.00     0.000 O
ATOM      7   O  A00 X   1      52.599   6.212  43.8790  0.00  0.00     0.000 O
ATOM      9  HD  A00 X   1      53.112   6.705  43.3860  0.00  0.00     0.000 HD
ATOM      9   O  A00 X   1      54.201   9.355  44.0280  0.00  0.00     0.000 O
ATOM     11  HD  A00 X   1      54.715   9.849  43.5350  0.00  0.00     0.000 HD
ENDROOT
BRANCH 2 11
ATOM     11   O  A00 X   1      51.138   7.712  46.4000  0.00  0.00     0.000 O
ATOM     12   O  A00 X   1      52.010   5.758  47.4920  0.00  0.00     0.000 OA
ATOM     13   O  A00 X   1      50.145   5.526  45.9480  0.00  0.00     0.000 OA
ATOM     14   O  A00 X   1      49.855   6.640  48.0300  0.00  0.00     0.000 OA
ATOM     15   S  A00 X   1      50.777   6.301  46.9800  0.00  0.00     0.000 S
ENDBRANCH 2 11
BRANCH 5 16
ATOM     16   C  A00 X   1      51.238   8.405  41.8340  0.00  0.00     0.000 C
ATOM     17   O  A00 X   1      51.557   7.269  41.5510  0.00  0.00     0.000 OA
ATOM     18   O  A00 X   1      50.165   8.827  41.4500  0.00  0.00     0.000 OA
ENDBRANCH 5 16
BRANCH 1 19
ATOM     19  O4  A00 X   2      49.327   9.383  44.2970  0.00  0.00     0.000 O
BRANCH 19 23
ATOM     20  C1  A00 X   2      48.671  13.097  46.3330  0.00  0.00     0.000 C
ATOM     21  C2  A00 X   2      48.304  11.795  47.0850  0.00  0.00     0.000 C
ATOM     22  C3  A00 X   2      48.981  10.572  46.4300  0.00  0.00     0.000 C
ATOM     23  C4  A00 X   2      48.647  10.508  44.9230  0.00  0.00     0.000 C
ATOM     24  C5  A00 X   2      49.042  11.871  44.2910  0.00  0.00     0.000 C
ATOM     25  O5  A00 X   2      48.286  12.925  44.9430  0.00  0.00     0.000 O
ATOM     26   O  A00 X   2      48.666   9.402  47.2040  0.00  0.00     0.000 O
ATOM     28  HD  A00 X   2      47.817   9.570  47.2070  0.00  0.00     0.000 HD
BRANCH 21 30
ATOM     28   N  A00 X   2      47.140  12.460  47.6780  0.00  0.00     0.000 N
ATOM     30  HD  A00 X   2      47.304  11.762  48.1640  0.00  0.00     0.000 HD
ATOM     30   O  A00 X   2      46.843  11.618  49.8380  0.00  0.00     0.000 OA
ATOM     31   S  A00 X   2      46.165  11.613  48.5900  0.00  0.00     0.000 S
ATOM     32   O  A00 X   2      44.944  12.357  48.5630  0.00  0.00     0.000 OA
ATOM     33   O  A00 X   2      45.988  10.342  47.9530  0.00  0.00     0.000 OA
ENDBRANCH 21 30
BRANCH 24 34
ATOM     34   C  A00 X   2      49.022  11.989  42.7490  0.00  0.00     0.000 C
ATOM     35   O  A00 X   2      46.077  11.391  40.6930  0.00  0.00     0.000 OA
ATOM     36   O  A00 X   2      47.849  11.362  42.1920  0.00  0.00     0.000 O
ATOM     37   O  A00 X   2      46.154  12.949  42.4710  0.00  0.00     0.000 OA
ATOM     38   S  A00 X   2      46.883  12.325  41.4100  0.00  0.00     0.000 S
ATOM     39   O  A00 X   2      47.714  13.159  40.5950  0.00  0.00     0.000 OA
ENDBRANCH 24 34
BRANCH 20 40
ATOM     40  O4  A00 X   3      50.098  13.209  46.4240  0.00  0.00     0.000 O
BRANCH 40 44
ATOM     41  C1  A00 X   3      53.280  13.980  44.8720  0.00  0.00     0.000 C
ATOM     42  C2  A00 X   3      53.103  13.521  46.3360  0.00  0.00     0.000 C
ATOM     43  C3  A00 X   3      52.034  14.379  47.0610  0.00  0.00     0.000 C
ATOM     44  C4  A00 X   3      50.713  14.510  46.3120  0.00  0.00     0.000 C
ATOM     45  C5  A00 X   3      50.973  14.979  44.8530  0.00  0.00     0.000 C
ATOM     46  O5  A00 X   3      51.995  14.149  44.2120  0.00  0.00     0.000 O
ATOM     47   O  A00 X   3      51.847  14.101  48.4470  0.00  0.00     0.000 O
ATOM     49  HD  A00 X   3      51.015  14.231  48.2460  0.00  0.00     0.000 HD
BRANCH 42 49
ATOM     49   O  A00 X   3      52.726  12.127  46.3010  0.00  0.00     0.000 O
ATOM     50   O  A00 X   3      52.136  10.450  47.9040  0.00  0.00     0.000 OA
ATOM     51   O  A00 X   3      53.924  11.918  48.3930  0.00  0.00     0.000 OA
ATOM     52   O  A00 X   3      54.205  10.339  46.6580  0.00  0.00     0.000 OA
ATOM     53   S  A00 X   3      53.271  11.138  47.3720  0.00  0.00     0.000 S
ENDBRANCH 42 49
BRANCH 45 54
ATOM     54   C  A00 X   3      51.284  16.479  44.7850  0.00  0.00     0.000 C
ATOM     55   O  A00 X   3      51.596  16.999  43.7340  0.00  0.00     0.000 OA
ATOM     56   O  A00 X   3      51.226  17.175  45.7870  0.00  0.00     0.000 OA
ENDBRANCH 45 54
BRANCH 41 57
ATOM     57  O4  A00 X   4      54.147  15.132  44.7750  0.00  0.00     0.000 O
BRANCH 57 61
ATOM     58  C1  A00 X   4      56.989  16.431  41.7960  0.00  0.00     0.000 C
ATOM     59  C2  A00 X   4      55.497  16.312  41.3950  0.00  0.00     0.000 C
ATOM     60  C3  A00 X   4      54.544  16.196  42.6020  0.00  0.00     0.000 C
ATOM     61  C4  A00 X   4      55.033  15.143  43.6200  0.00  0.00     0.000 C
ATOM     62  C5  A00 X   4      56.459  15.574  44.0420  0.00  0.00     0.000 C
ATOM     63  O5  A00 X   4      57.331  15.541  42.8830  0.00  0.00     0.000 O
BRANCH 59 66
ATOM     64   N  A00 X   4      55.271  15.091  40.6020  0.00  0.00     0.000 N
ATOM     66  HD  A00 X   4      55.800  14.420  40.7400  0.00  0.00     0.000 HD
ATOM     66   O  A00 X   4      56.062  16.311  38.6830  0.00  0.00     0.000 OA
ATOM     67   S  A00 X   4      55.192  15.226  39.0100  0.00  0.00     0.000 S
ATOM     68   O  A00 X   4      55.652  13.926  38.6170  0.00  0.00     0.000 OA
ATOM     69   O  A00 X   4      53.780  15.425  38.8420  0.00  0.00     0.000 OA
ENDBRANCH 59 66
BRANCH 62 70
ATOM     70   C  A00 X   4      57.083  14.695  45.1520  0.00  0.00     0.000 C
ATOM     71   O  A00 X   4      58.185  11.252  44.9570  0.00  0.00     0.000 OA
ATOM     72   O  A00 X   4      56.807  12.335  46.5300  0.00  0.00     0.000 OA
ATOM     73   O  A00 X   4      57.593  13.485  44.5680  0.00  0.00     0.000 O
ATOM     74   O  A00 X   4      55.914  11.772  44.3330  0.00  0.00     0.000 OA
ATOM     75   S  A00 X   4      57.053  12.120  45.1210  0.00  0.00     0.000 S
ENDBRANCH 62 70
ENDBRANCH 57 61
ENDBRANCH 41 57
ENDBRANCH 40 44
ENDBRANCH 20 40
ENDBRANCH 19 23
ENDBRANCH 1 19
TORSDOF 14
ENDMDL
MODEL 98
REMARK VINA RESULT:      -0.1     46.062     50.715
ROOT
ATOM      1  C1  A00 X   1      50.706  10.611  41.3320  0.00  0.00     0.000 C
ATOM      2  C2  A00 X   1      51.862   9.766  41.9320  0.00  0.00     0.000 C
ATOM      3  C3  A00 X   1      52.870   9.153  40.9040  0.00  0.00     0.000 C
ATOM      4  C4  A00 X   1      52.398   9.149  39.4270  0.00  0.00     0.000 C
ATOM      5  C5  A00 X   1      50.877   9.227  39.3060  0.00  0.00     0.000 C
ATOM      6  O5  A00 X   1      50.527  10.498  39.8990  0.00  0.00     0.000 O
ATOM      7   O  A00 X   1      53.111   7.793  41.2560  0.00  0.00     0.000 O
ATOM      9  HD  A00 X   1      53.037   7.824  40.3940  0.00  0.00     0.000 HD
ATOM      9   O  A00 X   1      52.997  10.211  38.6850  0.00  0.00     0.000 O
ATOM     11  HD  A00 X   1      52.923  10.243  37.8230  0.00  0.00     0.000 HD
ENDROOT
BRANCH 2 11
ATOM     11   O  A00 X   1      52.584  10.603  42.8550  0.00  0.00     0.000 O
ATOM     12   O  A00 X   1      54.372   9.750  44.2120  0.00  0.00     0.000 OA
ATOM     13   O  A00 X   1      52.117   8.899  44.5410  0.00  0.00     0.000 OA
ATOM     14   O  A00 X   1      52.656  11.141  45.1260  0.00  0.00     0.000 OA
ATOM     15   S  A00 X   1      52.959  10.030  44.2650  0.00  0.00     0.000 S
ENDBRANCH 2 11
BRANCH 5 16
ATOM     16   C  A00 X   1      50.117   8.041  39.9080  0.00  0.00     0.000 C
ATOM     17   O  A00 X   1      50.726   7.016  40.1350  0.00  0.00     0.000 OA
ATOM     18   O  A00 X   1      48.932   8.092  40.1710  0.00  0.00     0.000 OA
ENDBRANCH 5 16
BRANCH 1 19
ATOM     19  O4  A00 X   2      49.454  10.428  42.0370  0.00  0.00     0.000 O
BRANCH 19 23
ATOM     20  C1  A00 X   2      48.265  14.522  41.5980  0.00  0.00     0.000 C
ATOM     21  C2  A00 X   2      48.895  14.102  42.9480  0.00  0.00     0.000 C
ATOM     22  C3  A00 X   2      49.650  12.763  42.8090  0.00  0.00     0.000 C
ATOM     23  C4  A00 X   2      48.725  11.677  42.2140  0.00  0.00     0.000 C
ATOM     24  C5  A00 X   2      48.146  12.224  40.8810  0.00  0.00     0.000 C
ATOM     25  O5  A00 X   2      47.402  13.439  41.1590  0.00  0.00     0.000 O
ATOM     26   O  A00 X   2      50.273  12.453  44.0670  0.00  0.00     0.000 O
ATOM     28  HD  A00 X   2      49.544  12.580  44.5160  0.00  0.00     0.000 HD
BRANCH 21 30
ATOM     28   N  A00 X   2      48.004  15.055  43.6170  0.00  0.00     0.000 N
ATOM     30  HD  A00 X   2      48.625  14.849  44.1860  0.00  0.00     0.000 HD
ATOM     30   O  A00 X   2      49.109  15.881  45.5030  0.00  0.00     0.000 OA
ATOM     31   S  A00 X   2      47.975  15.084  45.1980  0.00  0.00     0.000 S
ATOM     32   O  A00 X   2      46.714  15.685  45.5020  0.00  0.00     0.000 OA
ATOM     33   O  A00 X   2      47.998  13.723  45.6460  0.00  0.00     0.000 OA
ENDBRANCH 21 30
BRANCH 24 34
ATOM     34   C  A00 X   2      47.370  11.244  39.9710  0.00  0.00     0.000 C
ATOM     35   O  A00 X   2      44.408   9.400  41.0130  0.00  0.00     0.000 OA
ATOM     36   O  A00 X   2      46.481  10.409  40.7390  0.00  0.00     0.000 O
ATOM     37   O  A00 X   2      44.606  11.754  41.1220  0.00  0.00     0.000 OA
ATOM     38   S  A00 X   2      44.953  10.568  40.4010  0.00  0.00     0.000 S
ATOM     39   O  A00 X   2      44.856  10.606  38.9730  0.00  0.00     0.000 OA
ENDBRANCH 24 34
BRANCH 20 40
ATOM     40  O4  A00 X   3      49.362  14.661  40.6840  0.00  0.00     0.000 O
BRANCH 40 44
ATOM     41  C1  A00 X   3      50.632  13.932  37.3700  0.00  0.00     0.000 C
ATOM     42  C2  A00 X   3      51.429  14.653  38.4790  0.00  0.00     0.000 C
ATOM     43  C3  A00 X   3      50.613  15.829  39.0740  0.00  0.00     0.000 C
ATOM     44  C4  A00 X   3      49.195  15.466  39.4970  0.00  0.00     0.000 C
ATOM     45  C5  A00 X   3      48.458  14.751  38.3300  0.00  0.00     0.000 C
ATOM     46  O5  A00 X   3      49.268  13.656  37.7930  0.00  0.00     0.000 O
ATOM     47   O  A00 X   3      51.285  16.623  40.0490  0.00  0.00     0.000 O
ATOM     49  HD  A00 X   3      50.505  16.619  40.4260  0.00  0.00     0.000 HD
BRANCH 42 49
ATOM     49   O  A00 X   3      51.741  13.665  39.4860  0.00  0.00     0.000 O
ATOM     50   O  A00 X   3      52.819  13.651  41.6240  0.00  0.00     0.000 OA
ATOM     51   O  A00 X   3      53.758  14.943  39.8810  0.00  0.00     0.000 OA
ATOM     52   O  A00 X   3      53.818  12.588  39.6950  0.00  0.00     0.000 OA
ATOM     53   S  A00 X   3      53.111  13.702  40.2260  0.00  0.00     0.000 S
ENDBRANCH 42 49
BRANCH 45 54
ATOM     54   C  A00 X   3      47.998  15.744  37.2550  0.00  0.00     0.000 C
ATOM     55   O  A00 X   3      47.145  15.433  36.4500  0.00  0.00     0.000 OA
ATOM     56   O  A00 X   3      48.483  16.863  37.1900  0.00  0.00     0.000 OA
ENDBRANCH 45 54
BRANCH 41 57
ATOM     57  O4  A00 X   4      50.726  14.627  36.1070  0.00  0.00     0.000 O
BRANCH 57 61
ATOM     58  C1  A00 X   4      50.485  13.336  31.9950  0.00  0.00     0.000 C
ATOM     59  C2  A00 X   4      49.172  13.482  32.8040  0.00  0.00     0.000 C
ATOM     60  C3  A00 X   4      49.343  14.279  34.1130  0.00  0.00     0.000 C
ATOM     61  C4  A00 X   4      50.560  13.791  34.9270  0.00  0.00     0.000 C
ATOM     62  C5  A00 X   4      51.790  13.928  33.9960  0.00  0.00     0.000 C
ATOM     63  O5  A00 X   4      51.619  13.058  32.8480  0.00  0.00     0.000 O
BRANCH 59 66
ATOM     64   N  A00 X   4      48.685  12.151  33.2100  0.00  0.00     0.000 N
ATOM     66  HD  A00 X   4      49.274  11.524  33.3100  0.00  0.00     0.000 HD
ATOM     66   O  A00 X   4      47.713  11.949  31.0160  0.00  0.00     0.000 OA
ATOM     67   S  A00 X   4      47.515  11.479  32.3520  0.00  0.00     0.000 S
ATOM     68   O  A00 X   4      47.802  10.091  32.5660  0.00  0.00     0.000 OA
ATOM     69   O  A00 X   4      46.367  11.960  33.0680  0.00  0.00     0.000 OA
ENDBRANCH 59 66
BRANCH 62 70
ATOM     70   C  A00 X   4      53.138  13.587  34.6740  0.00  0.00     0.000 C
ATOM     71   O  A00 X   4      54.816  10.386  34.8870  0.00  0.00     0.000 OA
ATOM     72   O  A00 X   4      54.331  11.978  36.5530  0.00  0.00     0.000 OA
ATOM     73   O  A00 X   4      53.535  12.257  34.3010  0.00  0.00     0.000 O
ATOM     74   O  A00 X   4      52.550  10.555  35.6930  0.00  0.00     0.000 OA
ATOM     75   S  A00 X   4      53.790  11.219  35.4480  0.00  0.00     0.000 S
ENDBRANCH 62 70
ENDBRANCH 57 61
ENDBRANCH 41 57
ENDBRANCH 40 44
ENDBRANCH 20 40
ENDBRANCH 19 23
ENDBRANCH 1 19
TORSDOF 14
ENDMDL
MODEL 99
REMARK VINA RESULT:      -0.1     31.360     34.942
ROOT
ATOM      1  C1  A00 X   1      17.560  26.364  29.8650  0.00  0.00     0.000 C
ATOM      2  C2  A00 X   1      16.979  24.989  30.2880  0.00  0.00     0.000 C
ATOM      3  C3  A00 X   1      18.016  23.929  30.7880  0.00  0.00     0.000 C
ATOM      4  C4  A00 X   1      19.499  24.238  30.4590  0.00  0.00     0.000 C
ATOM      5  C5  A00 X   1      19.640  25.193  29.2740  0.00  0.00     0.000 C
ATOM      6  O5  A00 X   1      19.000  26.414  29.7080  0.00  0.00     0.000 O
ATOM      7   O  A00 X   1      17.718  22.675  30.1780  0.00  0.00     0.000 O
ATOM      9  HD  A00 X   1      18.580  22.766  30.1690  0.00  0.00     0.000 HD
ATOM      9   O  A00 X   1      20.185  24.770  31.5920  0.00  0.00     0.000 O
ATOM     11  HD  A00 X   1      21.046  24.861  31.5830  0.00  0.00     0.000 HD
ENDROOT
BRANCH 2 11
ATOM     11   O  A00 X   1      16.009  25.224  31.3270  0.00  0.00     0.000 O
ATOM     12   O  A00 X   1      14.982  23.421  32.5360  0.00  0.00     0.000 OA
ATOM     13   O  A00 X   1      14.575  23.637  30.1480  0.00  0.00     0.000 OA
ATOM     14   O  A00 X   1      13.700  25.242  31.6690  0.00  0.00     0.000 OA
ATOM     15   S  A00 X   1      14.750  24.294  31.4140  0.00  0.00     0.000 S
ENDBRANCH 2 11
BRANCH 5 16
ATOM     16   C  A00 X   1      19.103  24.659  27.9430  0.00  0.00     0.000 C
ATOM     17   O  A00 X   1      18.914  23.465  27.8300  0.00  0.00     0.000 OA
ATOM     18   O  A00 X   1      18.852  25.385  27.0020  0.00  0.00     0.000 OA
ENDBRANCH 5 16
BRANCH 1 19
ATOM     19  O4  A00 X   2      16.884  26.929  28.7150  0.00  0.00     0.000 O
BRANCH 19 23
ATOM     20  C1  A00 X   2      16.964  30.930  30.2500  0.00  0.00     0.000 C
ATOM     21  C2  A00 X   2      15.660  30.117  30.4410  0.00  0.00     0.000 C
ATOM     22  C3  A00 X   2      15.919  28.609  30.2430  0.00  0.00     0.000 C
ATOM     23  C4  A00 X   2      16.595  28.347  28.8780  0.00  0.00     0.000 C
ATOM     24  C5  A00 X   2      17.871  29.229  28.8030  0.00  0.00     0.000 C
ATOM     25  O5  A00 X   2      17.484  30.623  28.9290  0.00  0.00     0.000 O
ATOM     26   O  A00 X   2      14.698  27.894  30.4980  0.00  0.00     0.000 O
ATOM     28  HD  A00 X   2      14.233  28.402  29.9740  0.00  0.00     0.000 HD
BRANCH 21 30
ATOM     28   N  A00 X   2      14.906  31.364  30.2790  0.00  0.00     0.000 N
ATOM     30  HD  A00 X   2      14.362  30.784  30.6220  0.00  0.00     0.000 HD
ATOM     30   O  A00 X   2      12.966  31.213  31.5720  0.00  0.00     0.000 OA
ATOM     31   S  A00 X   2      13.329  31.292  30.2010  0.00  0.00     0.000 S
ATOM     32   O  A00 X   2      12.966  32.511  29.5490  0.00  0.00     0.000 OA
ATOM     33   O  A00 X   2      12.997  30.168  29.3770  0.00  0.00     0.000 OA
ENDBRANCH 21 30
BRANCH 24 34
ATOM     34   C  A00 X   2      18.854  28.986  27.6340  0.00  0.00     0.000 C
ATOM     35   O  A00 X   2      17.944  29.239  24.1170  0.00  0.00     0.000 OA
ATOM     36   O  A00 X   2      18.150  28.806  26.3880  0.00  0.00     0.000 O
ATOM     37   O  A00 X   2      17.641  30.980  25.6890  0.00  0.00     0.000 OA
ATOM     38   S  A00 X   2      18.461  29.880  25.2820  0.00  0.00     0.000 S
ATOM     39   O  A00 X   2      19.880  30.071  25.2900  0.00  0.00     0.000 OA
ENDBRANCH 24 34
BRANCH 20 40
ATOM     40  O4  A00 X   3      17.873  30.445  31.2480  0.00  0.00     0.000 O
BRANCH 40 44
ATOM     41  C1  A00 X   3      21.244  29.375  32.0350  0.00  0.00     0.000 C
ATOM     42  C2  A00 X   3      20.065  29.377  33.0330  0.00  0.00     0.000 C
ATOM     43  C3  A00 X   3      19.352  30.754  33.0470  0.00  0.00     0.000 C
ATOM     44  C4  A00 X   3      18.970  31.283  31.6710  0.00  0.00     0.000 C
ATOM     45  C5  A00 X   3      20.206  31.255  30.7280  0.00  0.00     0.000 C
ATOM     46  O5  A00 X   3      20.853  29.941  30.7540  0.00  0.00     0.000 O
ATOM     47   O  A00 X   3      18.299  30.900  33.9980  0.00  0.00     0.000 O
ATOM     49  HD  A00 X   3      17.926  31.335  33.3490  0.00  0.00     0.000 HD
BRANCH 42 49
ATOM     49   O  A00 X   3      19.166  28.321  32.6290  0.00  0.00     0.000 O
ATOM     50   O  A00 X   3      17.048  27.477  33.3560  0.00  0.00     0.000 OA
ATOM     51   O  A00 X   3      18.655  28.078  34.9820  0.00  0.00     0.000 OA
ATOM     52   O  A00 X   3      19.080  26.194  33.6200  0.00  0.00     0.000 OA
ATOM     53   S  A00 X   3      18.435  27.459  33.6990  0.00  0.00     0.000 S
ENDBRANCH 42 49
BRANCH 45 54
ATOM     54   C  A00 X   3      21.172  32.409  31.0220  0.00  0.00     0.000 C
ATOM     55   O  A00 X   3      20.989  33.141  31.9740  0.00  0.00     0.000 OA
ATOM     56   O  A00 X   3      22.139  32.613  30.3050  0.00  0.00     0.000 OA
ENDBRANCH 45 54
BRANCH 41 57
ATOM     57  O4  A00 X   4      22.428  29.976  32.6060  0.00  0.00     0.000 O
BRANCH 57 61
ATOM     58  C1  A00 X   4      26.646  29.186  32.1330  0.00  0.00     0.000 C
ATOM     59  C2  A00 X   4      25.834  29.642  30.8950  0.00  0.00     0.000 C
ATOM     60  C3  A00 X   4      24.453  30.232  31.2490  0.00  0.00     0.000 C
ATOM     61  C4  A00 X   4      23.683  29.335  32.2410  0.00  0.00     0.000 C
ATOM     62  C5  A00 X   4      24.590  29.185  33.4880  0.00  0.00     0.000 C
ATOM     63  O5  A00 X   4      25.817  28.511  33.1060  0.00  0.00     0.000 O
BRANCH 59 66
ATOM     64   N  A00 X   4      26.058  30.386  29.6430  0.00  0.00     0.000 N
ATOM     66  HD  A00 X   4      25.441  30.344  29.0370  0.00  0.00     0.000 HD
ATOM     66   O  A00 X   4      27.768  28.775  29.1100  0.00  0.00     0.000 OA
ATOM     67   S  A00 X   4      27.425  30.139  28.8500  0.00  0.00     0.000 S
ATOM     68   O  A00 X   4      27.002  30.423  27.5100  0.00  0.00     0.000 OA
ATOM     69   O  A00 X   4      28.246  31.159  29.4360  0.00  0.00     0.000 OA
ENDBRANCH 59 66
BRANCH 62 70
ATOM     70   C  A00 X   4      23.940  28.400  34.6520  0.00  0.00     0.000 C
ATOM     71   O  A00 X   4      23.150  24.872  34.8390  0.00  0.00     0.000 OA
ATOM     72   O  A00 X   4      21.838  26.766  35.3240  0.00  0.00     0.000 OA
ATOM     73   O  A00 X   4      24.043  26.991  34.3920  0.00  0.00     0.000 O
ATOM     74   O  A00 X   4      22.260  26.156  33.0030  0.00  0.00     0.000 OA
ATOM     75   S  A00 X   4      22.718  26.153  34.3550  0.00  0.00     0.000 S
ENDBRANCH 62 70
ENDBRANCH 57 61
ENDBRANCH 41 57
ENDBRANCH 40 44
ENDBRANCH 20 40
ENDBRANCH 19 23
ENDBRANCH 1 19
TORSDOF 14
ENDMDL
MODEL 100
REMARK VINA RESULT:       0.5      3.205      8.984
ROOT
ATOM      1  C1  A00 X   1      19.877   7.044   3.8530  0.00  0.00     0.000 C
ATOM      2  C2  A00 X   1      21.115   7.942   4.1180  0.00  0.00     0.000 C
ATOM      3  C3  A00 X   1      22.457   7.472   3.4670  0.00  0.00     0.000 C
ATOM      4  C4  A00 X   1      22.477   6.008   2.9590  0.00  0.00     0.000 C
ATOM      5  C5  A00 X   1      21.423   5.142   3.6500  0.00  0.00     0.000 C
ATOM      6  O5  A00 X   1      20.159   5.741   3.2850  0.00  0.00     0.000 O
ATOM      7   O  A00 X   1      23.497   7.578   4.4370  0.00  0.00     0.000 O
ATOM      9  HD  A00 X   1      23.620   6.834   4.0110  0.00  0.00     0.000 HD
ATOM      9   O  A00 X   1      22.300   5.944   1.5440  0.00  0.00     0.000 O
ATOM     11  HD  A00 X   1      22.423   5.200   1.1180  0.00  0.00     0.000 HD
ENDROOT
BRANCH 2 11
ATOM     11   O  A00 X   1      20.804   9.268   3.6470  0.00  0.00     0.000 O
ATOM     12   O  A00 X   1      18.913   9.702   2.2310  0.00  0.00     0.000 OA
ATOM     13   O  A00 X   1      20.718   8.295   1.4080  0.00  0.00     0.000 OA
ATOM     14   O  A00 X   1      21.069  10.621   1.7620  0.00  0.00     0.000 OA
ATOM     15   S  A00 X   1      20.331   9.454   2.1640  0.00  0.00     0.000 S
ENDBRANCH 2 11
BRANCH 5 16
ATOM     16   C  A00 X   1      21.609   4.979   5.1620  0.00  0.00     0.000 C
ATOM     17   O  A00 X   1      20.693   4.522   5.8140  0.00  0.00     0.000 OA
ATOM     18   O  A00 X   1      22.640   5.283   5.7280  0.00  0.00     0.000 OA
ENDBRANCH 5 16
BRANCH 1 19
ATOM     19  O4  A00 X   2      19.002   6.941   5.0020  0.00  0.00     0.000 O
BRANCH 19 23
ATOM     20  C1  A00 X   2      15.053   8.575   5.3280  0.00  0.00     0.000 C
ATOM     21  C2  A00 X   2      15.632   8.383   3.9050  0.00  0.00     0.000 C
ATOM     22  C3  A00 X   2      16.832   7.413   3.9270  0.00  0.00     0.000 C
ATOM     23  C4  A00 X   2      17.893   7.884   4.9470  0.00  0.00     0.000 C
ATOM     24  C5  A00 X   2      17.187   8.056   6.3200  0.00  0.00     0.000 C
ATOM     25  O5  A00 X   2      16.131   9.043   6.1820  0.00  0.00     0.000 O
ATOM     26   O  A00 X   2      17.289   7.214   2.5780  0.00  0.00     0.000 O
ATOM     28  HD  A00 X   2      17.325   8.063   2.4120  0.00  0.00     0.000 HD
BRANCH 21 30
ATOM     28   N  A00 X   2      15.196   7.723   2.6700  0.00  0.00     0.000 N
ATOM     30  HD  A00 X   2      14.826   8.506   2.6800  0.00  0.00     0.000 HD
ATOM     30   O  A00 X   2      14.319   9.354   1.2460  0.00  0.00     0.000 OA
ATOM     31   S  A00 X   2      13.868   8.221   1.9730  0.00  0.00     0.000 S
ATOM     32   O  A00 X   2      13.470   7.107   1.1690  0.00  0.00     0.000 OA
ATOM     33   O  A00 X   2      12.907   8.455   3.0100  0.00  0.00     0.000 OA
ENDBRANCH 21 30
BRANCH 24 34
ATOM     34   C  A00 X   2      18.072   8.299   7.5650  0.00  0.00     0.000 C
ATOM     35   O  A00 X   2      20.093  11.284   8.0820  0.00  0.00     0.000 OA
ATOM     36   O  A00 X   2      19.011   9.369   7.3390  0.00  0.00     0.000 O
ATOM     37   O  A00 X   2      17.764  11.319   7.6740  0.00  0.00     0.000 OA
ATOM     38   S  A00 X   2      18.850  10.615   8.2840  0.00  0.00     0.000 S
ATOM     39   O  A00 X   2      18.646  10.098   9.6040  0.00  0.00     0.000 OA
ENDBRANCH 24 34
BRANCH 20 40
ATOM     40  O4  A00 X   3      14.633   7.271   5.7560  0.00  0.00     0.000 O
BRANCH 40 44
ATOM     41  C1  A00 X   3      13.566   4.320   7.5640  0.00  0.00     0.000 C
ATOM     42  C2  A00 X   3      13.224   4.620   6.0890  0.00  0.00     0.000 C
ATOM     43  C3  A00 X   3      12.637   6.046   5.9340  0.00  0.00     0.000 C
ATOM     44  C4  A00 X   3      13.462   7.145   6.5910  0.00  0.00     0.000 C
ATOM     45  C5  A00 X   3      13.761   6.774   8.0710  0.00  0.00     0.000 C
ATOM     46  O5  A00 X   3      14.302   5.418   8.1700  0.00  0.00     0.000 O
ATOM     47   O  A00 X   3      12.203   6.402   4.6230  0.00  0.00     0.000 O
ATOM     49  HD  A00 X   3      12.547   7.167   4.8380  0.00  0.00     0.000 HD
BRANCH 42 49
ATOM     49   O  A00 X   3      14.444   4.465   5.3320  0.00  0.00     0.000 O
ATOM     50   O  A00 X   3      15.123   4.775   3.0570  0.00  0.00     0.000 OA
ATOM     51   O  A00 X   3      13.026   3.775   3.4960  0.00  0.00     0.000 OA
ATOM     52   O  A00 X   3      14.985   2.574   4.0490  0.00  0.00     0.000 OA
ATOM     53   S  A00 X   3      14.408   3.865   3.8960  0.00  0.00     0.000 S
ENDBRANCH 42 49
BRANCH 45 54
ATOM     54   C  A00 X   3      12.540   7.005   8.9700  0.00  0.00     0.000 C
ATOM     55   O  A00 X   3      11.462   7.286   8.4900  0.00  0.00     0.000 OA
ATOM     56   O  A00 X   3      12.632   6.910  10.1850  0.00  0.00     0.000 OA
ENDBRANCH 45 54
BRANCH 41 57
ATOM     57  O4  A00 X   4      12.397   3.914   8.3110  0.00  0.00     0.000 O
BRANCH 57 61
ATOM     58  C1  A00 X   4      11.979   1.389  11.7880  0.00  0.00     0.000 C
ATOM     59  C2  A00 X   4      11.836   2.921  11.9640  0.00  0.00     0.000 C
ATOM     60  C3  A00 X   4      11.645   3.677  10.6330  0.00  0.00     0.000 C
ATOM     61  C4  A00 X   4      12.673   3.234   9.5690  0.00  0.00     0.000 C
ATOM     62  C5  A00 X   4      12.495   1.705   9.4020  0.00  0.00     0.000 C
ATOM     63  O5  A00 X   4      12.812   1.048  10.6560  0.00  0.00     0.000 O
BRANCH 59 66
ATOM     64   N  A00 X   4      13.188   3.091  12.5270  0.00  0.00     0.000 N
ATOM     66  HD  A00 X   4      13.760   2.454  12.3940  0.00  0.00     0.000 HD
ATOM     66   O  A00 X   4      12.207   2.801  14.7070  0.00  0.00     0.000 OA
ATOM     67   S  A00 X   4      13.322   3.441  14.0820  0.00  0.00     0.000 S
ATOM     68   O  A00 X   4      14.604   2.865  14.3670  0.00  0.00     0.000 OA
ATOM     69   O  A00 X   4      13.322   4.875  14.0190  0.00  0.00     0.000 OA
ENDBRANCH 59 66
BRANCH 62 70
ATOM     70   C  A00 X   4      13.372   1.085   8.2880  0.00  0.00     0.000 C
ATOM     71   O  A00 X   4      16.817  -0.012   8.4680  0.00  0.00     0.000 OA
ATOM     72   O  A00 X   4      15.727   1.368   6.9030  0.00  0.00     0.000 OA
ATOM     73   O  A00 X   4      14.585   0.576   8.8660  0.00  0.00     0.000 O
ATOM     74   O  A00 X   4      16.296   2.256   9.0990  0.00  0.00     0.000 OA
ATOM     75   S  A00 X   4      15.947   1.119   8.3100  0.00  0.00     0.000 S
ENDBRANCH 62 70
ENDBRANCH 57 61
ENDBRANCH 41 57
ENDBRANCH 40 44
ENDBRANCH 20 40
ENDBRANCH 19 23
ENDBRANCH 1 19
TORSDOF 14
ENDMDL
