MODEL 1
REMARK VINA RESULT:      -0.0      0.000      0.000
ROOT
ATOM      1  C1  A00 X   1       5.086  24.447 110.6350  0.00  0.00     0.000 C
ATOM      2  C2  A00 X   1       3.867  25.137 109.9660  0.00  0.00     0.000 C
ATOM      3  C3  A00 X   1       2.667  25.478 110.9090  0.00  0.00     0.000 C
ATOM      4  C4  A00 X   1       2.679  24.771 112.2890  0.00  0.00     0.000 C
ATOM      5  C5  A00 X   1       3.521  23.495 112.2760  0.00  0.00     0.000 C
ATOM      6  O5  A00 X   1       4.862  23.943 111.9750  0.00  0.00     0.000 O
ATOM      7   O  A00 X   1       1.455  25.091 110.2670  0.00  0.00     0.000 O
ATOM      9  HD  A00 X   1       1.386  24.865 111.1000  0.00  0.00     0.000 HD
ATOM      9   O  A00 X   1       3.143  25.644 113.3190  0.00  0.00     0.000 O
ATOM     11  HD  A00 X   1       3.073  25.418 114.1520  0.00  0.00     0.000 HD
ENDROOT
BRANCH 2 11
ATOM     11   O  A00 X   1       4.336  26.350 109.3460  0.00  0.00     0.000 O
ATOM     12   O  A00 X   1       2.826  27.951 108.3840  0.00  0.00     0.000 OA
ATOM     13   O  A00 X   1       2.971  25.722 107.4200  0.00  0.00     0.000 OA
ATOM     14   O  A00 X   1       4.796  27.236 107.2350  0.00  0.00     0.000 OA
ATOM     15   S  A00 X   1       3.659  26.834 108.0170  0.00  0.00     0.000 S
ENDBRANCH 2 11
BRANCH 5 16
ATOM     16   C  A00 X   1       3.017  22.396 111.3360  0.00  0.00     0.000 C
ATOM     17   O  A00 X   1       3.738  21.446 111.1130  0.00  0.00     0.000 OA
ATOM     18   O  A00 X   1       1.921  22.437 110.8140  0.00  0.00     0.000 OA
ENDBRANCH 5 16
BRANCH 1 19
ATOM     19  O4  A00 X   2       5.697  23.443 109.7880  0.00  0.00     0.000 O
BRANCH 19 23
ATOM     20  C1  A00 X   2       9.697  24.478 110.9230  0.00  0.00     0.000 C
ATOM     21  C2  A00 X   2       9.155  25.068 109.5980  0.00  0.00     0.000 C
ATOM     22  C3  A00 X   2       7.616  24.974 109.5440  0.00  0.00     0.000 C
ATOM     23  C4  A00 X   2       7.151  23.520 109.7890  0.00  0.00     0.000 C
ATOM     24  C5  A00 X   2       7.773  23.043 111.1300  0.00  0.00     0.000 C
ATOM     25  O5  A00 X   2       9.219  23.111 111.0250  0.00  0.00     0.000 O
ATOM     26   O  A00 X   2       7.158  25.594 108.3310  0.00  0.00     0.000 O
ATOM     28  HD  A00 X   2       7.711  25.149 107.8350  0.00  0.00     0.000 HD
BRANCH 21 30
ATOM     28   N  A00 X   2      10.507  24.960 109.0400  0.00  0.00     0.000 N
ATOM     30  HD  A00 X   2      10.061  25.489 108.5180  0.00  0.00     0.000 HD
ATOM     30   O  A00 X   2      10.801  26.700 107.5090  0.00  0.00     0.000 OA
ATOM     31   S  A00 X   2      10.722  25.283 107.5080  0.00  0.00     0.000 S
ATOM     32   O  A00 X   2      11.943  24.609 107.1880  0.00  0.00     0.000 OA
ATOM     33   O  A00 X   2       9.628  24.694 106.7930  0.00  0.00     0.000 OA
ENDBRANCH 21 30
BRANCH 24 34
ATOM     34   C  A00 X   2       7.280  21.701 111.7210  0.00  0.00     0.000 C
ATOM     35   O  A00 X   2       9.403  18.783 112.2100  0.00  0.00     0.000 OA
ATOM     36   O  A00 X   2       8.224  20.641 111.4690  0.00  0.00     0.000 O
ATOM     37   O  A00 X   2       9.865  20.920 113.1120  0.00  0.00     0.000 OA
ATOM     38   S  A00 X   2       8.848  19.980 112.7520  0.00  0.00     0.000 S
ATOM     39   O  A00 X   2       7.769  19.785 113.6740  0.00  0.00     0.000 OA
ENDBRANCH 24 34
BRANCH 20 40
ATOM     40  O4  A00 X   3       9.113  25.270 111.9670  0.00  0.00     0.000 O
BRANCH 40 44
ATOM     41  C1  A00 X   3       7.483  25.354 115.2020  0.00  0.00     0.000 C
ATOM     42  C2  A00 X   3       7.779  26.595 114.3330  0.00  0.00     0.000 C
ATOM     43  C3  A00 X   3       9.263  26.619 113.8850  0.00  0.00     0.000 C
ATOM     44  C4  A00 X   3       9.756  25.321 113.2590  0.00  0.00     0.000 C
ATOM     45  C5  A00 X   3       9.428  24.121 114.1920  0.00  0.00     0.000 C
ATOM     46  O5  A00 X   3       8.021  24.145 114.5980  0.00  0.00     0.000 O
ATOM     47   O  A00 X   3       9.673  27.769 113.1470  0.00  0.00     0.000 O
ATOM     49  HD  A00 X   3      10.123  27.181 112.6980  0.00  0.00     0.000 HD
BRANCH 42 49
ATOM     49   O  A00 X   3       6.886  26.540 113.1980  0.00  0.00     0.000 O
ATOM     50   O  A00 X   3       6.504  27.847 111.2290  0.00  0.00     0.000 OA
ATOM     51   O  A00 X   3       6.899  28.959 113.2780  0.00  0.00     0.000 OA
ATOM     52   O  A00 X   3       4.883  27.753 113.0210  0.00  0.00     0.000 OA
ATOM     53   S  A00 X   3       6.249  27.844 112.6350  0.00  0.00     0.000 S
ENDBRANCH 42 49
BRANCH 45 54
ATOM     54   C  A00 X   3      10.396  24.043 115.3780  0.00  0.00     0.000 C
ATOM     55   O  A00 X   3      10.403  23.074 116.1090  0.00  0.00     0.000 OA
ATOM     56   O  A00 X   3      11.177  24.954 115.6100  0.00  0.00     0.000 OA
ENDBRANCH 45 54
BRANCH 41 57
ATOM     57  O4  A00 X   4       7.888  25.555 116.5750  0.00  0.00     0.000 O
BRANCH 57 61
ATOM     58  C1  A00 X   4       6.299  24.165 120.3400  0.00  0.00     0.000 C
ATOM     59  C2  A00 X   4       6.806  23.117 119.3180  0.00  0.00     0.000 C
ATOM     60  C3  A00 X   4       7.666  23.725 118.1910  0.00  0.00     0.000 C
ATOM     61  C4  A00 X   4       7.001  24.973 117.5720  0.00  0.00     0.000 C
ATOM     62  C5  A00 X   4       6.776  25.970 118.7360  0.00  0.00     0.000 C
ATOM     63  O5  A00 X   4       5.861  25.383 119.6960  0.00  0.00     0.000 O
BRANCH 59 66
ATOM     64   N  A00 X   4       5.678  22.463 118.6320  0.00  0.00     0.000 N
ATOM     66  HD  A00 X   4       4.945  22.917 118.5450  0.00  0.00     0.000 HD
ATOM     66   O  A00 X   4       5.470  21.029 120.5560  0.00  0.00     0.000 OA
ATOM     67   S  A00 X   4       5.207  21.025 119.1510  0.00  0.00     0.000 S
ATOM     68   O  A00 X   4       3.822  21.057 118.7820  0.00  0.00     0.000 OA
ATOM     69   O  A00 X   4       6.017  20.179 118.3210  0.00  0.00     0.000 OA
ENDBRANCH 59 66
BRANCH 62 70
ATOM     70   C  A00 X   4       6.212  27.341 118.2940  0.00  0.00     0.000 C
ATOM     71   O  A00 X   4       2.917  28.125 117.0140  0.00  0.00     0.000 OA
ATOM     72   O  A00 X   4       5.054  28.693 116.2020  0.00  0.00     0.000 OA
ATOM     73   O  A00 X   4       4.794  27.229 118.0930  0.00  0.00     0.000 O
ATOM     74   O  A00 X   4       4.214  26.426 115.8960  0.00  0.00     0.000 OA
ATOM     75   S  A00 X   4       4.219  27.615 116.6860  0.00  0.00     0.000 S
ENDBRANCH 62 70
ENDBRANCH 57 61
ENDBRANCH 41 57
ENDBRANCH 40 44
ENDBRANCH 20 40
ENDBRANCH 19 23
ENDBRANCH 1 19
TORSDOF 14
ENDMDL
MODEL 2
REMARK VINA RESULT:       0.0     68.611     73.406
ROOT
ATOM      1  C1  A00 X   1      78.201  27.483 112.1080  0.00  0.00     0.000 C
ATOM      2  C2  A00 X   1      77.637  28.597 113.0300  0.00  0.00     0.000 C
ATOM      3  C3  A00 X   1      78.468  29.921 113.0950  0.00  0.00     0.000 C
ATOM      4  C4  A00 X   1      79.912  29.832 112.5390  0.00  0.00     0.000 C
ATOM      5  C5  A00 X   1      80.443  28.398 112.5370  0.00  0.00     0.000 C
ATOM      6  O5  A00 X   1      79.560  27.682 111.6450  0.00  0.00     0.000 O
ATOM      7   O  A00 X   1      78.583  30.322 114.4580  0.00  0.00     0.000 O
ATOM      9  HD  A00 X   1      79.354  30.455 114.0870  0.00  0.00     0.000 HD
ATOM      9   O  A00 X   1      80.001  30.380 111.2250  0.00  0.00     0.000 O
ATOM     11  HD  A00 X   1      80.772  30.513 110.8540  0.00  0.00     0.000 HD
ENDROOT
BRANCH 2 11
ATOM     11   O  A00 X   1      76.302  28.903 112.5830  0.00  0.00     0.000 O
ATOM     12   O  A00 X   1      75.051  30.744 113.4840  0.00  0.00     0.000 OA
ATOM     13   O  A00 X   1      75.667  28.897 114.9420  0.00  0.00     0.000 OA
ATOM     14   O  A00 X   1      74.074  28.581 113.2030  0.00  0.00     0.000 OA
ATOM     15   S  A00 X   1      75.225  29.322 113.6420  0.00  0.00     0.000 S
ENDBRANCH 2 11
BRANCH 5 16
ATOM     16   C  A00 X   1      80.571  27.753 113.9210  0.00  0.00     0.000 C
ATOM     17   O  A00 X   1      80.779  26.559 113.9880  0.00  0.00     0.000 OA
ATOM     18   O  A00 X   1      80.480  28.393 114.9490  0.00  0.00     0.000 OA
ENDBRANCH 5 16
BRANCH 1 19
ATOM     19  O4  A00 X   2      78.018  26.155 112.6560  0.00  0.00     0.000 O
BRANCH 19 23
ATOM     20  C1  A00 X   2      77.055  24.391 108.8710  0.00  0.00     0.000 C
ATOM     21  C2  A00 X   2      75.878  24.786 109.7950  0.00  0.00     0.000 C
ATOM     22  C3  A00 X   2      76.343  25.774 110.8850  0.00  0.00     0.000 C
ATOM     23  C4  A00 X   2      77.549  25.200 111.6620  0.00  0.00     0.000 C
ATOM     24  C5  A00 X   2      78.646  24.828 110.6270  0.00  0.00     0.000 C
ATOM     25  O5  A00 X   2      78.108  23.842 109.7080  0.00  0.00     0.000 O
ATOM     26   O  A00 X   2      75.204  26.162 111.6720  0.00  0.00     0.000 O
ATOM     28  HD  A00 X   2      74.952  25.344 111.8030  0.00  0.00     0.000 HD
BRANCH 21 30
ATOM     28   N  A00 X   2      75.142  23.622 109.2920  0.00  0.00     0.000 N
ATOM     30  HD  A00 X   2      74.564  24.134 109.6830  0.00  0.00     0.000 HD
ATOM     30   O  A00 X   2      72.864  24.143 109.3010  0.00  0.00     0.000 OA
ATOM     31   S  A00 X   2      73.756  23.255 109.9580  0.00  0.00     0.000 S
ATOM     32   O  A00 X   2      73.580  21.873 109.6350  0.00  0.00     0.000 OA
ATOM     33   O  A00 X   2      73.910  23.419 111.3730  0.00  0.00     0.000 OA
ENDBRANCH 21 30
BRANCH 24 34
ATOM     34   C  A00 X   2      80.047  24.445 111.1600  0.00  0.00     0.000 C
ATOM     35   O  A00 X   2      81.568  21.165 110.7260  0.00  0.00     0.000 OA
ATOM     36   O  A00 X   2      80.234  23.015 111.1570  0.00  0.00     0.000 O
ATOM     37   O  A00 X   2      80.787  22.506 108.9420  0.00  0.00     0.000 OA
ATOM     38   S  A00 X   2      81.397  22.494 110.2360  0.00  0.00     0.000 S
ATOM     39   O  A00 X   2      82.509  23.369 110.4540  0.00  0.00     0.000 OA
ENDBRANCH 24 34
BRANCH 20 40
ATOM     40  O4  A00 X   3      77.507  25.616 108.2740  0.00  0.00     0.000 O
BRANCH 40 44
ATOM     41  C1  A00 X   3      80.310  27.707 107.3300  0.00  0.00     0.000 C
ATOM     42  C2  A00 X   3      78.826  28.084 107.1350  0.00  0.00     0.000 C
ATOM     43  C3  A00 X   3      78.054  26.947 106.4170  0.00  0.00     0.000 C
ATOM     44  C4  A00 X   3      78.243  25.566 107.0330  0.00  0.00     0.000 C
ATOM     45  C5  A00 X   3      79.759  25.258 107.1920  0.00  0.00     0.000 C
ATOM     46  O5  A00 X   3      80.449  26.361 107.8640  0.00  0.00     0.000 O
ATOM     47   O  A00 X   3      76.690  27.221 106.1050  0.00  0.00     0.000 O
ATOM     49  HD  A00 X   3      76.588  26.392 106.3350  0.00  0.00     0.000 HD
BRANCH 42 49
ATOM     49   O  A00 X   3      78.280  28.347 108.4460  0.00  0.00     0.000 O
ATOM     50   O  A00 X   3      76.137  28.915 109.3480  0.00  0.00     0.000 OA
ATOM     51   O  A00 X   3      76.844  29.955 107.3460  0.00  0.00     0.000 OA
ATOM     52   O  A00 X   3      77.971  30.490 109.3540  0.00  0.00     0.000 OA
ATOM     53   S  A00 X   3      77.244  29.490 108.6510  0.00  0.00     0.000 S
ENDBRANCH 42 49
BRANCH 45 54
ATOM     54   C  A00 X   3      80.402  24.869 105.8560  0.00  0.00     0.000 C
ATOM     55   O  A00 X   3      79.776  24.955 104.8190  0.00  0.00     0.000 OA
ATOM     56   O  A00 X   3      81.554  24.464 105.8110  0.00  0.00     0.000 OA
ENDBRANCH 45 54
BRANCH 41 57
ATOM     57  O4  A00 X   4      81.084  27.945 106.1330  0.00  0.00     0.000 O
BRANCH 57 61
ATOM     58  C1  A00 X   4      85.175  29.156 105.4710  0.00  0.00     0.000 C
ATOM     59  C2  A00 X   4      84.907  27.824 106.2160  0.00  0.00     0.000 C
ATOM     60  C3  A00 X   4      83.455  27.324 106.0770  0.00  0.00     0.000 C
ATOM     61  C4  A00 X   4      82.433  28.446 106.3580  0.00  0.00     0.000 C
ATOM     62  C5  A00 X   4      82.754  29.587 105.3610  0.00  0.00     0.000 C
ATOM     63  O5  A00 X   4      84.086  30.094 105.6290  0.00  0.00     0.000 O
BRANCH 59 66
ATOM     64   N  A00 X   4      85.126  27.989 107.6640  0.00  0.00     0.000 N
ATOM     66  HD  A00 X   4      85.001  28.777 108.0010  0.00  0.00     0.000 HD
ATOM     66   O  A00 X   4      87.478  27.698 107.2410  0.00  0.00     0.000 OA
ATOM     67   S  A00 X   4      86.518  27.499 108.2810  0.00  0.00     0.000 S
ATOM     68   O  A00 X   4      86.630  28.384 109.4020  0.00  0.00     0.000 OA
ATOM     69   O  A00 X   4      86.179  26.148 108.6290  0.00  0.00     0.000 OA
ENDBRANCH 59 66
BRANCH 62 70
ATOM     70   C  A00 X   4      81.758  30.770 105.4120  0.00  0.00     0.000 C
ATOM     71   O  A00 X   4      81.284  33.215 108.0400  0.00  0.00     0.000 OA
ATOM     72   O  A00 X   4      79.722  31.895 106.8740  0.00  0.00     0.000 OA
ATOM     73   O  A00 X   4      82.086  31.619 106.5240  0.00  0.00     0.000 O
ATOM     74   O  A00 X   4      81.111  30.875 108.5980  0.00  0.00     0.000 OA
ATOM     75   S  A00 X   4      80.974  31.885 107.5980  0.00  0.00     0.000 S
ENDBRANCH 62 70
ENDBRANCH 57 61
ENDBRANCH 41 57
ENDBRANCH 40 44
ENDBRANCH 20 40
ENDBRANCH 19 23
ENDBRANCH 1 19
TORSDOF 14
ENDMDL
MODEL 3
REMARK VINA RESULT:       0.0    105.767    110.454
ROOT
ATOM      1  C1  A00 X   1      79.873  62.617  40.3430  0.00  0.00     0.000 C
ATOM      2  C2  A00 X   1      78.487  61.921  40.2860  0.00  0.00     0.000 C
ATOM      3  C3  A00 X   1      78.138  60.986  41.4900  0.00  0.00     0.000 C
ATOM      4  C4  A00 X   1      79.333  60.579  42.3890  0.00  0.00     0.000 C
ATOM      5  C5  A00 X   1      80.671  60.699  41.6600  0.00  0.00     0.000 C
ATOM      6  O5  A00 X   1      80.790  62.104  41.3410  0.00  0.00     0.000 O
ATOM      7   O  A00 X   1      77.583  59.774  40.9820  0.00  0.00     0.000 O
ATOM      9  HD  A00 X   1      78.119  59.559  41.6280  0.00  0.00     0.000 HD
ATOM      9   O  A00 X   1      79.368  61.349  43.5910  0.00  0.00     0.000 O
ATOM     11  HD  A00 X   1      79.904  61.133  44.2370  0.00  0.00     0.000 HD
ENDROOT
BRANCH 2 11
ATOM     11   O  A00 X   1      77.484  62.951  40.1860  0.00  0.00     0.000 O
ATOM     12   O  A00 X   1      75.138  62.456  40.3160  0.00  0.00     0.000 OA
ATOM     13   O  A00 X   1      76.441  61.566  38.4650  0.00  0.00     0.000 OA
ATOM     14   O  A00 X   1      76.024  63.902  38.6320  0.00  0.00     0.000 OA
ATOM     15   S  A00 X   1      76.187  62.668  39.3520  0.00  0.00     0.000 S
ENDBRANCH 2 11
BRANCH 5 16
ATOM     16   C  A00 X   1      80.833  59.779  40.4460  0.00  0.00     0.000 C
ATOM     17   O  A00 X   1      81.765  59.969  39.6930  0.00  0.00     0.000 OA
ATOM     18   O  A00 X   1      80.066  58.865  40.2150  0.00  0.00     0.000 OA
ENDBRANCH 5 16
BRANCH 1 19
ATOM     19  O4  A00 X   2      80.507  62.712  39.0430  0.00  0.00     0.000 O
BRANCH 19 23
ATOM     20  C1  A00 X   2      82.063  66.642  39.7510  0.00  0.00     0.000 C
ATOM     21  C2  A00 X   2      80.747  66.529  38.9440  0.00  0.00     0.000 C
ATOM     22  C3  A00 X   2      80.098  65.143  39.1410  0.00  0.00     0.000 C
ATOM     23  C4  A00 X   2      81.105  64.019  38.8080  0.00  0.00     0.000 C
ATOM     24  C5  A00 X   2      82.380  64.255  39.6630  0.00  0.00     0.000 C
ATOM     25  O5  A00 X   2      82.931  65.555  39.3310  0.00  0.00     0.000 O
ATOM     26   O  A00 X   2      78.849  65.113  38.4300  0.00  0.00     0.000 O
ATOM     28  HD  A00 X   2      79.202  65.408  37.6960  0.00  0.00     0.000 HD
BRANCH 21 30
ATOM     28   N  A00 X   2      81.175  67.697  38.1680  0.00  0.00     0.000 N
ATOM     30  HD  A00 X   2      80.330  67.589  38.0120  0.00  0.00     0.000 HD
ATOM     30   O  A00 X   2      79.267  68.875  37.5130  0.00  0.00     0.000 OA
ATOM     31   S  A00 X   2      80.317  68.131  36.9130  0.00  0.00     0.000 S
ATOM     32   O  A00 X   2      81.231  68.900  36.1270  0.00  0.00     0.000 OA
ATOM     33   O  A00 X   2      79.949  66.934  36.2180  0.00  0.00     0.000 OA
ENDBRANCH 21 30
BRANCH 24 34
ATOM     34   C  A00 X   2      83.453  63.140  39.6880  0.00  0.00     0.000 C
ATOM     35   O  A00 X   2      85.145  61.869  36.7260  0.00  0.00     0.000 OA
ATOM     36   O  A00 X   2      83.680  62.604  38.3700  0.00  0.00     0.000 O
ATOM     37   O  A00 X   2      85.112  64.150  37.3520  0.00  0.00     0.000 OA
ATOM     38   S  A00 X   2      85.138  62.794  37.8110  0.00  0.00     0.000 S
ATOM     39   O  A00 X   2      86.029  62.475  38.8860  0.00  0.00     0.000 OA
ENDBRANCH 24 34
BRANCH 20 40
ATOM     40  O4  A00 X   3      81.692  66.456  41.1250  0.00  0.00     0.000 O
BRANCH 40 44
ATOM     41  C1  A00 X   3      82.425  64.875  44.3010  0.00  0.00     0.000 C
ATOM     42  C2  A00 X   3      81.209  65.787  44.0320  0.00  0.00     0.000 C
ATOM     43  C3  A00 X   3      81.650  67.122  43.3770  0.00  0.00     0.000 C
ATOM     44  C4  A00 X   3      82.557  66.963  42.1640  0.00  0.00     0.000 C
ATOM     45  C5  A00 X   3      83.757  66.038  42.5140  0.00  0.00     0.000 C
ATOM     46  O5  A00 X   3      83.295  64.796  43.1380  0.00  0.00     0.000 O
ATOM     47   O  A00 X   3      80.617  68.082  43.1620  0.00  0.00     0.000 O
ATOM     49  HD  A00 X   3      81.052  68.218  42.4260  0.00  0.00     0.000 HD
BRANCH 42 49
ATOM     49   O  A00 X   3      80.309  65.052  43.1740  0.00  0.00     0.000 O
ATOM     50   O  A00 X   3      78.207  65.466  42.1070  0.00  0.00     0.000 OA
ATOM     51   O  A00 X   3      78.524  66.209  44.3280  0.00  0.00     0.000 OA
ATOM     52   O  A00 X   3      78.415  63.883  43.9230  0.00  0.00     0.000 OA
ATOM     53   S  A00 X   3      78.769  65.149  43.3820  0.00  0.00     0.000 S
ENDBRANCH 42 49
BRANCH 45 54
ATOM     54   C  A00 X   3      84.817  66.772  43.3440  0.00  0.00     0.000 C
ATOM     55   O  A00 X   3      85.892  66.256  43.5710  0.00  0.00     0.000 OA
ATOM     56   O  A00 X   3      84.598  67.887  43.7920  0.00  0.00     0.000 OA
ENDBRANCH 45 54
BRANCH 41 57
ATOM     57  O4  A00 X   4      83.107  65.241  45.5210  0.00  0.00     0.000 O
BRANCH 57 61
ATOM     58  C1  A00 X   4      85.227  62.948  48.5030  0.00  0.00     0.000 C
ATOM     59  C2  A00 X   4      85.762  62.948  47.0490  0.00  0.00     0.000 C
ATOM     60  C3  A00 X   4      85.157  64.062  46.1710  0.00  0.00     0.000 C
ATOM     61  C4  A00 X   4      83.620  64.123  46.3010  0.00  0.00     0.000 C
ATOM     62  C5  A00 X   4      83.318  64.337  47.8060  0.00  0.00     0.000 C
ATOM     63  O5  A00 X   4      83.803  63.195  48.5570  0.00  0.00     0.000 O
BRANCH 59 66
ATOM     64   N  A00 X   4      85.428  61.692  46.3530  0.00  0.00     0.000 N
ATOM     66  HD  A00 X   4      84.712  61.275  46.6020  0.00  0.00     0.000 HD
ATOM     66   O  A00 X   4      87.322  60.694  47.4560  0.00  0.00     0.000 OA
ATOM     67   S  A00 X   4      86.551  60.556  46.2610  0.00  0.00     0.000 S
ATOM     68   O  A00 X   4      85.727  59.384  46.1900  0.00  0.00     0.000 OA
ATOM     69   O  A00 X   4      87.172  60.914  45.0170  0.00  0.00     0.000 OA
ENDBRANCH 59 66
BRANCH 62 70
ATOM     70   C  A00 X   4      81.818  64.536  48.1270  0.00  0.00     0.000 C
ATOM     71   O  A00 X   4      79.130  62.116  47.9620  0.00  0.00     0.000 OA
ATOM     72   O  A00 X   4      79.280  64.304  47.1040  0.00  0.00     0.000 OA
ATOM     73   O  A00 X   4      81.167  63.256  48.1650  0.00  0.00     0.000 O
ATOM     74   O  A00 X   4      80.467  62.490  45.9910  0.00  0.00     0.000 OA
ATOM     75   S  A00 X   4      79.946  63.025  47.2080  0.00  0.00     0.000 S
ENDBRANCH 62 70
ENDBRANCH 57 61
ENDBRANCH 41 57
ENDBRANCH 40 44
ENDBRANCH 20 40
ENDBRANCH 19 23
ENDBRANCH 1 19
TORSDOF 14
ENDMDL
MODEL 4
REMARK VINA RESULT:       0.0    104.838    109.628
ROOT
ATOM      1  C1  A00 X   1      80.275  60.808  40.8280  0.00  0.00     0.000 C
ATOM      2  C2  A00 X   1      78.777  60.441  40.6490  0.00  0.00     0.000 C
ATOM      3  C3  A00 X   1      78.098  59.718  41.8590  0.00  0.00     0.000 C
ATOM      4  C4  A00 X   1      79.067  59.133  42.9180  0.00  0.00     0.000 C
ATOM      5  C5  A00 X   1      80.463  58.884  42.3480  0.00  0.00     0.000 C
ATOM      6  O5  A00 X   1      80.939  60.192  41.9590  0.00  0.00     0.000 O
ATOM      7   O  A00 X   1      77.330  58.623  41.3640  0.00  0.00     0.000 O
ATOM      9  HD  A00 X   1      77.732  58.350  42.0810  0.00  0.00     0.000 HD
ATOM      9   O  A00 X   1      79.158  59.978  44.0650  0.00  0.00     0.000 O
ATOM     11  HD  A00 X   1      79.559  59.706  44.7820  0.00  0.00     0.000 HD
ENDROOT
BRANCH 2 11
ATOM     11   O  A00 X   1      78.058  61.657  40.3660  0.00  0.00     0.000 O
ATOM     12   O  A00 X   1      75.661  61.716  40.2440  0.00  0.00     0.000 OA
ATOM     13   O  A00 X   1      76.903  60.397  38.6220  0.00  0.00     0.000 OA
ATOM     14   O  A00 X   1      77.028  62.772  38.5920  0.00  0.00     0.000 OA
ATOM     15   S  A00 X   1      76.824  61.601  39.4010  0.00  0.00     0.000 S
ENDBRANCH 2 11
BRANCH 5 16
ATOM     16   C  A00 X   1      80.528  57.848  41.2220  0.00  0.00     0.000 C
ATOM     17   O  A00 X   1      81.552  57.755  40.5760  0.00  0.00     0.000 OA
ATOM     18   O  A00 X   1      79.597  57.114  40.9580  0.00  0.00     0.000 OA
ENDBRANCH 5 16
BRANCH 1 19
ATOM     19  O4  A00 X   2      81.042  60.644  39.6100  0.00  0.00     0.000 O
BRANCH 19 23
ATOM     20  C1  A00 X   2      83.393  64.168  40.2530  0.00  0.00     0.000 C
ATOM     21  C2  A00 X   2      82.177  64.284  39.3030  0.00  0.00     0.000 C
ATOM     22  C3  A00 X   2      81.205  63.103  39.5070  0.00  0.00     0.000 C
ATOM     23  C4  A00 X   2      81.950  61.756  39.3670  0.00  0.00     0.000 C
ATOM     24  C5  A00 X   2      83.150  61.773  40.3530  0.00  0.00     0.000 C
ATOM     25  O5  A00 X   2      84.021  62.882  40.0090  0.00  0.00     0.000 O
ATOM     26   O  A00 X   2      80.063  63.292  38.6550  0.00  0.00     0.000 O
ATOM     28  HD  A00 X   2      80.549  63.434  37.9520  0.00  0.00     0.000 HD
BRANCH 21 30
ATOM     28   N  A00 X   2      82.943  65.252  38.5130  0.00  0.00     0.000 N
ATOM     30  HD  A00 X   2      82.117  65.324  38.2640  0.00  0.00     0.000 HD
ATOM     30   O  A00 X   2      81.441  66.768  37.5620  0.00  0.00     0.000 OA
ATOM     31   S  A00 X   2      82.343  65.756  37.1400  0.00  0.00     0.000 S
ATOM     32   O  A00 X   2      83.487  66.228  36.4230  0.00  0.00     0.000 OA
ATOM     33   O  A00 X   2      81.778  64.616  36.4810  0.00  0.00     0.000 OA
ENDBRANCH 21 30
BRANCH 24 34
ATOM     34   C  A00 X   2      83.925  60.453  40.5760  0.00  0.00     0.000 C
ATOM     35   O  A00 X   2      85.567  58.577  37.9220  0.00  0.00     0.000 OA
ATOM     36   O  A00 X   2      84.155  59.765  39.3300  0.00  0.00     0.000 O
ATOM     37   O  A00 X   2      86.004  60.852  38.3970  0.00  0.00     0.000 OA
ATOM     38   S  A00 X   2      85.666  59.572  38.9390  0.00  0.00     0.000 S
ATOM     39   O  A00 X   2      86.342  59.156  40.1310  0.00  0.00     0.000 OA
ENDBRANCH 24 34
BRANCH 20 40
ATOM     40  O4  A00 X   3      82.851  64.193  41.5820  0.00  0.00     0.000 O
BRANCH 40 44
ATOM     41  C1  A00 X   3      82.865  62.774  44.9150  0.00  0.00     0.000 C
ATOM     42  C2  A00 X   3      81.930  63.910  44.4460  0.00  0.00     0.000 C
ATOM     43  C3  A00 X   3      82.736  65.047  43.7670  0.00  0.00     0.000 C
ATOM     44  C4  A00 X   3      83.700  64.581  42.6830  0.00  0.00     0.000 C
ATOM     45  C5  A00 X   3      84.608  63.445  43.2320  0.00  0.00     0.000 C
ATOM     46  O5  A00 X   3      83.807  62.399  43.8720  0.00  0.00     0.000 O
ATOM     47   O  A00 X   3      81.983  66.192  43.3700  0.00  0.00     0.000 O
ATOM     49  HD  A00 X   3      82.511  66.161  42.6840  0.00  0.00     0.000 HD
BRANCH 42 49
ATOM     49   O  A00 X   3      80.975  63.323  43.5340  0.00  0.00     0.000 O
ATOM     50   O  A00 X   3      79.149  64.104  42.1990  0.00  0.00     0.000 OA
ATOM     51   O  A00 X   3      79.402  64.949  44.3920  0.00  0.00     0.000 OA
ATOM     52   O  A00 X   3      78.794  62.681  44.1220  0.00  0.00     0.000 OA
ATOM     53   S  A00 X   3      79.488  63.783  43.5490  0.00  0.00     0.000 S
ENDBRANCH 42 49
BRANCH 45 54
ATOM     54   C  A00 X   3      85.719  63.992  44.1350  0.00  0.00     0.000 C
ATOM     55   O  A00 X   3      86.615  63.269  44.5210  0.00  0.00     0.000 OA
ATOM     56   O  A00 X   3      85.722  65.163  44.4840  0.00  0.00     0.000 OA
ENDBRANCH 45 54
BRANCH 41 57
ATOM     57  O4  A00 X   4      83.486  63.083  46.1830  0.00  0.00     0.000 O
BRANCH 57 61
ATOM     58  C1  A00 X   4      84.694  60.644  49.5340  0.00  0.00     0.000 C
ATOM     59  C2  A00 X   4      85.360  60.395  48.1580  0.00  0.00     0.000 C
ATOM     60  C3  A00 X   4      85.125  61.535  47.1460  0.00  0.00     0.000 C
ATOM     61  C4  A00 X   4      83.640  61.952  47.0870  0.00  0.00     0.000 C
ATOM     62  C5  A00 X   4      83.245  62.360  48.5280  0.00  0.00     0.000 C
ATOM     63  O5  A00 X   4      83.370  61.209  49.4020  0.00  0.00     0.000 O
BRANCH 59 66
ATOM     64   N  A00 X   4      84.815  59.190  47.5060  0.00  0.00     0.000 N
ATOM     66  HD  A00 X   4      83.999  58.969  47.6930  0.00  0.00     0.000 HD
ATOM     66   O  A00 X   4      86.300  57.893  48.8890  0.00  0.00     0.000 OA
ATOM     67   S  A00 X   4      85.644  57.827  47.6200  0.00  0.00     0.000 S
ATOM     68   O  A00 X   4      84.581  56.869  47.5240  0.00  0.00     0.000 OA
ATOM     69   O  A00 X   4      86.456  57.925  46.4410  0.00  0.00     0.000 OA
ENDBRANCH 59 66
BRANCH 62 70
ATOM     70   C  A00 X   4      81.807  62.919  48.6550  0.00  0.00     0.000 C
ATOM     71   O  A00 X   4      78.660  61.162  48.3200  0.00  0.00     0.000 OA
ATOM     72   O  A00 X   4      79.404  63.176  47.3510  0.00  0.00     0.000 OA
ATOM     73   O  A00 X   4      80.875  61.827  48.6940  0.00  0.00     0.000 O
ATOM     74   O  A00 X   4      80.241  61.050  46.5030  0.00  0.00     0.000 OA
ATOM     75   S  A00 X   4      79.739  61.794  47.6130  0.00  0.00     0.000 S
ENDBRANCH 62 70
ENDBRANCH 57 61
ENDBRANCH 41 57
ENDBRANCH 40 44
ENDBRANCH 20 40
ENDBRANCH 19 23
ENDBRANCH 1 19
TORSDOF 14
ENDMDL
MODEL 5
REMARK VINA RESULT:       0.0     93.105     98.291
ROOT
ATOM      1  C1  A00 X   1      64.385  83.800  66.1270  0.00  0.00     0.000 C
ATOM      2  C2  A00 X   1      64.830  82.325  66.3170  0.00  0.00     0.000 C
ATOM      3  C3  A00 X   1      65.694  81.714  65.1650  0.00  0.00     0.000 C
ATOM      4  C4  A00 X   1      65.691  82.508  63.8340  0.00  0.00     0.000 C
ATOM      5  C5  A00 X   1      64.463  83.408  63.7000  0.00  0.00     0.000 C
ATOM      6  O5  A00 X   1      64.572  84.343  64.7970  0.00  0.00     0.000 O
ATOM      7   O  A00 X   1      65.195  80.413  64.8610  0.00  0.00     0.000 O
ATOM      9  HD  A00 X   1      65.381  80.798  64.1080  0.00  0.00     0.000 HD
ATOM      9   O  A00 X   1      66.878  83.288  63.6900  0.00  0.00     0.000 O
ATOM     11  HD  A00 X   1      67.063  83.673  62.9370  0.00  0.00     0.000 HD
ENDROOT
BRANCH 2 11
ATOM     11   O  A00 X   1      65.569  82.245  67.5510  0.00  0.00     0.000 O
ATOM     12   O  A00 X   1      66.724  80.246  68.2130  0.00  0.00     0.000 OA
ATOM     13   O  A00 X   1      64.300  80.210  68.0120  0.00  0.00     0.000 OA
ATOM     14   O  A00 X   1      65.346  81.464  69.7400  0.00  0.00     0.000 OA
ATOM     15   S  A00 X   1      65.474  80.937  68.4090  0.00  0.00     0.000 S
ENDBRANCH 2 11
BRANCH 5 16
ATOM     16   C  A00 X   1      63.121  82.669  63.6560  0.00  0.00     0.000 C
ATOM     17   O  A00 X   1      62.099  83.315  63.7600  0.00  0.00     0.000 OA
ATOM     18   O  A00 X   1      63.044  81.465  63.5150  0.00  0.00     0.000 OA
ENDBRANCH 5 16
BRANCH 1 19
ATOM     19  O4  A00 X   2      63.045  84.050  66.6160  0.00  0.00     0.000 O
BRANCH 19 23
ATOM     20  C1  A00 X   2      64.027  87.890  68.2470  0.00  0.00     0.000 C
ATOM     21  C2  A00 X   2      64.007  86.685  69.2180  0.00  0.00     0.000 C
ATOM     22  C3  A00 X   2      64.072  85.353  68.4430  0.00  0.00     0.000 C
ATOM     23  C4  A00 X   2      62.951  85.286  67.3810  0.00  0.00     0.000 C
ATOM     24  C5  A00 X   2      63.068  86.551  66.4870  0.00  0.00     0.000 C
ATOM     25  O5  A00 X   2      62.918  87.728  67.3220  0.00  0.00     0.000 O
ATOM     26   O  A00 X   2      64.120  84.270  69.3880  0.00  0.00     0.000 O
ATOM     28  HD  A00 X   2      63.439  84.564  69.8360  0.00  0.00     0.000 HD
BRANCH 21 30
ATOM     28   N  A00 X   2      63.509  87.585  70.2630  0.00  0.00     0.000 N
ATOM     30  HD  A00 X   2      63.787  86.868  70.6610  0.00  0.00     0.000 HD
ATOM     30   O  A00 X   2      64.316  86.827  72.3210  0.00  0.00     0.000 OA
ATOM     31   S  A00 X   2      63.071  86.967  71.6510  0.00  0.00     0.000 S
ATOM     32   O  A00 X   2      62.197  87.956  72.2010  0.00  0.00     0.000 OA
ATOM     33   O  A00 X   2      62.347  85.764  71.3690  0.00  0.00     0.000 OA
ENDBRANCH 21 30
BRANCH 24 34
ATOM     34   C  A00 X   2      62.206  86.615  65.2040  0.00  0.00     0.000 C
ATOM     35   O  A00 X   2      59.561  89.053  64.6430  0.00  0.00     0.000 OA
ATOM     36   O  A00 X   2      61.032  87.426  65.4040  0.00  0.00     0.000 O
ATOM     37   O  A00 X   2      61.795  89.624  65.1670  0.00  0.00     0.000 OA
ATOM     38   S  A00 X   2      60.935  88.703  64.4900  0.00  0.00     0.000 S
ATOM     39   O  A00 X   2      61.312  88.287  63.1730  0.00  0.00     0.000 OA
ENDBRANCH 24 34
BRANCH 20 40
ATOM     40  O4  A00 X   3      65.267  87.790  67.5310  0.00  0.00     0.000 O
BRANCH 40 44
ATOM     41  C1  A00 X   3      66.970  87.966  64.3380  0.00  0.00     0.000 C
ATOM     42  C2  A00 X   3      67.649  87.616  65.6800  0.00  0.00     0.000 C
ATOM     43  C3  A00 X   3      67.307  88.669  66.7660  0.00  0.00     0.000 C
ATOM     44  C4  A00 X   3      65.820  88.970  66.9100  0.00  0.00     0.000 C
ATOM     45  C5  A00 X   3      65.211  89.316  65.5220  0.00  0.00     0.000 C
ATOM     46  O5  A00 X   3      65.568  88.303  64.5270  0.00  0.00     0.000 O
ATOM     47   O  A00 X   3      67.951  88.495  68.0270  0.00  0.00     0.000 O
ATOM     49  HD  A00 X   3      67.179  88.745  68.3290  0.00  0.00     0.000 HD
BRANCH 42 49
ATOM     49   O  A00 X   3      67.189  86.300  66.0570  0.00  0.00     0.000 O
ATOM     50   O  A00 X   3      67.504  84.821  67.9130  0.00  0.00     0.000 OA
ATOM     51   O  A00 X   3      69.367  86.008  67.0720  0.00  0.00     0.000 OA
ATOM     52   O  A00 X   3      68.407  84.319  65.7260  0.00  0.00     0.000 OA
ATOM     53   S  A00 X   3      68.162  85.292  66.7350  0.00  0.00     0.000 S
ENDBRANCH 42 49
BRANCH 45 54
ATOM     54   C  A00 X   3      65.568  90.742  65.0860  0.00  0.00     0.000 C
ATOM     55   O  A00 X   3      66.365  91.403  65.7200  0.00  0.00     0.000 OA
ATOM     56   O  A00 X   3      65.056  91.239  64.0940  0.00  0.00     0.000 OA
ENDBRANCH 45 54
BRANCH 41 57
ATOM     57  O4  A00 X   4      67.719  88.959  63.6030  0.00  0.00     0.000 O
BRANCH 57 61
ATOM     58  C1  A00 X   4      68.361  89.630  59.3870  0.00  0.00     0.000 C
ATOM     59  C2  A00 X   4      66.916  89.706  59.9380  0.00  0.00     0.000 C
ATOM     60  C3  A00 X   4      66.848  89.810  61.4750  0.00  0.00     0.000 C
ATOM     61  C4  A00 X   4      67.754  88.765  62.1610  0.00  0.00     0.000 C
ATOM     62  C5  A00 X   4      69.186  89.009  61.6220  0.00  0.00     0.000 C
ATOM     63  O5  A00 X   4      69.203  88.772  60.1910  0.00  0.00     0.000 O
BRANCH 59 66
ATOM     64   N  A00 X   4      66.160  88.486  59.6010  0.00  0.00     0.000 N
ATOM     66  HD  A00 X   4      66.608  87.752  59.5030  0.00  0.00     0.000 HD
ATOM     66   O  A00 X   4      65.776  89.446  57.4260  0.00  0.00     0.000 OA
ATOM     67   S  A00 X   4      65.173  88.530  58.3430  0.00  0.00     0.000 S
ATOM     68   O  A00 X   4      65.198  87.153  57.9460  0.00  0.00     0.000 OA
ATOM     69   O  A00 X   4      63.956  88.934  58.9900  0.00  0.00     0.000 OA
ENDBRANCH 59 66
BRANCH 62 70
ATOM     70   C  A00 X   4      70.269  88.121  62.2800  0.00  0.00     0.000 C
ATOM     71   O  A00 X   4      70.785  84.554  61.9370  0.00  0.00     0.000 OA
ATOM     72   O  A00 X   4      70.666  85.909  63.8590  0.00  0.00     0.000 OA
ATOM     73   O  A00 X   4      70.250  86.820  61.6720  0.00  0.00     0.000 O
ATOM     74   O  A00 X   4      68.623  85.341  62.6570  0.00  0.00     0.000 OA
ATOM     75   S  A00 X   4      70.030  85.577  62.6030  0.00  0.00     0.000 S
ENDBRANCH 62 70
ENDBRANCH 57 61
ENDBRANCH 41 57
ENDBRANCH 40 44
ENDBRANCH 20 40
ENDBRANCH 19 23
ENDBRANCH 1 19
TORSDOF 14
ENDMDL
MODEL 6
REMARK VINA RESULT:       0.0     82.137     86.405
ROOT
ATOM      1  C1  A00 X   1      80.203  40.698  67.6050  0.00  0.00     0.000 C
ATOM      2  C2  A00 X   1      79.646  41.762  66.6220  0.00  0.00     0.000 C
ATOM      3  C3  A00 X   1      78.677  41.233  65.5140  0.00  0.00     0.000 C
ATOM      4  C4  A00 X   1      78.680  39.697  65.3010  0.00  0.00     0.000 C
ATOM      5  C5  A00 X   1      79.972  39.048  65.7960  0.00  0.00     0.000 C
ATOM      6  O5  A00 X   1      79.997  39.317  67.2160  0.00  0.00     0.000 O
ATOM      7   O  A00 X   1      79.048  41.815  64.2660  0.00  0.00     0.000 O
ATOM      9  HD  A00 X   1      78.859  40.984  64.1140  0.00  0.00     0.000 HD
ATOM      9   O  A00 X   1      77.558  39.081  65.9310  0.00  0.00     0.000 O
ATOM     11  HD  A00 X   1      77.368  38.250  65.7790  0.00  0.00     0.000 HD
ENDROOT
BRANCH 2 11
ATOM     11   O  A00 X   1      78.965  42.765  67.4010  0.00  0.00     0.000 O
ATOM     12   O  A00 X   1      77.680  44.514  66.3740  0.00  0.00     0.000 OA
ATOM     13   O  A00 X   1      80.079  44.414  65.9840  0.00  0.00     0.000 OA
ATOM     14   O  A00 X   1      79.230  44.965  68.1370  0.00  0.00     0.000 OA
ATOM     15   S  A00 X   1      78.992  44.253  66.9100  0.00  0.00     0.000 S
ENDBRANCH 2 11
BRANCH 5 16
ATOM     16   C  A00 X   1      81.243  39.494  65.0650  0.00  0.00     0.000 C
ATOM     17   O  A00 X   1      82.320  39.189  65.5350  0.00  0.00     0.000 OA
ATOM     18   O  A00 X   1      81.210  40.132  64.0320  0.00  0.00     0.000 OA
ENDBRANCH 5 16
BRANCH 1 19
ATOM     19  O4  A00 X   2      81.583  40.942  67.9740  0.00  0.00     0.000 O
BRANCH 19 23
ATOM     20  C1  A00 X   2      81.004  39.824  72.0700  0.00  0.00     0.000 C
ATOM     21  C2  A00 X   2      80.980  41.334  71.7320  0.00  0.00     0.000 C
ATOM     22  C3  A00 X   2      80.765  41.555  70.2200  0.00  0.00     0.000 C
ATOM     23  C4  A00 X   2      81.817  40.773  69.4010  0.00  0.00     0.000 C
ATOM     24  C5  A00 X   2      81.754  39.286  69.8450  0.00  0.00     0.000 C
ATOM     25  O5  A00 X   2      82.044  39.209  71.2650  0.00  0.00     0.000 O
ATOM     26   O  A00 X   2      80.682  42.968  69.9670  0.00  0.00     0.000 O
ATOM     28  HD  A00 X   2      81.407  43.140  70.4070  0.00  0.00     0.000 HD
BRANCH 21 30
ATOM     28   N  A00 X   2      81.607  41.597  73.0310  0.00  0.00     0.000 N
ATOM     30  HD  A00 X   2      81.292  42.353  72.7460  0.00  0.00     0.000 HD
ATOM     30   O  A00 X   2      80.853  43.673  73.7940  0.00  0.00     0.000 OA
ATOM     31   S  A00 X   2      82.066  43.072  73.3660  0.00  0.00     0.000 S
ATOM     32   O  A00 X   2      83.048  42.896  74.3910  0.00  0.00     0.000 OA
ATOM     33   O  A00 X   2      82.673  43.606  72.1830  0.00  0.00     0.000 OA
ENDBRANCH 21 30
BRANCH 24 34
ATOM     34   C  A00 X   2      82.547  38.247  69.0160  0.00  0.00     0.000 C
ATOM     35   O  A00 X   2      86.141  38.398  68.4560  0.00  0.00     0.000 OA
ATOM     36   O  A00 X   2      83.856  38.743  68.6720  0.00  0.00     0.000 O
ATOM     37   O  A00 X   2      85.137  38.389  70.5970  0.00  0.00     0.000 OA
ATOM     38   S  A00 X   2      85.061  37.913  69.2500  0.00  0.00     0.000 S
ATOM     39   O  A00 X   2      84.734  36.533  69.0510  0.00  0.00     0.000 OA
ENDBRANCH 24 34
BRANCH 20 40
ATOM     40  O4  A00 X   3      79.723  39.316  71.6690  0.00  0.00     0.000 O
BRANCH 40 44
ATOM     41  C1  A00 X   3      77.888  36.691  69.9770  0.00  0.00     0.000 C
ATOM     42  C2  A00 X   3      77.248  37.948  70.6040  0.00  0.00     0.000 C
ATOM     43  C3  A00 X   3      77.726  38.144  72.0660  0.00  0.00     0.000 C
ATOM     44  C4  A00 X   3      79.237  38.088  72.2510  0.00  0.00     0.000 C
ATOM     45  C5  A00 X   3      79.805  36.795  71.6000  0.00  0.00     0.000 C
ATOM     46  O5  A00 X   3      79.320  36.645  70.2270  0.00  0.00     0.000 O
ATOM     47   O  A00 X   3      77.131  39.229  72.7750  0.00  0.00     0.000 O
ATOM     49  HD  A00 X   3      77.934  39.319  73.0860  0.00  0.00     0.000 HD
BRANCH 42 49
ATOM     49   O  A00 X   3      77.618  39.070  69.7730  0.00  0.00     0.000 O
ATOM     50   O  A00 X   3      77.265  41.438  69.8000  0.00  0.00     0.000 OA
ATOM     51   O  A00 X   3      75.468  40.009  70.3650  0.00  0.00     0.000 OA
ATOM     52   O  A00 X   3      76.236  40.023  68.1300  0.00  0.00     0.000 OA
ATOM     53   S  A00 X   3      76.598  40.212  69.4930  0.00  0.00     0.000 S
ENDBRANCH 42 49
BRANCH 45 54
ATOM     54   C  A00 X   3      79.543  35.559  72.4700  0.00  0.00     0.000 C
ATOM     55   O  A00 X   3      80.077  34.499  72.2160  0.00  0.00     0.000 OA
ATOM     56   O  A00 X   3      78.793  35.619  73.4320  0.00  0.00     0.000 OA
ENDBRANCH 45 54
BRANCH 41 57
ATOM     57  O4  A00 X   4      77.187  35.487  70.3610  0.00  0.00     0.000 O
BRANCH 57 61
ATOM     58  C1  A00 X   4      76.445  31.746  68.3370  0.00  0.00     0.000 C
ATOM     59  C2  A00 X   4      77.912  32.160  68.6160  0.00  0.00     0.000 C
ATOM     60  C3  A00 X   4      78.043  33.305  69.6410  0.00  0.00     0.000 C
ATOM     61  C4  A00 X   4      77.084  34.473  69.3220  0.00  0.00     0.000 C
ATOM     62  C5  A00 X   4      75.657  33.871  69.2990  0.00  0.00     0.000 C
ATOM     63  O5  A00 X   4      75.569  32.892  68.2320  0.00  0.00     0.000 O
BRANCH 59 66
ATOM     64   N  A00 X   4      78.538  32.663  67.3800  0.00  0.00     0.000 N
ATOM     66  HD  A00 X   4      78.019  33.021  66.7860  0.00  0.00     0.000 HD
ATOM     66   O  A00 X   4      78.936  30.368  66.7670  0.00  0.00     0.000 OA
ATOM     67   S  A00 X   4      79.481  31.672  66.5510  0.00  0.00     0.000 S
ATOM     68   O  A00 X   4      79.313  32.200  65.2290  0.00  0.00     0.000 OA
ATOM     69   O  A00 X   4      80.751  31.973  67.1480  0.00  0.00     0.000 OA
ENDBRANCH 59 66
BRANCH 62 70
ATOM     70   C  A00 X   4      74.534  34.916  69.1010  0.00  0.00     0.000 C
ATOM     71   O  A00 X   4      73.752  36.865  66.1520  0.00  0.00     0.000 OA
ATOM     72   O  A00 X   4      74.027  37.522  68.3960  0.00  0.00     0.000 OA
ATOM     73   O  A00 X   4      74.440  35.254  67.7080  0.00  0.00     0.000 O
ATOM     74   O  A00 X   4      75.986  36.982  67.0520  0.00  0.00     0.000 OA
ATOM     75   S  A00 X   4      74.599  36.762  67.3070  0.00  0.00     0.000 S
ENDBRANCH 62 70
ENDBRANCH 57 61
ENDBRANCH 41 57
ENDBRANCH 40 44
ENDBRANCH 20 40
ENDBRANCH 19 23
ENDBRANCH 1 19
TORSDOF 14
ENDMDL
MODEL 7
REMARK VINA RESULT:       0.0     20.149     24.590
ROOT
ATOM      1  C1  A00 X   1      31.215  21.222 113.0910  0.00  0.00     0.000 C
ATOM      2  C2  A00 X   1      32.655  21.798 113.0430  0.00  0.00     0.000 C
ATOM      3  C3  A00 X   1      33.372  21.973 114.4230  0.00  0.00     0.000 C
ATOM      4  C4  A00 X   1      32.450  21.905 115.6680  0.00  0.00     0.000 C
ATOM      5  C5  A00 X   1      30.995  22.222 115.3270  0.00  0.00     0.000 C
ATOM      6  O5  A00 X   1      30.599  21.184 114.4030  0.00  0.00     0.000 O
ATOM      7   O  A00 X   1      33.999  23.252 114.4530  0.00  0.00     0.000 O
ATOM      9  HD  A00 X   1      33.639  23.126 115.2300  0.00  0.00     0.000 HD
ATOM      9   O  A00 X   1      32.529  20.630 116.3060  0.00  0.00     0.000 O
ATOM     11  HD  A00 X   1      32.169  20.504 117.0840  0.00  0.00     0.000 HD
ENDROOT
BRANCH 2 11
ATOM     11   O  A00 X   1      33.447  20.929 112.2100  0.00  0.00     0.000 O
ATOM     12   O  A00 X   1      35.824  21.193 111.9970  0.00  0.00     0.000 OA
ATOM     13   O  A00 X   1      34.354  22.961 111.2030  0.00  0.00     0.000 OA
ATOM     14   O  A00 X   1      34.423  20.860 110.0900  0.00  0.00     0.000 OA
ATOM     15   S  A00 X   1      34.593  21.551 111.3400  0.00  0.00     0.000 S
ENDBRANCH 2 11
BRANCH 5 16
ATOM     16   C  A00 X   1      30.747  23.639 114.8000  0.00  0.00     0.000 C
ATOM     17   O  A00 X   1      29.665  23.898 114.3150  0.00  0.00     0.000 OA
ATOM     18   O  A00 X   1      31.591  24.512 114.8550  0.00  0.00     0.000 OA
ENDBRANCH 5 16
BRANCH 1 19
ATOM     19  O4  A00 X   2      30.335  21.827 112.1120  0.00  0.00     0.000 O
BRANCH 19 23
ATOM     20  C1  A00 X   2      28.359  18.147 111.1570  0.00  0.00     0.000 C
ATOM     21  C2  A00 X   2      29.500  18.609 110.2200  0.00  0.00     0.000 C
ATOM     22  C3  A00 X   2      30.379  19.675 110.9070  0.00  0.00     0.000 C
ATOM     23  C4  A00 X   2      29.511  20.847 111.4190  0.00  0.00     0.000 C
ATOM     24  C5  A00 X   2      28.400  20.253 112.3280  0.00  0.00     0.000 C
ATOM     25  O5  A00 X   2      27.603  19.325 111.5460  0.00  0.00     0.000 O
ATOM     26   O  A00 X   2      31.460  20.020 110.0250  0.00  0.00     0.000 O
ATOM     28  HD  A00 X   2      30.934  20.155 109.3510  0.00  0.00     0.000 HD
BRANCH 21 30
ATOM     28   N  A00 X   2      28.759  18.031 109.0950  0.00  0.00     0.000 N
ATOM     30  HD  A00 X   2      29.569  18.165 108.8190  0.00  0.00     0.000 HD
ATOM     30   O  A00 X   2      30.306  17.273 107.5170  0.00  0.00     0.000 OA
ATOM     31   S  A00 X   2      29.299  18.268 107.6280  0.00  0.00     0.000 S
ATOM     32   O  A00 X   2      28.148  18.057 106.8050  0.00  0.00     0.000 OA
ATOM     33   O  A00 X   2      29.724  19.634 107.5490  0.00  0.00     0.000 OA
ENDBRANCH 21 30
BRANCH 24 34
ATOM     34   C  A00 X   2      27.534  21.235 113.1520  0.00  0.00     0.000 C
ATOM     35   O  A00 X   2      23.944  21.652 112.7150  0.00  0.00     0.000 OA
ATOM     36   O  A00 X   2      26.248  21.443 112.5340  0.00  0.00     0.000 O
ATOM     37   O  A00 X   2      24.987  19.579 113.1730  0.00  0.00     0.000 OA
ATOM     38   S  A00 X   2      25.011  20.993 113.3940  0.00  0.00     0.000 S
ATOM     39   O  A00 X   2      25.256  21.452 114.7280  0.00  0.00     0.000 OA
ENDBRANCH 24 34
BRANCH 20 40
ATOM     40  O4  A00 X   3      29.006  17.590 112.3110  0.00  0.00     0.000 O
BRANCH 40 44
ATOM     41  C1  A00 X   3      29.143  17.326 115.9210  0.00  0.00     0.000 C
ATOM     42  C2  A00 X   3      30.133  16.646 114.9510  0.00  0.00     0.000 C
ATOM     43  C3  A00 X   3      29.378  15.856 113.8510  0.00  0.00     0.000 C
ATOM     44  C4  A00 X   3      28.290  16.647 113.1370  0.00  0.00     0.000 C
ATOM     45  C5  A00 X   3      27.333  17.295 114.1770  0.00  0.00     0.000 C
ATOM     46  O5  A00 X   3      28.088  18.021 115.2000  0.00  0.00     0.000 O
ATOM     47   O  A00 X   3      30.194  15.114 112.9470  0.00  0.00     0.000 O
ATOM     49  HD  A00 X   3      29.610  15.391 112.3700  0.00  0.00     0.000 HD
BRANCH 42 49
ATOM     49   O  A00 X   3      30.953  17.690 114.3820  0.00  0.00     0.000 O
ATOM     50   O  A00 X   3      32.714  17.824 112.7660  0.00  0.00     0.000 OA
ATOM     51   O  A00 X   3      32.723  16.042 114.3190  0.00  0.00     0.000 OA
ATOM     52   O  A00 X   3      33.117  18.232 115.1150  0.00  0.00     0.000 OA
ATOM     53   S  A00 X   3      32.468  17.447 114.1220  0.00  0.00     0.000 S
ENDBRANCH 42 49
BRANCH 45 54
ATOM     54   C  A00 X   3      26.354  16.271 114.7620  0.00  0.00     0.000 C
ATOM     55   O  A00 X   3      25.414  16.632 115.4410  0.00  0.00     0.000 OA
ATOM     56   O  A00 X   3      26.502  15.076 114.5580  0.00  0.00     0.000 OA
ENDBRANCH 45 54
BRANCH 41 57
ATOM     57  O4  A00 X   4      28.660  16.404 116.9240  0.00  0.00     0.000 O
BRANCH 57 61
ATOM     58  C1  A00 X   4      27.500  16.895 121.0530  0.00  0.00     0.000 C
ATOM     59  C2  A00 X   4      26.702  17.654 119.9640  0.00  0.00     0.000 C
ATOM     60  C3  A00 X   4      26.963  17.133 118.5360  0.00  0.00     0.000 C
ATOM     61  C4  A00 X   4      28.471  16.975 118.2500  0.00  0.00     0.000 C
ATOM     62  C5  A00 X   4      29.022  16.013 119.3310  0.00  0.00     0.000 C
ATOM     63  O5  A00 X   4      28.858  16.620 120.6380  0.00  0.00     0.000 O
BRANCH 59 66
ATOM     64   N  A00 X   4      27.085  19.077 119.9330  0.00  0.00     0.000 N
ATOM     66  HD  A00 X   4      27.888  19.281 120.1860  0.00  0.00     0.000 HD
ATOM     66   O  A00 X   4      25.586  19.418 121.7870  0.00  0.00     0.000 OA
ATOM     67   S  A00 X   4      26.143  20.131 120.6810  0.00  0.00     0.000 S
ATOM     68   O  A00 X   4      27.102  21.142 121.0180  0.00  0.00     0.000 OA
ATOM     69   O  A00 X   4      25.263  20.491 119.6050  0.00  0.00     0.000 OA
ENDBRANCH 59 66
BRANCH 62 70
ATOM     70   C  A00 X   4      30.512  15.641 119.1460  0.00  0.00     0.000 C
ATOM     71   O  A00 X   4      33.435  17.739 119.5510  0.00  0.00     0.000 OA
ATOM     72   O  A00 X   4      32.812  16.298 117.7960  0.00  0.00     0.000 OA
ATOM     73   O  A00 X   4      31.334  16.706 119.6490  0.00  0.00     0.000 O
ATOM     74   O  A00 X   4      31.704  18.455 118.0330  0.00  0.00     0.000 OA
ATOM     75   S  A00 X   4      32.367  17.362 118.6680  0.00  0.00     0.000 S
ENDBRANCH 62 70
ENDBRANCH 57 61
ENDBRANCH 41 57
ENDBRANCH 40 44
ENDBRANCH 20 40
ENDBRANCH 19 23
ENDBRANCH 1 19
TORSDOF 14
ENDMDL
MODEL 8
REMARK VINA RESULT:       0.0     90.540     94.744
ROOT
ATOM      1  C1  A00 X   1      88.731  38.507  73.8430  0.00  0.00     0.000 C
ATOM      2  C2  A00 X   1      87.885  37.982  72.6530  0.00  0.00     0.000 C
ATOM      3  C3  A00 X   1      87.953  38.824  71.3370  0.00  0.00     0.000 C
ATOM      4  C4  A00 X   1      88.544  40.249  71.4850  0.00  0.00     0.000 C
ATOM      5  C5  A00 X   1      88.447  40.768  72.9190  0.00  0.00     0.000 C
ATOM      6  O5  A00 X   1      89.250  39.852  73.6960  0.00  0.00     0.000 O
ATOM      7   O  A00 X   1      86.630  38.985  70.8280  0.00  0.00     0.000 O
ATOM      9  HD  A00 X   1      87.035  39.745  70.7340  0.00  0.00     0.000 HD
ATOM      9   O  A00 X   1      89.901  40.300  71.0450  0.00  0.00     0.000 O
ATOM     11  HD  A00 X   1      90.305  41.059  70.9500  0.00  0.00     0.000 HD
ENDROOT
BRANCH 2 11
ATOM     11   O  A00 X   1      88.313  36.635  72.3710  0.00  0.00     0.000 O
ATOM     12   O  A00 X   1      87.162  35.241  70.7900  0.00  0.00     0.000 OA
ATOM     13   O  A00 X   1      86.004  35.965  72.8030  0.00  0.00     0.000 OA
ATOM     14   O  A00 X   1      87.813  34.427  72.9410  0.00  0.00     0.000 OA
ATOM     15   S  A00 X   1      87.230  35.514  72.2030  0.00  0.00     0.000 S
ENDBRANCH 2 11
BRANCH 5 16
ATOM     16   C  A00 X   1      87.020  40.937  73.4520  0.00  0.00     0.000 C
ATOM     17   O  A00 X   1      86.865  41.175  74.6320  0.00  0.00     0.000 OA
ATOM     18   O  A00 X   1      86.042  40.847  72.7370  0.00  0.00     0.000 OA
ENDBRANCH 5 16
BRANCH 1 19
ATOM     19  O4  A00 X   2      88.071  38.332  75.1210  0.00  0.00     0.000 O
BRANCH 19 23
ATOM     20  C1  A00 X   2      91.707  37.472  77.2210  0.00  0.00     0.000 C
ATOM     21  C2  A00 X   2      90.836  36.271  76.7790  0.00  0.00     0.000 C
ATOM     22  C3  A00 X   2      89.827  36.695  75.6910  0.00  0.00     0.000 C
ATOM     23  C4  A00 X   2      88.988  37.902  76.1680  0.00  0.00     0.000 C
ATOM     24  C5  A00 X   2      89.972  39.024  76.5980  0.00  0.00     0.000 C
ATOM     25  O5  A00 X   2      90.811  38.523  77.6710  0.00  0.00     0.000 O
ATOM     26   O  A00 X   2      89.092  35.535  75.2670  0.00  0.00     0.000 O
ATOM     28  HD  A00 X   2      88.895  35.301  76.0770  0.00  0.00     0.000 HD
BRANCH 21 30
ATOM     28   N  A00 X   2      91.252  35.571  77.9990  0.00  0.00     0.000 N
ATOM     30  HD  A00 X   2      90.911  34.975  77.4710  0.00  0.00     0.000 HD
ATOM     30   O  A00 X   2      91.316  33.282  77.5370  0.00  0.00     0.000 OA
ATOM     31   S  A00 X   2      90.576  34.185  78.3450  0.00  0.00     0.000 S
ATOM     32   O  A00 X   2      90.787  34.047  79.7530  0.00  0.00     0.000 OA
ATOM     33   O  A00 X   2      89.177  34.313  78.0630  0.00  0.00     0.000 OA
ENDBRANCH 21 30
BRANCH 24 34
ATOM     34   C  A00 X   2      89.388  40.424  76.9010  0.00  0.00     0.000 C
ATOM     35   O  A00 X   2      89.568  42.051  80.1530  0.00  0.00     0.000 OA
ATOM     36   O  A00 X   2      89.290  40.654  78.3200  0.00  0.00     0.000 O
ATOM     37   O  A00 X   2      91.454  41.266  78.9620  0.00  0.00     0.000 OA
ATOM     38   S  A00 X   2      90.152  41.850  78.8680  0.00  0.00     0.000 S
ATOM     39   O  A00 X   2      89.975  42.932  77.9450  0.00  0.00     0.000 OA
ENDBRANCH 24 34
BRANCH 20 40
ATOM     40  O4  A00 X   3      92.399  37.904  76.0410  0.00  0.00     0.000 O
BRANCH 40 44
ATOM     41  C1  A00 X   3      93.512  40.668  73.9800  0.00  0.00     0.000 C
ATOM     42  C2  A00 X   3      93.735  39.176  73.6480  0.00  0.00     0.000 C
ATOM     43  C3  A00 X   3      94.358  38.426  74.8540  0.00  0.00     0.000 C
ATOM     44  C4  A00 X   3      93.633  38.641  76.1760  0.00  0.00     0.000 C
ATOM     45  C5  A00 X   3      93.451  40.162  76.4420  0.00  0.00     0.000 C
ATOM     46  O5  A00 X   3      92.871  40.831  75.2760  0.00  0.00     0.000 O
ATOM     47   O  A00 X   3      94.689  37.057  74.6310  0.00  0.00     0.000 O
ATOM     49  HD  A00 X   3      94.393  36.971  75.4400  0.00  0.00     0.000 HD
BRANCH 42 49
ATOM     49   O  A00 X   3      92.449  38.625  73.2900  0.00  0.00     0.000 O
ATOM     50   O  A00 X   3      91.590  36.469  72.7060  0.00  0.00     0.000 OA
ATOM     51   O  A00 X   3      93.674  37.145  71.8190  0.00  0.00     0.000 OA
ATOM     52   O  A00 X   3      91.723  38.260  71.0870  0.00  0.00     0.000 OA
ATOM     53   S  A00 X   3      92.336  37.559  72.1620  0.00  0.00     0.000 S
ENDBRANCH 42 49
BRANCH 45 54
ATOM     54   C  A00 X   3      94.752  40.814  76.9260  0.00  0.00     0.000 C
ATOM     55   O  A00 X   3      94.766  41.971  77.2910  0.00  0.00     0.000 OA
ATOM     56   O  A00 X   3      95.796  40.181  76.9510  0.00  0.00     0.000 OA
ENDBRANCH 45 54
BRANCH 41 57
ATOM     57  O4  A00 X   4      94.726  41.437  73.8250  0.00  0.00     0.000 O
BRANCH 57 61
ATOM     58  C1  A00 X   4      95.494  45.488  72.5470  0.00  0.00     0.000 C
ATOM     59  C2  A00 X   4      94.643  45.262  73.8210  0.00  0.00     0.000 C
ATOM     60  C3  A00 X   4      94.737  43.826  74.3760  0.00  0.00     0.000 C
ATOM     61  C4  A00 X   4      94.546  42.769  73.2660  0.00  0.00     0.000 C
ATOM     62  C5  A00 X   4      95.632  43.055  72.2000  0.00  0.00     0.000 C
ATOM     63  O5  A00 X   4      95.409  44.371  71.6330  0.00  0.00     0.000 O
BRANCH 59 66
ATOM     64   N  A00 X   4      93.216  45.476  73.5210  0.00  0.00     0.000 N
ATOM     66  HD  A00 X   4      92.951  45.330  72.7100  0.00  0.00     0.000 HD
ATOM     66   O  A00 X   4      93.618  47.836  73.7850  0.00  0.00     0.000 OA
ATOM     67   S  A00 X   4      92.562  46.882  73.9160  0.00  0.00     0.000 S
ATOM     68   O  A00 X   4      91.524  46.970  72.9310  0.00  0.00     0.000 OA
ATOM     69   O  A00 X   4      92.093  46.580  75.2390  0.00  0.00     0.000 OA
ENDBRANCH 59 66
BRANCH 62 70
ATOM     70   C  A00 X   4      95.674  42.023  71.0480  0.00  0.00     0.000 C
ATOM     71   O  A00 X   4      93.257  41.483  68.4070  0.00  0.00     0.000 OA
ATOM     72   O  A00 X   4      94.301  39.959  69.8680  0.00  0.00     0.000 OA
ATOM     73   O  A00 X   4      94.639  42.329  70.0990  0.00  0.00     0.000 O
ATOM     74   O  A00 X   4      92.505  41.383  70.6960  0.00  0.00     0.000 OA
ATOM     75   S  A00 X   4      93.585  41.212  69.7790  0.00  0.00     0.000 S
ENDBRANCH 62 70
ENDBRANCH 57 61
ENDBRANCH 41 57
ENDBRANCH 40 44
ENDBRANCH 20 40
ENDBRANCH 19 23
ENDBRANCH 1 19
TORSDOF 14
ENDMDL
MODEL 9
REMARK VINA RESULT:       0.0    107.234    111.537
ROOT
ATOM      1  C1  A00 X   1      97.810  36.408  53.2570  0.00  0.00     0.000 C
ATOM      2  C2  A00 X   1      98.550  36.359  54.6200  0.00  0.00     0.000 C
ATOM      3  C3  A00 X   1      99.058  34.952  55.0760  0.00  0.00     0.000 C
ATOM      4  C4  A00 X   1      98.453  33.744  54.3150  0.00  0.00     0.000 C
ATOM      5  C5  A00 X   1      97.113  34.085  53.6630  0.00  0.00     0.000 C
ATOM      6  O5  A00 X   1      97.425  35.124  52.7080  0.00  0.00     0.000 O
ATOM      7   O  A00 X   1      98.728  34.770  56.4520  0.00  0.00     0.000 O
ATOM      9  HD  A00 X   1      98.569  34.020  56.0500  0.00  0.00     0.000 HD
ATOM      9   O  A00 X   1      99.356  33.243  53.3300  0.00  0.00     0.000 O
ATOM     11  HD  A00 X   1      99.197  32.492  52.9280  0.00  0.00     0.000 HD
ENDROOT
BRANCH 2 11
ATOM     11   O  A00 X   1      99.672  37.260  54.5430  0.00  0.00     0.000 O
ATOM     12   O  A00 X   1     101.089  37.690  56.4340  0.00  0.00     0.000 OA
ATOM     13   O  A00 X   1      98.749  38.349  56.5250  0.00  0.00     0.000 OA
ATOM     14   O  A00 X   1     100.258  39.460  55.0600  0.00  0.00     0.000 OA
ATOM     15   S  A00 X   1      99.948  38.233  55.7410  0.00  0.00     0.000 S
ENDBRANCH 2 11
BRANCH 5 16
ATOM     16   C  A00 X   1      95.995  34.465  54.6390  0.00  0.00     0.000 C
ATOM     17   O  A00 X   1      94.969  34.936  54.1930  0.00  0.00     0.000 OA
ATOM     18   O  A00 X   1      96.096  34.305  55.8390  0.00  0.00     0.000 OA
ENDBRANCH 5 16
BRANCH 1 19
ATOM     19  O4  A00 X   2      96.700  37.339  53.2540  0.00  0.00     0.000 O
BRANCH 19 23
ATOM     20  C1  A00 X   2      97.377  38.604  49.2160  0.00  0.00     0.000 C
ATOM     21  C2  A00 X   2      97.928  39.504  50.3490  0.00  0.00     0.000 C
ATOM     22  C3  A00 X   2      97.996  38.730  51.6820  0.00  0.00     0.000 C
ATOM     23  C4  A00 X   2      96.621  38.111  52.0220  0.00  0.00     0.000 C
ATOM     24  C5  A00 X   2      96.173  37.253  50.8070  0.00  0.00     0.000 C
ATOM     25  O5  A00 X   2      96.079  38.109  49.6390  0.00  0.00     0.000 O
ATOM     26   O  A00 X   2      98.576  39.584  52.6820  0.00  0.00     0.000 O
ATOM     28  HD  A00 X   2      98.041  40.241  52.5040  0.00  0.00     0.000 HD
BRANCH 21 30
ATOM     28   N  A00 X   2      97.640  40.671  49.5100  0.00  0.00     0.000 N
ATOM     30  HD  A00 X   2      98.174  40.939  50.1370  0.00  0.00     0.000 HD
ATOM     30   O  A00 X   2      99.226  42.319  49.9860  0.00  0.00     0.000 OA
ATOM     31   S  A00 X   2      97.828  42.114  50.1280  0.00  0.00     0.000 S
ATOM     32   O  A00 X   2      97.010  42.946  49.3010  0.00  0.00     0.000 OA
ATOM     33   O  A00 X   2      97.309  42.075  51.4620  0.00  0.00     0.000 OA
ENDBRANCH 21 30
BRANCH 24 34
ATOM     34   C  A00 X   2      94.936  36.340  50.9800  0.00  0.00     0.000 C
ATOM     35   O  A00 X   2      91.856  36.695  49.0720  0.00  0.00     0.000 OA
ATOM     36   O  A00 X   2      93.768  36.922  50.3680  0.00  0.00     0.000 O
ATOM     37   O  A00 X   2      93.992  36.420  48.0940  0.00  0.00     0.000 OA
ATOM     38   S  A00 X   2      93.140  36.085  49.1940  0.00  0.00     0.000 S
ATOM     39   O  A00 X   2      93.125  34.722  49.6310  0.00  0.00     0.000 OA
ENDBRANCH 24 34
BRANCH 20 40
ATOM     40  O4  A00 X   3      98.297  37.508  49.1090  0.00  0.00     0.000 O
BRANCH 40 44
ATOM     41  C1  A00 X   3      98.795  33.941  48.7230  0.00  0.00     0.000 C
ATOM     42  C2  A00 X   3      99.929  34.975  48.8920  0.00  0.00     0.000 C
ATOM     43  C3  A00 X   3      99.768  36.145  47.8870  0.00  0.00     0.000 C
ATOM     44  C4  A00 X   3      98.382  36.777  47.8680  0.00  0.00     0.000 C
ATOM     45  C5  A00 X   3      97.298  35.676  47.6900  0.00  0.00     0.000 C
ATOM     46  O5  A00 X   3      97.495  34.589  48.6510  0.00  0.00     0.000 O
ATOM     47   O  A00 X   3     100.810  37.119  47.8930  0.00  0.00     0.000 O
ATOM     49  HD  A00 X   3     100.147  37.664  47.7830  0.00  0.00     0.000 HD
BRANCH 42 49
ATOM     49   O  A00 X   3      99.877  35.441  50.2580  0.00  0.00     0.000 O
ATOM     50   O  A00 X   3     101.061  37.040  51.5890  0.00  0.00     0.000 OA
ATOM     51   O  A00 X   3     102.282  35.667  50.1010  0.00  0.00     0.000 OA
ATOM     52   O  A00 X   3     101.266  34.663  51.9840  0.00  0.00     0.000 OA
ATOM     53   S  A00 X   3     101.191  35.726  51.0420  0.00  0.00     0.000 S
ENDBRANCH 42 49
BRANCH 45 54
ATOM     54   C  A00 X   3      97.215  35.191  46.2380  0.00  0.00     0.000 C
ATOM     55   O  A00 X   3      98.035  35.550  45.4180  0.00  0.00     0.000 OA
ATOM     56   O  A00 X   3      96.323  34.437  45.8810  0.00  0.00     0.000 OA
ENDBRANCH 45 54
BRANCH 41 57
ATOM     57  O4  A00 X   4      99.059  33.032  47.6310  0.00  0.00     0.000 O
BRANCH 57 61
ATOM     58  C1  A00 X   4      98.133  28.864  46.9880  0.00  0.00     0.000 C
ATOM     59  C2  A00 X   4      96.964  29.865  47.1660  0.00  0.00     0.000 C
ATOM     60  C3  A00 X   4      97.391  31.340  47.0270  0.00  0.00     0.000 C
ATOM     61  C4  A00 X   4      98.651  31.653  47.8620  0.00  0.00     0.000 C
ATOM     62  C5  A00 X   4      99.751  30.679  47.3720  0.00  0.00     0.000 C
ATOM     63  O5  A00 X   4      99.338  29.316  47.6470  0.00  0.00     0.000 O
BRANCH 59 66
ATOM     64   N  A00 X   4      96.389  29.751  48.5180  0.00  0.00     0.000 N
ATOM     66  HD  A00 X   4      96.912  29.482  49.1540  0.00  0.00     0.000 HD
ATOM     66   O  A00 X   4      95.127  27.864  47.7140  0.00  0.00     0.000 OA
ATOM     67   S  A00 X   4      95.051  28.894  48.7030  0.00  0.00     0.000 S
ATOM     68   O  A00 X   4      95.208  28.459  50.0600  0.00  0.00     0.000 OA
ATOM     69   O  A00 X   4      94.065  29.922  48.5240  0.00  0.00     0.000 OA
ENDBRANCH 59 66
BRANCH 62 70
ATOM     70   C  A00 X   4     101.137  30.913  48.0210  0.00  0.00     0.000 C
ATOM     71   O  A00 X   4     102.167  30.302  51.4370  0.00  0.00     0.000 OA
ATOM     72   O  A00 X   4     102.439  32.199  50.0690  0.00  0.00     0.000 OA
ATOM     73   O  A00 X   4     101.161  30.303  49.3210  0.00  0.00     0.000 O
ATOM     74   O  A00 X   4     100.258  31.722  51.0460  0.00  0.00     0.000 OA
ATOM     75   S  A00 X   4     101.497  31.214  50.5530  0.00  0.00     0.000 S
ENDBRANCH 62 70
ENDBRANCH 57 61
ENDBRANCH 41 57
ENDBRANCH 40 44
ENDBRANCH 20 40
ENDBRANCH 19 23
ENDBRANCH 1 19
TORSDOF 14
ENDMDL
MODEL 10
REMARK VINA RESULT:       0.0     69.727     73.924
ROOT
ATOM      1  C1  A00 X   1      38.032  18.756  47.0680  0.00  0.00     0.000 C
ATOM      2  C2  A00 X   1      37.046  19.596  46.2130  0.00  0.00     0.000 C
ATOM      3  C3  A00 X   1      37.083  21.143  46.4430  0.00  0.00     0.000 C
ATOM      4  C4  A00 X   1      37.814  21.611  47.7280  0.00  0.00     0.000 C
ATOM      5  C5  A00 X   1      37.883  20.509  48.7860  0.00  0.00     0.000 C
ATOM      6  O5  A00 X   1      38.660  19.457  48.1700  0.00  0.00     0.000 O
ATOM      7   O  A00 X   1      35.744  21.623  46.5420  0.00  0.00     0.000 O
ATOM      9  HD  A00 X   1      36.207  22.034  47.1470  0.00  0.00     0.000 HD
ATOM      9   O  A00 X   1      39.128  22.084  47.4370  0.00  0.00     0.000 O
ATOM     11  HD  A00 X   1      39.592  22.495  48.0420  0.00  0.00     0.000 HD
ENDROOT
BRANCH 2 11
ATOM     11   O  A00 X   1      37.323  19.321  44.8260  0.00  0.00     0.000 O
ATOM     12   O  A00 X   1      36.302  20.578  43.0530  0.00  0.00     0.000 OA
ATOM     13   O  A00 X   1      34.902  19.225  44.5120  0.00  0.00     0.000 OA
ATOM     14   O  A00 X   1      36.416  18.192  42.9950  0.00  0.00     0.000 OA
ATOM     15   S  A00 X   1      36.142  19.354  43.7960  0.00  0.00     0.000 S
ENDBRANCH 2 11
BRANCH 5 16
ATOM     16   C  A00 X   1      36.527  20.038  49.3200  0.00  0.00     0.000 C
ATOM     17   O  A00 X   1      36.487  19.029  49.9930  0.00  0.00     0.000 OA
ATOM     18   O  A00 X   1      35.495  20.640  49.1010  0.00  0.00     0.000 OA
ENDBRANCH 5 16
BRANCH 1 19
ATOM     19  O4  A00 X   2      37.467  17.494  47.4990  0.00  0.00     0.000 O
BRANCH 19 23
ATOM     20  C1  A00 X   2      41.096  15.304  46.8650  0.00  0.00     0.000 C
ATOM     21  C2  A00 X   2      40.021  15.242  45.7530  0.00  0.00     0.000 C
ATOM     22  C3  A00 X   2      38.999  16.388  45.9130  0.00  0.00     0.000 C
ATOM     23  C4  A00 X   2      38.393  16.382  47.3340  0.00  0.00     0.000 C
ATOM     24  C5  A00 X   2      39.567  16.427  48.3510  0.00  0.00     0.000 C
ATOM     25  O5  A00 X   2      40.409  15.263  48.1440  0.00  0.00     0.000 O
ATOM     26   O  A00 X   2      38.066  16.329  44.8210  0.00  0.00     0.000 O
ATOM     28  HD  A00 X   2      37.906  15.486  44.9380  0.00  0.00     0.000 HD
BRANCH 21 30
ATOM     28   N  A00 X   2      40.424  13.857  45.4910  0.00  0.00     0.000 N
ATOM     30  HD  A00 X   2      39.958  14.116  44.8080  0.00  0.00     0.000 HD
ATOM     30   O  A00 X   2      40.110  13.427  43.2160  0.00  0.00     0.000 OA
ATOM     31   S  A00 X   2      39.579  13.003  44.4630  0.00  0.00     0.000 S
ATOM     32   O  A00 X   2      39.880  11.651  44.8190  0.00  0.00     0.000 OA
ATOM     33   O  A00 X   2      38.197  13.288  44.7110  0.00  0.00     0.000 OA
ENDBRANCH 21 30
BRANCH 24 34
ATOM     34   C  A00 X   2      39.226  16.661  49.8420  0.00  0.00     0.000 C
ATOM     35   O  A00 X   2      37.016  14.523  51.7900  0.00  0.00     0.000 OA
ATOM     36   O  A00 X   2      38.077  15.889  50.2430  0.00  0.00     0.000 O
ATOM     37   O  A00 X   2      38.924  13.743  50.6300  0.00  0.00     0.000 OA
ATOM     38   S  A00 X   2      38.344  14.824  51.3680  0.00  0.00     0.000 S
ATOM     39   O  A00 X   2      39.161  15.469  52.3510  0.00  0.00     0.000 OA
ENDBRANCH 24 34
BRANCH 20 40
ATOM     40  O4  A00 X   3      41.744  16.574  46.7090  0.00  0.00     0.000 O
BRANCH 40 44
ATOM     41  C1  A00 X   3      43.022  19.560  48.3140  0.00  0.00     0.000 C
ATOM     42  C2  A00 X   3      43.029  19.308  46.7900  0.00  0.00     0.000 C
ATOM     43  C3  A00 X   3      43.649  17.926  46.4590  0.00  0.00     0.000 C
ATOM     44  C4  A00 X   3      43.067  16.764  47.2540  0.00  0.00     0.000 C
ATOM     45  C5  A00 X   3      43.100  17.090  48.7740  0.00  0.00     0.000 C
ATOM     46  O5  A00 X   3      42.515  18.406  49.0390  0.00  0.00     0.000 O
ATOM     47   O  A00 X   3      43.786  17.622  45.0720  0.00  0.00     0.000 O
ATOM     49  HD  A00 X   3      43.548  16.832  45.3370  0.00  0.00     0.000 HD
BRANCH 42 49
ATOM     49   O  A00 X   3      41.658  19.393  46.3420  0.00  0.00     0.000 O
ATOM     50   O  A00 X   3      40.494  19.121  44.2680  0.00  0.00     0.000 OA
ATOM     51   O  A00 X   3      42.561  20.269  44.2740  0.00  0.00     0.000 OA
ATOM     52   O  A00 X   3      40.705  21.285  45.3270  0.00  0.00     0.000 OA
ATOM     53   S  A00 X   3      41.319  20.052  44.9730  0.00  0.00     0.000 S
ENDBRANCH 42 49
BRANCH 45 54
ATOM     54   C  A00 X   3      44.508  16.926  49.3590  0.00  0.00     0.000 C
ATOM     55   O  A00 X   3      45.471  16.809  48.6300  0.00  0.00     0.000 OA
ATOM     56   O  A00 X   3      44.685  16.909  50.5670  0.00  0.00     0.000 OA
ENDBRANCH 45 54
BRANCH 41 57
ATOM     57  O4  A00 X   4      44.306  20.030  48.7820  0.00  0.00     0.000 O
BRANCH 57 61
ATOM     58  C1  A00 X   4      45.473  22.713  51.9570  0.00  0.00     0.000 C
ATOM     59  C2  A00 X   4      44.714  21.414  52.3260  0.00  0.00     0.000 C
ATOM     60  C3  A00 X   4      44.671  20.381  51.1810  0.00  0.00     0.000 C
ATOM     61  C4  A00 X   4      44.250  21.026  49.8430  0.00  0.00     0.000 C
ATOM     62  C5  A00 X   4      45.267  22.161  49.5670  0.00  0.00     0.000 C
ATOM     63  O5  A00 X   4      45.166  23.158  50.6160  0.00  0.00     0.000 O
BRANCH 59 66
ATOM     64   N  A00 X   4      43.309  21.742  52.6260  0.00  0.00     0.000 N
ATOM     66  HD  A00 X   4      42.972  22.444  52.2460  0.00  0.00     0.000 HD
ATOM     66   O  A00 X   4      44.028  22.342  54.8450  0.00  0.00     0.000 OA
ATOM     67   S  A00 X   4      42.870  21.860  54.1600  0.00  0.00     0.000 S
ATOM     68   O  A00 X   4      41.786  22.792  54.0480  0.00  0.00     0.000 OA
ATOM     69   O  A00 X   4      42.458  20.507  54.4090  0.00  0.00     0.000 OA
ENDBRANCH 59 66
BRANCH 62 70
ATOM     70   C  A00 X   4      45.076  22.863  48.2020  0.00  0.00     0.000 C
ATOM     71   O  A00 X   4      42.381  25.030  47.1310  0.00  0.00     0.000 OA
ATOM     72   O  A00 X   4      43.355  23.160  46.0820  0.00  0.00     0.000 OA
ATOM     73   O  A00 X   4      44.005  23.815  48.3030  0.00  0.00     0.000 O
ATOM     74   O  A00 X   4      41.833  22.832  47.9570  0.00  0.00     0.000 OA
ATOM     75   S  A00 X   4      42.796  23.668  47.3160  0.00  0.00     0.000 S
ENDBRANCH 62 70
ENDBRANCH 57 61
ENDBRANCH 41 57
ENDBRANCH 40 44
ENDBRANCH 20 40
ENDBRANCH 19 23
ENDBRANCH 1 19
TORSDOF 14
ENDMDL
MODEL 11
REMARK VINA RESULT:       0.0     78.290     84.099
ROOT
ATOM      1  C1  A00 X   1      25.501  32.399  30.4120  0.00  0.00     0.000 C
ATOM      2  C2  A00 X   1      26.546  33.409  30.9550  0.00  0.00     0.000 C
ATOM      3  C3  A00 X   1      26.319  33.912  32.4190  0.00  0.00     0.000 C
ATOM      4  C4  A00 X   1      24.911  33.640  33.0080  0.00  0.00     0.000 C
ATOM      5  C5  A00 X   1      23.858  33.437  31.9180  0.00  0.00     0.000 C
ATOM      6  O5  A00 X   1      24.294  32.260  31.2020  0.00  0.00     0.000 O
ATOM      7   O  A00 X   1      26.505  35.326  32.4510  0.00  0.00     0.000 O
ATOM      9  HD  A00 X   1      25.817  35.147  32.9470  0.00  0.00     0.000 HD
ATOM      9   O  A00 X   1      24.921  32.514  33.8850  0.00  0.00     0.000 O
ATOM     11  HD  A00 X   1      24.233  32.335  34.3810  0.00  0.00     0.000 HD
ENDROOT
BRANCH 2 11
ATOM     11   O  A00 X   1      27.843  32.788  30.8690  0.00  0.00     0.000 O
ATOM     12   O  A00 X   1      29.803  33.800  31.8190  0.00  0.00     0.000 OA
ATOM     13   O  A00 X   1      28.648  34.922  29.9960  0.00  0.00     0.000 OA
ATOM     14   O  A00 X   1      29.809  32.882  29.6120  0.00  0.00     0.000 OA
ATOM     15   S  A00 X   1      29.095  33.683  30.5700  0.00  0.00     0.000 S
ENDBRANCH 2 11
BRANCH 5 16
ATOM     16   C  A00 X   1      23.619  34.651  31.0150  0.00  0.00     0.000 C
ATOM     17   O  A00 X   1      22.962  34.503  30.0050  0.00  0.00     0.000 OA
ATOM     18   O  A00 X   1      24.055  35.754  31.2770  0.00  0.00     0.000 OA
ENDBRANCH 5 16
BRANCH 1 19
ATOM     19  O4  A00 X   2      25.195  32.608  29.0110  0.00  0.00     0.000 O
BRANCH 19 23
ATOM     20  C1  A00 X   2      25.013  28.422  28.1110  0.00  0.00     0.000 C
ATOM     21  C2  A00 X   2      26.331  29.166  27.7880  0.00  0.00     0.000 C
ATOM     22  C3  A00 X   2      26.404  30.509  28.5440  0.00  0.00     0.000 C
ATOM     23  C4  A00 X   2      25.148  31.362  28.2580  0.00  0.00     0.000 C
ATOM     24  C5  A00 X   2      23.901  30.503  28.6020  0.00  0.00     0.000 C
ATOM     25  O5  A00 X   2      23.913  29.310  27.7760  0.00  0.00     0.000 O
ATOM     26   O  A00 X   2      27.672  31.127  28.2660  0.00  0.00     0.000 O
ATOM     28  HD  A00 X   2      27.588  31.030  27.4090  0.00  0.00     0.000 HD
BRANCH 21 30
ATOM     28   N  A00 X   2      26.492  28.297  26.6180  0.00  0.00     0.000 N
ATOM     30  HD  A00 X   2      27.261  28.669  26.7620  0.00  0.00     0.000 HD
ATOM     30   O  A00 X   2      28.778  27.977  26.2580  0.00  0.00     0.000 OA
ATOM     31   S  A00 X   2      27.674  28.592  25.6110  0.00  0.00     0.000 S
ATOM     32   O  A00 X   2      27.253  27.957  24.4000  0.00  0.00     0.000 OA
ATOM     33   O  A00 X   2      27.733  30.012  25.4330  0.00  0.00     0.000 OA
ENDBRANCH 21 30
BRANCH 24 34
ATOM     34   C  A00 X   2      22.521  31.201  28.6220  0.00  0.00     0.000 C
ATOM     35   O  A00 X   2      21.080  32.956  25.7760  0.00  0.00     0.000 OA
ATOM     36   O  A00 X   2      22.372  32.096  27.5020  0.00  0.00     0.000 O
ATOM     37   O  A00 X   2      21.794  30.702  25.7160  0.00  0.00     0.000 OA
ATOM     38   S  A00 X   2      21.207  31.739  26.5080  0.00  0.00     0.000 S
ATOM     39   O  A00 X   2      20.076  31.396  27.3170  0.00  0.00     0.000 OA
ENDBRANCH 24 34
BRANCH 20 40
ATOM     40  O4  A00 X   3      25.032  28.196  29.5280  0.00  0.00     0.000 O
BRANCH 40 44
ATOM     41  C1  A00 X   3      23.205  28.287  32.6550  0.00  0.00     0.000 C
ATOM     42  C2  A00 X   3      24.691  27.892  32.5150  0.00  0.00     0.000 C
ATOM     43  C3  A00 X   3      24.878  26.811  31.4200  0.00  0.00     0.000 C
ATOM     44  C4  A00 X   3      24.220  27.141  30.0860  0.00  0.00     0.000 C
ATOM     45  C5  A00 X   3      22.729  27.522  30.3080  0.00  0.00     0.000 C
ATOM     46  O5  A00 X   3      22.599  28.536  31.3570  0.00  0.00     0.000 O
ATOM     47   O  A00 X   3      26.203  26.306  31.2620  0.00  0.00     0.000 O
ATOM     49  HD  A00 X   3      25.991  26.329  30.4230  0.00  0.00     0.000 HD
BRANCH 42 49
ATOM     49   O  A00 X   3      25.421  29.098  32.1970  0.00  0.00     0.000 O
ATOM     50   O  A00 X   3      27.694  29.670  31.7110  0.00  0.00     0.000 OA
ATOM     51   O  A00 X   3      27.252  28.124  33.4440  0.00  0.00     0.000 OA
ATOM     52   O  A00 X   3      26.620  30.379  33.7580  0.00  0.00     0.000 OA
ATOM     53   S  A00 X   3      26.833  29.346  32.8040  0.00  0.00     0.000 S
ENDBRANCH 42 49
BRANCH 45 54
ATOM     54   C  A00 X   3      21.858  26.284  30.5550  0.00  0.00     0.000 C
ATOM     55   O  A00 X   3      20.646  26.364  30.5260  0.00  0.00     0.000 OA
ATOM     56   O  A00 X   3      22.365  25.198  30.7870  0.00  0.00     0.000 OA
ENDBRANCH 45 54
BRANCH 41 57
ATOM     57  O4  A00 X   4      22.477  27.342  33.4710  0.00  0.00     0.000 O
BRANCH 57 61
ATOM     58  C1  A00 X   4      19.151  27.762  36.1920  0.00  0.00     0.000 C
ATOM     59  C2  A00 X   4      18.942  28.133  34.7030  0.00  0.00     0.000 C
ATOM     60  C3  A00 X   4      20.059  27.612  33.7770  0.00  0.00     0.000 C
ATOM     61  C4  A00 X   4      21.462  27.927  34.3370  0.00  0.00     0.000 C
ATOM     62  C5  A00 X   4      21.524  27.284  35.7450  0.00  0.00     0.000 C
ATOM     63  O5  A00 X   4      20.531  27.909  36.5980  0.00  0.00     0.000 O
BRANCH 59 66
ATOM     64   N  A00 X   4      18.952  29.600  34.5570  0.00  0.00     0.000 N
ATOM     66  HD  A00 X   4      19.404  30.057  35.1380  0.00  0.00     0.000 HD
ATOM     66   O  A00 X   4      16.638  29.583  35.2240  0.00  0.00     0.000 OA
ATOM     67   S  A00 X   4      17.549  30.360  34.4430  0.00  0.00     0.000 S
ATOM     68   O  A00 X   4      17.901  31.636  34.9940  0.00  0.00     0.000 OA
ATOM     69   O  A00 X   4      17.377  30.362  33.0180  0.00  0.00     0.000 OA
ENDBRANCH 59 66
BRANCH 62 70
ATOM     70   C  A00 X   4      22.905  27.399  36.4320  0.00  0.00     0.000 C
ATOM     71   O  A00 X   4      24.553  30.355  37.7180  0.00  0.00     0.000 OA
ATOM     72   O  A00 X   4      25.349  28.647  36.3070  0.00  0.00     0.000 OA
ATOM     73   O  A00 X   4      23.046  28.712  36.9990  0.00  0.00     0.000 O
ATOM     74   O  A00 X   4      23.843  30.342  35.4140  0.00  0.00     0.000 OA
ATOM     75   S  A00 X   4      24.270  29.580  36.5430  0.00  0.00     0.000 S
ENDBRANCH 62 70
ENDBRANCH 57 61
ENDBRANCH 41 57
ENDBRANCH 40 44
ENDBRANCH 20 40
ENDBRANCH 19 23
ENDBRANCH 1 19
TORSDOF 14
ENDMDL
MODEL 12
REMARK VINA RESULT:       0.0     79.363     83.636
ROOT
ATOM      1  C1  A00 X   1      32.695  40.780  37.0920  0.00  0.00     0.000 C
ATOM      2  C2  A00 X   1      33.349  40.887  38.4950  0.00  0.00     0.000 C
ATOM      3  C3  A00 X   1      33.087  39.692  39.4690  0.00  0.00     0.000 C
ATOM      4  C4  A00 X   1      31.930  38.742  39.0650  0.00  0.00     0.000 C
ATOM      5  C5  A00 X   1      30.929  39.418  38.1270  0.00  0.00     0.000 C
ATOM      6  O5  A00 X   1      31.695  39.742  36.9450  0.00  0.00     0.000 O
ATOM      7   O  A00 X   1      32.752  40.213  40.7530  0.00  0.00     0.000 O
ATOM      9  HD  A00 X   1      32.223  39.545  40.6030  0.00  0.00     0.000 HD
ATOM      9   O  A00 X   1      32.423  37.546  38.4630  0.00  0.00     0.000 O
ATOM     11  HD  A00 X   1      31.893  36.877  38.3120  0.00  0.00     0.000 HD
ENDROOT
BRANCH 2 11
ATOM     11   O  A00 X   1      34.770  41.035  38.3060  0.00  0.00     0.000 O
ATOM     12   O  A00 X   1      36.271  41.349  40.1550  0.00  0.00     0.000 OA
ATOM     13   O  A00 X   1      34.597  43.048  39.6790  0.00  0.00     0.000 OA
ATOM     14   O  A00 X   1      36.411  42.692  38.1820  0.00  0.00     0.000 OA
ATOM     15   S  A00 X   1      35.542  42.098  39.1620  0.00  0.00     0.000 S
ENDBRANCH 2 11
BRANCH 5 16
ATOM     16   C  A00 X   1      30.189  40.618  38.7260  0.00  0.00     0.000 C
ATOM     17   O  A00 X   1      29.543  41.331  37.9860  0.00  0.00     0.000 OA
ATOM     18   O  A00 X   1      30.219  40.876  39.9130  0.00  0.00     0.000 OA
ENDBRANCH 5 16
BRANCH 1 19
ATOM     19  O4  A00 X   2      32.211  42.053  36.5990  0.00  0.00     0.000 O
BRANCH 19 23
ATOM     20  C1  A00 X   2      33.350  41.258  32.5450  0.00  0.00     0.000 C
ATOM     21  C2  A00 X   2      34.298  42.139  33.3940  0.00  0.00     0.000 C
ATOM     22  C3  A00 X   2      33.997  41.979  34.8990  0.00  0.00     0.000 C
ATOM     23  C4  A00 X   2      32.504  42.254  35.1870  0.00  0.00     0.000 C
ATOM     24  C5  A00 X   2      31.664  41.328  34.2650  0.00  0.00     0.000 C
ATOM     25  O5  A00 X   2      31.986  41.628  32.8820  0.00  0.00     0.000 O
ATOM     26   O  A00 X   2      34.946  42.760  35.6450  0.00  0.00     0.000 O
ATOM     28  HD  A00 X   2      34.806  43.472  35.1730  0.00  0.00     0.000 HD
BRANCH 21 30
ATOM     28   N  A00 X   2      34.614  42.901  32.1820  0.00  0.00     0.000 N
ATOM     30  HD  A00 X   2      35.223  43.096  32.7660  0.00  0.00     0.000 HD
ATOM     30   O  A00 X   2      36.821  43.651  32.3490  0.00  0.00     0.000 OA
ATOM     31   S  A00 X   2      35.510  44.197  32.3130  0.00  0.00     0.000 S
ATOM     32   O  A00 X   2      35.199  44.944  31.1340  0.00  0.00     0.000 OA
ATOM     33   O  A00 X   2      35.068  44.901  33.4790  0.00  0.00     0.000 OA
ENDBRANCH 21 30
BRANCH 24 34
ATOM     34   C  A00 X   2      30.140  41.242  34.5180  0.00  0.00     0.000 C
ATOM     35   O  A00 X   2      27.890  44.103  34.4190  0.00  0.00     0.000 OA
ATOM     36   O  A00 X   2      29.577  42.546  34.7640  0.00  0.00     0.000 O
ATOM     37   O  A00 X   2      29.310  43.476  32.6350  0.00  0.00     0.000 OA
ATOM     38   S  A00 X   2      28.499  43.018  33.7210  0.00  0.00     0.000 S
ATOM     39   O  A00 X   2      27.645  41.894  33.4840  0.00  0.00     0.000 OA
ENDBRANCH 24 34
BRANCH 20 40
ATOM     40  O4  A00 X   3      33.598  39.908  32.9620  0.00  0.00     0.000 O
BRANCH 40 44
ATOM     41  C1  A00 X   3      32.170  36.717  33.9130  0.00  0.00     0.000 C
ATOM     42  C2  A00 X   3      33.681  37.037  33.9010  0.00  0.00     0.000 C
ATOM     43  C3  A00 X   3      34.107  37.653  32.5440  0.00  0.00     0.000 C
ATOM     44  C4  A00 X   3      33.246  38.821  32.0790  0.00  0.00     0.000 C
ATOM     45  C5  A00 X   3      31.744  38.421  32.1140  0.00  0.00     0.000 C
ATOM     46  O5  A00 X   3      31.388  37.835  33.4080  0.00  0.00     0.000 O
ATOM     47   O  A00 X   3      35.501  37.909  32.3870  0.00  0.00     0.000 O
ATOM     49  HD  A00 X   3      35.211  38.621  31.9880  0.00  0.00     0.000 HD
BRANCH 42 49
ATOM     49   O  A00 X   3      33.929  37.947  34.9950  0.00  0.00     0.000 O
ATOM     50   O  A00 X   3      35.818  39.125  35.8730  0.00  0.00     0.000 OA
ATOM     51   O  A00 X   3      36.096  36.885  35.1720  0.00  0.00     0.000 OA
ATOM     52   O  A00 X   3      34.781  37.310  37.0890  0.00  0.00     0.000 OA
ATOM     53   S  A00 X   3      35.230  37.823  35.8400  0.00  0.00     0.000 S
ENDBRANCH 42 49
BRANCH 45 54
ATOM     54   C  A00 X   3      31.366  37.530  30.9250  0.00  0.00     0.000 C
ATOM     55   O  A00 X   3      30.203  37.278  30.6850  0.00  0.00     0.000 OA
ATOM     56   O  A00 X   3      32.228  37.057  30.1990  0.00  0.00     0.000 OA
ENDBRANCH 45 54
BRANCH 41 57
ATOM     57  O4  A00 X   4      31.885  35.460  33.2590  0.00  0.00     0.000 O
BRANCH 57 61
ATOM     58  C1  A00 X   4      28.899  32.415  33.9310  0.00  0.00     0.000 C
ATOM     59  C2  A00 X   4      28.429  33.852  33.5890  0.00  0.00     0.000 C
ATOM     60  C3  A00 X   4      29.551  34.747  33.0250  0.00  0.00     0.000 C
ATOM     61  C4  A00 X   4      30.835  34.665  33.8790  0.00  0.00     0.000 C
ATOM     62  C5  A00 X   4      31.241  33.171  33.9120  0.00  0.00     0.000 C
ATOM     63  O5  A00 X   4      30.197  32.406  34.5670  0.00  0.00     0.000 O
BRANCH 59 66
ATOM     64   N  A00 X   4      27.959  34.528  34.8120  0.00  0.00     0.000 N
ATOM     66  HD  A00 X   4      28.302  34.275  35.5660  0.00  0.00     0.000 HD
ATOM     66   O  A00 X   4      25.855  33.399  34.5070  0.00  0.00     0.000 OA
ATOM     67   S  A00 X   4      26.384  34.595  35.0820  0.00  0.00     0.000 S
ATOM     68   O  A00 X   4      26.370  34.650  36.5150  0.00  0.00     0.000 OA
ATOM     69   O  A00 X   4      26.071  35.842  34.4430  0.00  0.00     0.000 OA
ENDBRANCH 59 66
BRANCH 62 70
ATOM     70   C  A00 X   4      32.580  32.896  34.6380  0.00  0.00     0.000 C
ATOM     71   O  A00 X   4      33.328  33.136  38.1720  0.00  0.00     0.000 OA
ATOM     72   O  A00 X   4      34.469  33.997  36.3000  0.00  0.00     0.000 OA
ATOM     73   O  A00 X   4      32.356  32.874  36.0570  0.00  0.00     0.000 O
ATOM     74   O  A00 X   4      32.413  35.067  37.0540  0.00  0.00     0.000 OA
ATOM     75   S  A00 X   4      33.181  33.868  36.9450  0.00  0.00     0.000 S
ENDBRANCH 62 70
ENDBRANCH 57 61
ENDBRANCH 41 57
ENDBRANCH 40 44
ENDBRANCH 20 40
ENDBRANCH 19 23
ENDBRANCH 1 19
TORSDOF 14
ENDMDL
MODEL 13
REMARK VINA RESULT:       0.0     91.116     95.563
ROOT
ATOM      1  C1  A00 X   1      46.684  81.634  48.4010  0.00  0.00     0.000 C
ATOM      2  C2  A00 X   1      45.331  82.316  48.0660  0.00  0.00     0.000 C
ATOM      3  C3  A00 X   1      44.670  83.136  49.2220  0.00  0.00     0.000 C
ATOM      4  C4  A00 X   1      45.239  82.871  50.6400  0.00  0.00     0.000 C
ATOM      5  C5  A00 X   1      45.932  81.512  50.7390  0.00  0.00     0.000 C
ATOM      6  O5  A00 X   1      47.033  81.593  49.8070  0.00  0.00     0.000 O
ATOM      7   O  A00 X   1      43.282  82.813  49.2760  0.00  0.00     0.000 O
ATOM      9  HD  A00 X   1      43.566  82.856  50.0930  0.00  0.00     0.000 HD
ATOM      9   O  A00 X   1      46.140  83.903  51.0410  0.00  0.00     0.000 O
ATOM     11  HD  A00 X   1      46.425  83.946  51.8580  0.00  0.00     0.000 HD
ENDROOT
BRANCH 2 11
ATOM     11   O  A00 X   1      45.546  83.186  46.9370  0.00  0.00     0.000 O
ATOM     12   O  A00 X   1      43.851  84.699  46.1590  0.00  0.00     0.000 OA
ATOM     13   O  A00 X   1      43.452  82.302  46.0420  0.00  0.00     0.000 OA
ATOM     14   O  A00 X   1      45.091  83.320  44.6510  0.00  0.00     0.000 OA
ATOM     15   S  A00 X   1      44.386  83.385  45.9020  0.00  0.00     0.000 S
ENDBRANCH 2 11
BRANCH 5 16
ATOM     16   C  A00 X   1      45.021  80.302  50.5080  0.00  0.00     0.000 C
ATOM     17   O  A00 X   1      45.531  79.211  50.3590  0.00  0.00     0.000 OA
ATOM     18   O  A00 X   1      43.810  80.395  50.4770  0.00  0.00     0.000 OA
ENDBRANCH 5 16
BRANCH 1 19
ATOM     19  O4  A00 X   2      46.824  80.331  47.7840  0.00  0.00     0.000 O
BRANCH 19 23
ATOM     20  C1  A00 X   2      50.965  80.888  46.8310  0.00  0.00     0.000 C
ATOM     21  C2  A00 X   2      49.932  81.148  45.7080  0.00  0.00     0.000 C
ATOM     22  C3  A00 X   2      48.517  81.332  46.2940  0.00  0.00     0.000 C
ATOM     23  C4  A00 X   2      48.139  80.131  47.1910  0.00  0.00     0.000 C
ATOM     24  C5  A00 X   2      49.256  79.966  48.2580  0.00  0.00     0.000 C
ATOM     25  O5  A00 X   2      50.517  79.728  47.5810  0.00  0.00     0.000 O
ATOM     26   O  A00 X   2      47.609  81.637  45.2220  0.00  0.00     0.000 O
ATOM     28  HD  A00 X   2      47.876  80.969  44.7390  0.00  0.00     0.000 HD
BRANCH 21 30
ATOM     28   N  A00 X   2      50.907  80.629  44.7430  0.00  0.00     0.000 N
ATOM     30  HD  A00 X   2      50.304  81.051  44.2870  0.00  0.00     0.000 HD
ATOM     30   O  A00 X   2      50.590  81.746  42.7160  0.00  0.00     0.000 OA
ATOM     31   S  A00 X   2      50.457  80.433  43.2410  0.00  0.00     0.000 S
ATOM     32   O  A00 X   2      51.393  79.480  42.7280  0.00  0.00     0.000 OA
ATOM     33   O  A00 X   2      49.139  79.873  43.2630  0.00  0.00     0.000 OA
ENDBRANCH 21 30
BRANCH 24 34
ATOM     34   C  A00 X   2      49.007  78.979  49.4220  0.00  0.00     0.000 C
ATOM     35   O  A00 X   2      48.282  75.438  48.9750  0.00  0.00     0.000 OA
ATOM     36   O  A00 X   2      48.405  77.756  48.9510  0.00  0.00     0.000 O
ATOM     37   O  A00 X   2      50.196  76.516  48.1000  0.00  0.00     0.000 OA
ATOM     38   S  A00 X   2      49.259  76.456  49.1800  0.00  0.00     0.000 S
ATOM     39   O  A00 X   2      49.777  76.541  50.5120  0.00  0.00     0.000 OA
ENDBRANCH 24 34
BRANCH 20 40
ATOM     40  O4  A00 X   3      50.922  82.049  47.6730  0.00  0.00     0.000 O
BRANCH 40 44
ATOM     41  C1  A00 X   3      50.829  83.379  51.0420  0.00  0.00     0.000 C
ATOM     42  C2  A00 X   3      50.785  84.234  49.7570  0.00  0.00     0.000 C
ATOM     43  C3  A00 X   3      51.937  83.847  48.7940  0.00  0.00     0.000 C
ATOM     44  C4  A00 X   3      52.055  82.354  48.5140  0.00  0.00     0.000 C
ATOM     45  C5  A00 X   3      52.098  81.564  49.8520  0.00  0.00     0.000 C
ATOM     46  O5  A00 X   3      51.000  81.968  50.7330  0.00  0.00     0.000 O
ATOM     47   O  A00 X   3      52.048  84.633  47.6090  0.00  0.00     0.000 O
ATOM     49  HD  A00 X   3      52.236  83.866  47.2530  0.00  0.00     0.000 HD
BRANCH 42 49
ATOM     49   O  A00 X   3      49.493  84.017  49.1480  0.00  0.00     0.000 O
ATOM     50   O  A00 X   3      48.365  84.754  47.1700  0.00  0.00     0.000 OA
ATOM     51   O  A00 X   3      49.640  86.316  48.4050  0.00  0.00     0.000 OA
ATOM     52   O  A00 X   3      47.658  85.465  49.3700  0.00  0.00     0.000 OA
ATOM     53   S  A00 X   3      48.733  85.198  48.4780  0.00  0.00     0.000 S
ENDBRANCH 42 49
BRANCH 45 54
ATOM     54   C  A00 X   3      53.474  81.657  50.5220  0.00  0.00     0.000 C
ATOM     55   O  A00 X   3      53.742  80.965  51.4840  0.00  0.00     0.000 OA
ATOM     56   O  A00 X   3      54.324  82.427  50.1020  0.00  0.00     0.000 OA
ENDBRANCH 45 54
BRANCH 41 57
ATOM     57  O4  A00 X   4      51.788  83.893  51.9930  0.00  0.00     0.000 O
BRANCH 57 61
ATOM     58  C1  A00 X   4      51.893  83.976  56.3080  0.00  0.00     0.000 C
ATOM     59  C2  A00 X   4      51.863  82.602  55.5940  0.00  0.00     0.000 C
ATOM     60  C3  A00 X   4      52.188  82.684  54.0880  0.00  0.00     0.000 C
ATOM     61  C4  A00 X   4      51.384  83.802  53.3890  0.00  0.00     0.000 C
ATOM     62  C5  A00 X   4      51.727  85.116  54.1330  0.00  0.00     0.000 C
ATOM     63  O5  A00 X   4      51.282  85.016  55.5090  0.00  0.00     0.000 O
BRANCH 59 66
ATOM     64   N  A00 X   4      50.510  82.022  55.6750  0.00  0.00     0.000 N
ATOM     66  HD  A00 X   4      49.843  82.571  55.7380  0.00  0.00     0.000 HD
ATOM     66   O  A00 X   4      51.081  81.251  57.8840  0.00  0.00     0.000 OA
ATOM     67   S  A00 X   4      50.228  80.909  56.7890  0.00  0.00     0.000 S
ATOM     68   O  A00 X   4      48.827  81.115  57.0110  0.00  0.00     0.000 OA
ATOM     69   O  A00 X   4      50.538  79.722  56.0440  0.00  0.00     0.000 OA
ENDBRANCH 59 66
BRANCH 62 70
ATOM     70   C  A00 X   4      51.097  86.382  53.5030  0.00  0.00     0.000 C
ATOM     71   O  A00 X   4      47.616  87.372  53.4210  0.00  0.00     0.000 OA
ATOM     72   O  A00 X   4      49.221  87.264  51.7020  0.00  0.00     0.000 OA
ATOM     73   O  A00 X   4      49.727  86.487  53.9210  0.00  0.00     0.000 O
ATOM     74   O  A00 X   4      48.220  85.208  52.5440  0.00  0.00     0.000 OA
ATOM     75   S  A00 X   4      48.623  86.551  52.8090  0.00  0.00     0.000 S
ENDBRANCH 62 70
ENDBRANCH 57 61
ENDBRANCH 41 57
ENDBRANCH 40 44
ENDBRANCH 20 40
ENDBRANCH 19 23
ENDBRANCH 1 19
TORSDOF 14
ENDMDL
MODEL 14
REMARK VINA RESULT:       0.0    112.180    115.880
ROOT
ATOM      1  C1  A00 X   1      36.445  96.191  25.9640  0.00  0.00     0.000 C
ATOM      2  C2  A00 X   1      34.937  96.354  25.6320  0.00  0.00     0.000 C
ATOM      3  C3  A00 X   1      34.357  95.363  24.5690  0.00  0.00     0.000 C
ATOM      4  C4  A00 X   1      35.408  94.601  23.7220  0.00  0.00     0.000 C
ATOM      5  C5  A00 X   1      36.754  95.324  23.6840  0.00  0.00     0.000 C
ATOM      6  O5  A00 X   1      37.198  95.346  25.0590  0.00  0.00     0.000 O
ATOM      7   O  A00 X   1      33.551  96.098  23.6510  0.00  0.00     0.000 O
ATOM      9  HD  A00 X   1      34.009  95.526  23.1880  0.00  0.00     0.000 HD
ATOM      9   O  A00 X   1      35.591  93.266  24.1940  0.00  0.00     0.000 O
ATOM     11  HD  A00 X   1      36.048  92.694  23.7320  0.00  0.00     0.000 HD
ENDROOT
BRANCH 2 11
ATOM     11   O  A00 X   1      34.199  96.210  26.8600  0.00  0.00     0.000 O
ATOM     12   O  A00 X   1      31.800  96.114  26.8970  0.00  0.00     0.000 OA
ATOM     13   O  A00 X   1      32.898  98.146  26.1360  0.00  0.00     0.000 OA
ATOM     14   O  A00 X   1      33.024  97.491  28.4190  0.00  0.00     0.000 OA
ATOM     15   S  A00 X   1      32.887  97.045  27.0590  0.00  0.00     0.000 S
ENDBRANCH 2 11
BRANCH 5 16
ATOM     16   C  A00 X   1      36.727  96.708  23.0260  0.00  0.00     0.000 C
ATOM     17   O  A00 X   1      37.701  97.423  23.1380  0.00  0.00     0.000 OA
ATOM     18   O  A00 X   1      35.771  97.110  22.3920  0.00  0.00     0.000 OA
ENDBRANCH 5 16
BRANCH 1 19
ATOM     19  O4  A00 X   2      37.111  97.458  26.1820  0.00  0.00     0.000 O
BRANCH 19 23
ATOM     20  C1  A00 X   2      39.489  95.993  29.4330  0.00  0.00     0.000 C
ATOM     21  C2  A00 X   2      38.205  96.782  29.7860  0.00  0.00     0.000 C
ATOM     22  C3  A00 X   2      37.256  96.860  28.5710  0.00  0.00     0.000 C
ATOM     23  C4  A00 X   2      37.994  97.433  27.3400  0.00  0.00     0.000 C
ATOM     24  C5  A00 X   2      39.264  96.571  27.1040  0.00  0.00     0.000 C
ATOM     25  O5  A00 X   2      40.103  96.641  28.2870  0.00  0.00     0.000 O
ATOM     26   O  A00 X   2      36.054  97.540  28.9680  0.00  0.00     0.000 O
ATOM     28  HD  A00 X   2      36.485  98.205  29.3180  0.00  0.00     0.000 HD
BRANCH 21 30
ATOM     28   N  A00 X   2      38.905  97.326  30.9540  0.00  0.00     0.000 N
ATOM     30  HD  A00 X   2      38.061  97.475  31.0760  0.00  0.00     0.000 HD
ATOM     30   O  A00 X   2      37.332  97.678  32.6450  0.00  0.00     0.000 OA
ATOM     31   S  A00 X   2      38.191  98.444  31.8130  0.00  0.00     0.000 S
ATOM     32   O  A00 X   2      39.271  99.091  32.4920  0.00  0.00     0.000 OA
ATOM     33   O  A00 X   2      37.568  99.350  30.8950  0.00  0.00     0.000 OA
ENDBRANCH 21 30
BRANCH 24 34
ATOM     34   C  A00 X   2      40.058  96.792  25.7950  0.00  0.00     0.000 C
ATOM     35   O  A00 X   2      41.468  99.992  24.7800  0.00  0.00     0.000 OA
ATOM     36   O  A00 X   2      40.181  98.196  25.4890  0.00  0.00     0.000 O
ATOM     37   O  A00 X   2      41.938  98.936  26.8430  0.00  0.00     0.000 OA
ATOM     38   S  A00 X   2      41.652  98.749  25.4530  0.00  0.00     0.000 S
ATOM     39   O  A00 X   2      42.431  97.782  24.7400  0.00  0.00     0.000 OA
ENDBRANCH 24 34
BRANCH 20 40
ATOM     40  O4  A00 X   3      39.047  94.679  29.0620  0.00  0.00     0.000 O
BRANCH 40 44
ATOM     41  C1  A00 X   3      39.318  91.936  26.7110  0.00  0.00     0.000 C
ATOM     42  C2  A00 X   3      38.349  91.973  27.9130  0.00  0.00     0.000 C
ATOM     43  C3  A00 X   3      39.100  92.336  29.2200  0.00  0.00     0.000 C
ATOM     44  C4  A00 X   3      39.978  93.577  29.1220  0.00  0.00     0.000 C
ATOM     45  C5  A00 X   3      40.925  93.464  27.8950  0.00  0.00     0.000 C
ATOM     46  O5  A00 X   3      40.177  93.110  26.6870  0.00  0.00     0.000 O
ATOM     47   O  A00 X   3      38.319  92.314  30.4130  0.00  0.00     0.000 O
ATOM     49  HD  A00 X   3      38.792  93.015  30.6010  0.00  0.00     0.000 HD
BRANCH 42 49
ATOM     49   O  A00 X   3      37.327  92.945  27.6030  0.00  0.00     0.000 O
ATOM     50   O  A00 X   3      35.412  93.858  28.7110  0.00  0.00     0.000 OA
ATOM     51   O  A00 X   3      35.830  91.537  28.8800  0.00  0.00     0.000 OA
ATOM     52   O  A00 X   3      35.192  92.417  26.7820  0.00  0.00     0.000 OA
ATOM     53   S  A00 X   3      35.848  92.689  28.0140  0.00  0.00     0.000 S
ENDBRANCH 42 49
BRANCH 45 54
ATOM     54   C  A00 X   3      42.103  92.522  28.1720  0.00  0.00     0.000 C
ATOM     55   O  A00 X   3      43.036  92.453  27.3990  0.00  0.00     0.000 OA
ATOM     56   O  A00 X   3      42.123  91.824  29.1740  0.00  0.00     0.000 OA
ENDBRANCH 45 54
BRANCH 41 57
ATOM     57  O4  A00 X   4      40.035  90.683  26.6400  0.00  0.00     0.000 O
BRANCH 57 61
ATOM     58  C1  A00 X   4      41.522  88.331  23.3400  0.00  0.00     0.000 C
ATOM     59  C2  A00 X   4      42.075  89.764  23.5370  0.00  0.00     0.000 C
ATOM     60  C3  A00 X   4      41.754  90.362  24.9220  0.00  0.00     0.000 C
ATOM     61  C4  A00 X   4      40.267  90.179  25.2950  0.00  0.00     0.000 C
ATOM     62  C5  A00 X   4      39.988  88.656  25.2370  0.00  0.00     0.000 C
ATOM     63  O5  A00 X   4      40.189  88.185  23.8800  0.00  0.00     0.000 O
BRANCH 59 66
ATOM     64   N  A00 X   4      41.595  90.813  22.6190  0.00  0.00     0.000 N
ATOM     66  HD  A00 X   4      40.783  90.747  22.3270  0.00  0.00     0.000 HD
ATOM     66   O  A00 X   4      43.083  89.900  20.9600  0.00  0.00     0.000 OA
ATOM     67   S  A00 X   4      42.470  91.140  21.3200  0.00  0.00     0.000 S
ATOM     68   O  A00 X   4      41.446  91.603  20.4290  0.00  0.00     0.000 OA
ATOM     69   O  A00 X   4      43.314  92.179  21.8380  0.00  0.00     0.000 OA
ENDBRANCH 59 66
BRANCH 62 70
ATOM     70   C  A00 X   4      38.563  88.257  25.6900  0.00  0.00     0.000 C
ATOM     71   O  A00 X   4      35.405  88.883  24.0330  0.00  0.00     0.000 OA
ATOM     72   O  A00 X   4      36.063  89.237  26.2660  0.00  0.00     0.000 OA
ATOM     73   O  A00 X   4      37.641  88.487  24.6130  0.00  0.00     0.000 O
ATOM     74   O  A00 X   4      36.839  90.758  24.5270  0.00  0.00     0.000 OA
ATOM     75   S  A00 X   4      36.423  89.438  24.8800  0.00  0.00     0.000 S
ENDBRANCH 62 70
ENDBRANCH 57 61
ENDBRANCH 41 57
ENDBRANCH 40 44
ENDBRANCH 20 40
ENDBRANCH 19 23
ENDBRANCH 1 19
TORSDOF 14
ENDMDL
MODEL 15
REMARK VINA RESULT:       0.0    100.351    104.735
ROOT
ATOM      1  C1  A00 X   1      29.644  40.959  12.1350  0.00  0.00     0.000 C
ATOM      2  C2  A00 X   1      30.765  41.960  12.5240  0.00  0.00     0.000 C
ATOM      3  C3  A00 X   1      30.546  43.444  12.0800  0.00  0.00     0.000 C
ATOM      4  C4  A00 X   1      29.447  43.666  11.0090  0.00  0.00     0.000 C
ATOM      5  C5  A00 X   1      29.165  42.400  10.2000  0.00  0.00     0.000 C
ATOM      6  O5  A00 X   1      28.678  41.445  11.1700  0.00  0.00     0.000 O
ATOM      7   O  A00 X   1      31.761  43.938  11.5210  0.00  0.00     0.000 O
ATOM      9  HD  A00 X   1      31.115  44.227  11.0230  0.00  0.00     0.000 HD
ATOM      9   O  A00 X   1      28.236  44.144  11.5940  0.00  0.00     0.000 O
ATOM     11  HD  A00 X   1      27.590  44.433  11.0960  0.00  0.00     0.000 HD
ENDROOT
BRANCH 2 11
ATOM     11   O  A00 X   1      30.914  41.916  13.9570  0.00  0.00     0.000 O
ATOM     12   O  A00 X   1      32.327  43.460  15.1340  0.00  0.00     0.000 OA
ATOM     13   O  A00 X   1      33.324  41.897  13.5600  0.00  0.00     0.000 OA
ATOM     14   O  A00 X   1      32.372  41.116  15.5950  0.00  0.00     0.000 OA
ATOM     15   S  A00 X   1      32.337  42.131  14.5780  0.00  0.00     0.000 S
ENDBRANCH 2 11
BRANCH 5 16
ATOM     16   C  A00 X   1      30.346  41.883   9.3720  0.00  0.00     0.000 C
ATOM     17   O  A00 X   1      30.269  40.777   8.8770  0.00  0.00     0.000 OA
ATOM     18   O  A00 X   1      31.350  42.541   9.1880  0.00  0.00     0.000 OA
ENDBRANCH 5 16
BRANCH 1 19
ATOM     19  O4  A00 X   2      30.159  39.659  11.7580  0.00  0.00     0.000 O
BRANCH 19 23
ATOM     20  C1  A00 X   2      27.002  37.507  13.7000  0.00  0.00     0.000 C
ATOM     21  C2  A00 X   2      28.340  37.658  14.4640  0.00  0.00     0.000 C
ATOM     22  C3  A00 X   2      29.196  38.788  13.8560  0.00  0.00     0.000 C
ATOM     23  C4  A00 X   2      29.393  38.565  12.3400  0.00  0.00     0.000 C
ATOM     24  C5  A00 X   2      27.988  38.411  11.6960  0.00  0.00     0.000 C
ATOM     25  O5  A00 X   2      27.318  37.275  12.3010  0.00  0.00     0.000 O
ATOM     26   O  A00 X   2      30.392  38.934  14.6400  0.00  0.00     0.000 O
ATOM     28  HD  A00 X   2      30.574  38.088  14.6110  0.00  0.00     0.000 HD
BRANCH 21 30
ATOM     28   N  A00 X   2      28.122  36.324  15.0340  0.00  0.00     0.000 N
ATOM     30  HD  A00 X   2      28.736  36.704  15.5120  0.00  0.00     0.000 HD
ATOM     30   O  A00 X   2      29.070  36.281  17.1680  0.00  0.00     0.000 OA
ATOM     31   S  A00 X   2      29.271  35.673  15.9010  0.00  0.00     0.000 S
ATOM     32   O  A00 X   2      28.982  34.273  15.8510  0.00  0.00     0.000 OA
ATOM     33   O  A00 X   2      30.510  35.948  15.2380  0.00  0.00     0.000 OA
ENDBRANCH 21 30
BRANCH 24 34
ATOM     34   C  A00 X   2      27.894  38.407  10.1520  0.00  0.00     0.000 C
ATOM     35   O  A00 X   2      29.633  36.032   8.0080  0.00  0.00     0.000 OA
ATOM     36   O  A00 X   2      28.941  37.607   9.5670  0.00  0.00     0.000 O
ATOM     37   O  A00 X   2      28.170  35.407   9.7580  0.00  0.00     0.000 OA
ATOM     38   S  A00 X   2      28.452  36.366   8.7340  0.00  0.00     0.000 S
ATOM     39   O  A00 X   2      27.356  36.823   7.9320  0.00  0.00     0.000 OA
ENDBRANCH 24 34
BRANCH 20 40
ATOM     40  O4  A00 X   3      26.332  38.768  13.8380  0.00  0.00     0.000 O
BRANCH 40 44
ATOM     41  C1  A00 X   3      24.460  41.411  12.2140  0.00  0.00     0.000 C
ATOM     42  C2  A00 X   3      24.884  41.417  13.6990  0.00  0.00     0.000 C
ATOM     43  C3  A00 X   3      24.476  40.095  14.3980  0.00  0.00     0.000 C
ATOM     44  C4  A00 X   3      24.901  38.831  13.6610  0.00  0.00     0.000 C
ATOM     45  C5  A00 X   3      24.435  38.897  12.1790  0.00  0.00     0.000 C
ATOM     46  O5  A00 X   3      24.832  40.165  11.5620  0.00  0.00     0.000 O
ATOM     47   O  A00 X   3      24.741  40.023  15.7980  0.00  0.00     0.000 O
ATOM     49  HD  A00 X   3      24.953  39.206  15.6010  0.00  0.00     0.000 HD
BRANCH 42 49
ATOM     49   O  A00 X   3      26.315  41.610  13.7290  0.00  0.00     0.000 O
ATOM     50   O  A00 X   3      28.015  41.705  15.4120  0.00  0.00     0.000 OA
ATOM     51   O  A00 X   3      25.948  42.780  15.8160  0.00  0.00     0.000 OA
ATOM     52   O  A00 X   3      27.372  43.665  14.1500  0.00  0.00     0.000 OA
ATOM     53   S  A00 X   3      26.966  42.488  14.8380  0.00  0.00     0.000 S
ENDBRANCH 42 49
BRANCH 45 54
ATOM     54   C  A00 X   3      22.937  38.603  12.0410  0.00  0.00     0.000 C
ATOM     55   O  A00 X   3      22.225  38.544  13.0230  0.00  0.00     0.000 OA
ATOM     56   O  A00 X   3      22.433  38.421  10.9440  0.00  0.00     0.000 OA
ENDBRANCH 45 54
BRANCH 41 57
ATOM     57  O4  A00 X   4      23.068  41.763  12.0550  0.00  0.00     0.000 O
BRANCH 57 61
ATOM     58  C1  A00 X   4      20.910  43.907   8.9900  0.00  0.00     0.000 C
ATOM     59  C2  A00 X   4      21.636  42.593   8.6050  0.00  0.00     0.000 C
ATOM     60  C3  A00 X   4      22.055  41.743   9.8220  0.00  0.00     0.000 C
ATOM     61  C4  A00 X   4      22.768  42.592  10.8960  0.00  0.00     0.000 C
ATOM     62  C5  A00 X   4      21.782  43.721  11.2850  0.00  0.00     0.000 C
ATOM     63  O5  A00 X   4      21.529  44.555  10.1250  0.00  0.00     0.000 O
BRANCH 59 66
ATOM     64   N  A00 X   4      22.888  42.884   7.8850  0.00  0.00     0.000 N
ATOM     66  HD  A00 X   4      23.284  43.634   8.0590  0.00  0.00     0.000 HD
ATOM     66   O  A00 X   4      21.560  43.161   5.8940  0.00  0.00     0.000 OA
ATOM     67   S  A00 X   4      22.883  42.787   6.2880  0.00  0.00     0.000 S
ATOM     68   O  A00 X   4      23.912  43.732   5.9680  0.00  0.00     0.000 OA
ATOM     69   O  A00 X   4      23.270  41.415   6.1170  0.00  0.00     0.000 OA
ENDBRANCH 59 66
BRANCH 62 70
ATOM     70   C  A00 X   4      22.277  44.624  12.4400  0.00  0.00     0.000 C
ATOM     71   O  A00 X   4      24.978  47.035  12.4280  0.00  0.00     0.000 OA
ATOM     72   O  A00 X   4      24.477  45.300  13.9400  0.00  0.00     0.000 OA
ATOM     73   O  A00 X   4      23.201  45.594  11.9220  0.00  0.00     0.000 O
ATOM     74   O  A00 X   4      25.457  44.764  11.7740  0.00  0.00     0.000 OA
ATOM     75   S  A00 X   4      24.639  45.644  12.5440  0.00  0.00     0.000 S
ENDBRANCH 62 70
ENDBRANCH 57 61
ENDBRANCH 41 57
ENDBRANCH 40 44
ENDBRANCH 20 40
ENDBRANCH 19 23
ENDBRANCH 1 19
TORSDOF 14
ENDMDL
MODEL 16
REMARK VINA RESULT:       0.0    104.973    109.336
ROOT
ATOM      1  C1  A00 X   1      96.506  56.413  55.0390  0.00  0.00     0.000 C
ATOM      2  C2  A00 X   1      98.048  56.507  55.1890  0.00  0.00     0.000 C
ATOM      3  C3  A00 X   1      98.598  57.832  55.8140  0.00  0.00     0.000 C
ATOM      4  C4  A00 X   1      97.597  59.014  55.8640  0.00  0.00     0.000 C
ATOM      5  C5  A00 X   1      96.475  58.864  54.8360  0.00  0.00     0.000 C
ATOM      6  O5  A00 X   1      95.782  57.655  55.2230  0.00  0.00     0.000 O
ATOM      7   O  A00 X   1      99.710  58.275  55.0390  0.00  0.00     0.000 O
ATOM      9  HD  A00 X   1      99.240  58.976  55.2360  0.00  0.00     0.000 HD
ATOM      9   O  A00 X   1      97.038  59.170  57.1680  0.00  0.00     0.000 O
ATOM     11  HD  A00 X   1      96.569  59.870  57.3650  0.00  0.00     0.000 HD
ENDROOT
BRANCH 2 11
ATOM     11   O  A00 X   1      98.479  55.394  55.9950  0.00  0.00     0.000 O
ATOM     12   O  A00 X   1     100.745  55.182  56.7620  0.00  0.00     0.000 OA
ATOM     13   O  A00 X   1     100.284  55.105  54.3750  0.00  0.00     0.000 OA
ATOM     14   O  A00 X   1      99.569  53.338  55.7980  0.00  0.00     0.000 OA
ATOM     15   S  A00 X   1      99.873  54.740  55.7030  0.00  0.00     0.000 S
ENDBRANCH 2 11
BRANCH 5 16
ATOM     16   C  A00 X   1      96.931  58.868  53.3740  0.00  0.00     0.000 C
ATOM     17   O  A00 X   1      96.133  58.551  52.5150  0.00  0.00     0.000 OA
ATOM     18   O  A00 X   1      98.057  59.183  53.0430  0.00  0.00     0.000 OA
ENDBRANCH 5 16
BRANCH 1 19
ATOM     19  O4  A00 X   2      96.100  55.740  53.8220  0.00  0.00     0.000 O
BRANCH 19 23
ATOM     20  C1  A00 X   2      92.860  53.652  55.6950  0.00  0.00     0.000 C
ATOM     21  C2  A00 X   2      94.191  52.885  55.5080  0.00  0.00     0.000 C
ATOM     22  C3  A00 X   2      95.355  53.861  55.2370  0.00  0.00     0.000 C
ATOM     23  C4  A00 X   2      95.022  54.786  54.0440  0.00  0.00     0.000 C
ATOM     24  C5  A00 X   2      93.665  55.478  54.3450  0.00  0.00     0.000 C
ATOM     25  O5  A00 X   2      92.645  54.458  54.5060  0.00  0.00     0.000 O
ATOM     26   O  A00 X   2      96.576  53.108  55.1390  0.00  0.00     0.000 O
ATOM     28  HD  A00 X   2      96.243  52.546  54.5710  0.00  0.00     0.000 HD
BRANCH 21 30
ATOM     28   N  A00 X   2      93.404  51.664  55.3080  0.00  0.00     0.000 N
ATOM     30  HD  A00 X   2      94.221  51.415  55.4500  0.00  0.00     0.000 HD
ATOM     30   O  A00 X   2      94.657  49.854  56.0870  0.00  0.00     0.000 OA
ATOM     31   S  A00 X   2      94.149  50.346  54.8560  0.00  0.00     0.000 S
ATOM     32   O  A00 X   2      93.112  49.554  54.2710  0.00  0.00     0.000 OA
ATOM     33   O  A00 X   2      95.110  50.722  53.8620  0.00  0.00     0.000 OA
ENDBRANCH 21 30
BRANCH 24 34
ATOM     34   C  A00 X   2      93.216  56.629  53.4140  0.00  0.00     0.000 C
ATOM     35   O  A00 X   2      90.231  56.523  51.3320  0.00  0.00     0.000 OA
ATOM     36   O  A00 X   2      92.226  56.180  52.4670  0.00  0.00     0.000 O
ATOM     37   O  A00 X   2      90.222  56.188  53.6730  0.00  0.00     0.000 OA
ATOM     38   S  A00 X   2      90.824  56.884  52.5770  0.00  0.00     0.000 S
ATOM     39   O  A00 X   2      91.085  58.282  52.7430  0.00  0.00     0.000 OA
ENDBRANCH 24 34
BRANCH 20 40
ATOM     40  O4  A00 X   3      93.063  54.511  56.8260  0.00  0.00     0.000 O
BRANCH 40 44
ATOM     41  C1  A00 X   3      92.650  57.804  58.2770  0.00  0.00     0.000 C
ATOM     42  C2  A00 X   3      93.353  56.618  58.9720  0.00  0.00     0.000 C
ATOM     43  C3  A00 X   3      92.464  55.348  58.9380  0.00  0.00     0.000 C
ATOM     44  C4  A00 X   3      91.918  54.995  57.5600  0.00  0.00     0.000 C
ATOM     45  C5  A00 X   3      91.223  56.234  56.9290  0.00  0.00     0.000 C
ATOM     46  O5  A00 X   3      92.093  57.410  56.9930  0.00  0.00     0.000 O
ATOM     47   O  A00 X   3      92.976  54.211  59.6280  0.00  0.00     0.000 O
ATOM     49  HD  A00 X   3      92.643  53.789  58.9500  0.00  0.00     0.000 HD
BRANCH 42 49
ATOM     49   O  A00 X   3      94.604  56.406  58.2830  0.00  0.00     0.000 O
ATOM     50   O  A00 X   3      96.429  54.865  58.4420  0.00  0.00     0.000 OA
ATOM     51   O  A00 X   3      95.483  55.722  60.4320  0.00  0.00     0.000 OA
ATOM     52   O  A00 X   3      96.686  57.196  59.0300  0.00  0.00     0.000 OA
ATOM     53   S  A00 X   3      95.885  56.022  59.0810  0.00  0.00     0.000 S
ENDBRANCH 42 49
BRANCH 45 54
ATOM     54   C  A00 X   3      89.835  56.476  57.5350  0.00  0.00     0.000 C
ATOM     55   O  A00 X   3      89.048  57.228  56.9980  0.00  0.00     0.000 OA
ATOM     56   O  A00 X   3      89.498  55.919  58.5680  0.00  0.00     0.000 OA
ENDBRANCH 45 54
BRANCH 41 57
ATOM     57  O4  A00 X   4      91.701  58.452  59.1550  0.00  0.00     0.000 O
BRANCH 57 61
ATOM     58  C1  A00 X   4      90.358  62.537  59.5280  0.00  0.00     0.000 C
ATOM     59  C2  A00 X   4      90.105  61.793  58.1930  0.00  0.00     0.000 C
ATOM     60  C3  A00 X   4      90.294  60.266  58.2960  0.00  0.00     0.000 C
ATOM     61  C4  A00 X   4      91.612  59.898  59.0100  0.00  0.00     0.000 C
ATOM     62  C5  A00 X   4      91.557  60.573  60.4020  0.00  0.00     0.000 C
ATOM     63  O5  A00 X   4      91.507  62.013  60.2320  0.00  0.00     0.000 O
BRANCH 59 66
ATOM     64   N  A00 X   4      91.087  62.259  57.1970  0.00  0.00     0.000 N
ATOM     66  HD  A00 X   4      91.846  62.555  57.4920  0.00  0.00     0.000 HD
ATOM     66   O  A00 X   4      89.635  64.138  56.7930  0.00  0.00     0.000 OA
ATOM     67   S  A00 X   4      90.617  63.345  56.1210  0.00  0.00     0.000 S
ATOM     68   O  A00 X   4      91.863  64.001  55.8540  0.00  0.00     0.000 OA
ATOM     69   O  A00 X   4      90.170  62.479  55.0660  0.00  0.00     0.000 OA
ENDBRANCH 59 66
BRANCH 62 70
ATOM     70   C  A00 X   4      92.754  60.228  61.3200  0.00  0.00     0.000 C
ATOM     71   O  A00 X   4      96.220  61.221  60.9860  0.00  0.00     0.000 OA
ATOM     72   O  A00 X   4      95.260  59.105  61.3700  0.00  0.00     0.000 OA
ATOM     73   O  A00 X   4      93.885  61.033  60.9480  0.00  0.00     0.000 O
ATOM     74   O  A00 X   4      95.163  60.084  59.1400  0.00  0.00     0.000 OA
ATOM     75   S  A00 X   4      95.211  60.296  60.5510  0.00  0.00     0.000 S
ENDBRANCH 62 70
ENDBRANCH 57 61
ENDBRANCH 41 57
ENDBRANCH 40 44
ENDBRANCH 20 40
ENDBRANCH 19 23
ENDBRANCH 1 19
TORSDOF 14
ENDMDL
MODEL 17
REMARK VINA RESULT:       0.0    137.328    140.801
ROOT
ATOM      1  C1  A00 X   1      76.004  97.079  14.2580  0.00  0.00     0.000 C
ATOM      2  C2  A00 X   1      75.023  96.059  13.6210  0.00  0.00     0.000 C
ATOM      3  C3  A00 X   1      75.636  94.680  13.2090  0.00  0.00     0.000 C
ATOM      4  C4  A00 X   1      77.184  94.631  13.1430  0.00  0.00     0.000 C
ATOM      5  C5  A00 X   1      77.799  96.017  12.9550  0.00  0.00     0.000 C
ATOM      6  O5  A00 X   1      77.411  96.754  14.1360  0.00  0.00     0.000 O
ATOM      7   O  A00 X   1      75.164  94.340  11.9080  0.00  0.00     0.000 O
ATOM      9  HD  A00 X   1      76.004  94.130  11.9380  0.00  0.00     0.000 HD
ATOM      9   O  A00 X   1      77.737  94.012  14.3050  0.00  0.00     0.000 O
ATOM     11  HD  A00 X   1      78.576  93.802  14.3350  0.00  0.00     0.000 HD
ENDROOT
BRANCH 2 11
ATOM     11   O  A00 X   1      73.952  95.835  14.5590  0.00  0.00     0.000 O
ATOM     12   O  A00 X   1      72.282  94.148  14.2020  0.00  0.00     0.000 OA
ATOM     13   O  A00 X   1      72.437  96.016  12.6520  0.00  0.00     0.000 OA
ATOM     14   O  A00 X   1      71.702  96.362  14.8880  0.00  0.00     0.000 OA
ATOM     15   S  A00 X   1      72.510  95.558  14.0120  0.00  0.00     0.000 S
ENDBRANCH 2 11
BRANCH 5 16
ATOM     16   C  A00 X   1      77.426  96.719  11.6450  0.00  0.00     0.000 C
ATOM     17   O  A00 X   1      77.696  97.895  11.5180  0.00  0.00     0.000 OA
ATOM     18   O  A00 X   1      76.878  96.139  10.7280  0.00  0.00     0.000 OA
ENDBRANCH 5 16
BRANCH 1 19
ATOM     19  O4  A00 X   2      75.739  98.443  13.8480  0.00  0.00     0.000 O
BRANCH 19 23
ATOM     20  C1  A00 X   2      76.520 100.084  17.7290  0.00  0.00     0.000 C
ATOM     21  C2  A00 X   2      75.042  99.832  17.3440  0.00  0.00     0.000 C
ATOM     22  C3  A00 X   2      74.944  98.866  16.1450  0.00  0.00     0.000 C
ATOM     23  C4  A00 X   2      75.793  99.381  14.9610  0.00  0.00     0.000 C
ATOM     24  C5  A00 X   2      77.239  99.611  15.4790  0.00  0.00     0.000 C
ATOM     25  O5  A00 X   2      77.203 100.588  16.5500  0.00  0.00     0.000 O
ATOM     26   O  A00 X   2      73.556  98.611  15.8710  0.00  0.00     0.000 O
ATOM     28  HD  A00 X   2      73.351  99.453  15.8630  0.00  0.00     0.000 HD
BRANCH 21 30
ATOM     28   N  A00 X   2      74.678 101.024  18.1170  0.00  0.00     0.000 N
ATOM     30  HD  A00 X   2      73.947 100.580  17.9800  0.00  0.00     0.000 HD
ATOM     30   O  A00 X   2      72.544 100.688  19.0070  0.00  0.00     0.000 OA
ATOM     31   S  A00 X   2      73.183 101.534  18.0620  0.00  0.00     0.000 S
ATOM     32   O  A00 X   2      73.280 102.907  18.4500  0.00  0.00     0.000 OA
ATOM     33   O  A00 X   2      72.749 101.431  16.7010  0.00  0.00     0.000 OA
ENDBRANCH 21 30
BRANCH 24 34
ATOM     34   C  A00 X   2      78.344  99.907  14.4370  0.00  0.00     0.000 C
ATOM     35   O  A00 X   2      80.227 103.021  14.2910  0.00  0.00     0.000 OA
ATOM     36   O  A00 X   2      78.657 101.314  14.3940  0.00  0.00     0.000 O
ATOM     37   O  A00 X   2      80.089 101.649  16.2130  0.00  0.00     0.000 OA
ATOM     38   S  A00 X   2      80.135 101.685  14.7830  0.00  0.00     0.000 S
ATOM     39   O  A00 X   2      80.978 100.736  14.1220  0.00  0.00     0.000 OA
ENDBRANCH 24 34
BRANCH 20 40
ATOM     40  O4  A00 X   3      77.054  98.798  18.0790  0.00  0.00     0.000 O
BRANCH 40 44
ATOM     41  C1  A00 X   3      79.784  96.430  17.8250  0.00  0.00     0.000 C
ATOM     42  C2  A00 X   3      78.464  96.174  18.5850  0.00  0.00     0.000 C
ATOM     43  C3  A00 X   3      78.150  97.339  19.5590  0.00  0.00     0.000 C
ATOM     44  C4  A00 X   3      78.218  98.725  18.9310  0.00  0.00     0.000 C
ATOM     45  C5  A00 X   3      79.573  98.908  18.1910  0.00  0.00     0.000 C
ATOM     46  O5  A00 X   3      79.834  97.782  17.2920  0.00  0.00     0.000 O
ATOM     47   O  A00 X   3      76.996  97.170  20.3800  0.00  0.00     0.000 O
ATOM     49  HD  A00 X   3      76.894  98.014  20.2160  0.00  0.00     0.000 HD
BRANCH 42 49
ATOM     49   O  A00 X   3      77.427  96.021  17.5920  0.00  0.00     0.000 O
ATOM     50   O  A00 X   3      75.058  95.678  17.6000  0.00  0.00     0.000 OA
ATOM     51   O  A00 X   3      76.389  94.487  19.1490  0.00  0.00     0.000 OA
ATOM     52   O  A00 X   3      76.584  93.958  16.8540  0.00  0.00     0.000 OA
ATOM     53   S  A00 X   3      76.289  94.979  17.7980  0.00  0.00     0.000 S
ENDBRANCH 42 49
BRANCH 45 54
ATOM     54   C  A00 X   3      80.722  99.177  19.1700  0.00  0.00     0.000 C
ATOM     55   O  A00 X   3      81.819  99.501  18.7630  0.00  0.00     0.000 OA
ATOM     56   O  A00 X   3      80.555  99.069  20.3750  0.00  0.00     0.000 OA
ENDBRANCH 45 54
BRANCH 41 57
ATOM     57  O4  A00 X   4      80.936  96.070  18.6200  0.00  0.00     0.000 O
BRANCH 57 61
ATOM     58  C1  A00 X   4      84.807  94.444  17.6150  0.00  0.00     0.000 C
ATOM     59  C2  A00 X   4      84.414  95.830  17.0440  0.00  0.00     0.000 C
ATOM     60  C3  A00 X   4      83.193  96.459  17.7450  0.00  0.00     0.000 C
ATOM     61  C4  A00 X   4      82.029  95.454  17.8800  0.00  0.00     0.000 C
ATOM     62  C5  A00 X   4      82.589  94.240  18.6620  0.00  0.00     0.000 C
ATOM     63  O5  A00 X   4      83.649  93.623  17.8880  0.00  0.00     0.000 O
BRANCH 59 66
ATOM     64   N  A00 X   4      84.033  95.711  15.6260  0.00  0.00     0.000 N
ATOM     66  HD  A00 X   4      83.706  94.954  15.3620  0.00  0.00     0.000 HD
ATOM     66   O  A00 X   4      86.381  95.761  15.0940  0.00  0.00     0.000 OA
ATOM     67   S  A00 X   4      85.118  96.096  14.5150  0.00  0.00     0.000 S
ATOM     68   O  A00 X   4      84.692  95.254  13.4350  0.00  0.00     0.000 OA
ATOM     69   O  A00 X   4      84.812  97.486  14.3330  0.00  0.00     0.000 OA
ENDBRANCH 59 66
BRANCH 62 70
ATOM     70   C  A00 X   4      81.532  93.161  18.9960  0.00  0.00     0.000 C
ATOM     71   O  A00 X   4      79.836  90.884  16.7490  0.00  0.00     0.000 OA
ATOM     72   O  A00 X   4      78.986  92.299  18.4290  0.00  0.00     0.000 OA
ATOM     73   O  A00 X   4      81.319  92.332  17.8420  0.00  0.00     0.000 O
ATOM     74   O  A00 X   4      79.707  93.251  16.3050  0.00  0.00     0.000 OA
ATOM     75   S  A00 X   4      79.860  92.219  17.2790  0.00  0.00     0.000 S
ENDBRANCH 62 70
ENDBRANCH 57 61
ENDBRANCH 41 57
ENDBRANCH 40 44
ENDBRANCH 20 40
ENDBRANCH 19 23
ENDBRANCH 1 19
TORSDOF 14
ENDMDL
MODEL 18
REMARK VINA RESULT:       0.0     12.308     17.056
ROOT
ATOM      1  C1  A00 X   1       8.872  31.495  98.1770  0.00  0.00     0.000 C
ATOM      2  C2  A00 X   1       7.684  31.709  97.2010  0.00  0.00     0.000 C
ATOM      3  C3  A00 X   1       7.670  30.803  95.9260  0.00  0.00     0.000 C
ATOM      4  C4  A00 X   1       9.004  30.080  95.6060  0.00  0.00     0.000 C
ATOM      5  C5  A00 X   1      10.206  30.779  96.2400  0.00  0.00     0.000 C
ATOM      6  O5  A00 X   1       9.969  30.700  97.6630  0.00  0.00     0.000 O
ATOM      7   O  A00 X   1       7.367  31.613  94.7930  0.00  0.00     0.000 O
ATOM      9  HD  A00 X   1       7.994  31.065  94.5540  0.00  0.00     0.000 HD
ATOM      9   O  A00 X   1       8.969  28.713  96.0170  0.00  0.00     0.000 O
ATOM     11  HD  A00 X   1       9.595  28.165  95.7780  0.00  0.00     0.000 HD
ENDROOT
BRANCH 2 11
ATOM     11   O  A00 X   1       6.465  31.496  97.9400  0.00  0.00     0.000 O
ATOM     12   O  A00 X   1       4.318  31.462  96.8670  0.00  0.00     0.000 OA
ATOM     13   O  A00 X   1       5.624  33.514  96.8520  0.00  0.00     0.000 OA
ATOM     14   O  A00 X   1       4.694  32.692  98.8820  0.00  0.00     0.000 OA
ATOM     15   S  A00 X   1       5.201  32.350  97.5800  0.00  0.00     0.000 S
ENDBRANCH 2 11
BRANCH 5 16
ATOM     16   C  A00 X   1      10.465  32.204  95.7400  0.00  0.00     0.000 C
ATOM     17   O  A00 X   1      11.261  32.895  96.3410  0.00  0.00     0.000 OA
ATOM     18   O  A00 X   1       9.908  32.663  94.7620  0.00  0.00     0.000 OA
ENDBRANCH 5 16
BRANCH 1 19
ATOM     19  O4  A00 X   2       9.345  32.732  98.7630  0.00  0.00     0.000 O
BRANCH 19 23
ATOM     20  C1  A00 X   2      10.016  31.001 102.6260  0.00  0.00     0.000 C
ATOM     21  C2  A00 X   2       8.692  31.775 102.4090  0.00  0.00     0.000 C
ATOM     22  C3  A00 X   2       8.400  31.953 100.9050  0.00  0.00     0.000 C
ATOM     23  C4  A00 X   2       9.603  32.610 100.1920  0.00  0.00     0.000 C
ATOM     24  C5  A00 X   2      10.863  31.756 100.5000  0.00  0.00     0.000 C
ATOM     25  O5  A00 X   2      11.068  31.727 101.9370  0.00  0.00     0.000 O
ATOM     26   O  A00 X   2       7.132  32.614 100.7560  0.00  0.00     0.000 O
ATOM     28  HD  A00 X   2       7.339  33.245 101.3120  0.00  0.00     0.000 HD
BRANCH 21 30
ATOM     28   N  A00 X   2       8.768  32.232 103.8000  0.00  0.00     0.000 N
ATOM     30  HD  A00 X   2       7.956  32.371 103.5350  0.00  0.00     0.000 HD
ATOM     30   O  A00 X   2       6.589  32.461 104.6110  0.00  0.00     0.000 OA
ATOM     31   S  A00 X   2       7.706  33.285 104.3110  0.00  0.00     0.000 S
ATOM     32   O  A00 X   2       8.338  33.881 105.4470  0.00  0.00     0.000 OA
ATOM     33   O  A00 X   2       7.536  34.255 103.2710  0.00  0.00     0.000 OA
ENDBRANCH 21 30
BRANCH 24 34
ATOM     34   C  A00 X   2      12.161  32.067  99.7180  0.00  0.00     0.000 C
ATOM     35   O  A00 X   2      13.769  35.333  99.6510  0.00  0.00     0.000 OA
ATOM     36   O  A00 X   2      12.362  33.488  99.5840  0.00  0.00     0.000 O
ATOM     37   O  A00 X   2      13.277  34.143 101.6350  0.00  0.00     0.000 OA
ATOM     38   S  A00 X   2      13.666  34.048 100.2610  0.00  0.00     0.000 S
ATOM     39   O  A00 X   2      14.718  33.134  99.9310  0.00  0.00     0.000 OA
ENDBRANCH 24 34
BRANCH 20 40
ATOM     40  O4  A00 X   3       9.825  29.724 102.0010  0.00  0.00     0.000 O
BRANCH 40 44
ATOM     41  C1  A00 X   3      11.190  27.126  99.8760  0.00  0.00     0.000 C
ATOM     42  C2  A00 X   3       9.775  27.104 100.4950  0.00  0.00     0.000 C
ATOM     43  C3  A00 X   3       9.833  27.375 102.0210  0.00  0.00     0.000 C
ATOM     44  C4  A00 X   3      10.638  28.606 102.4160  0.00  0.00     0.000 C
ATOM     45  C5  A00 X   3      12.047  28.553 101.7600  0.00  0.00     0.000 C
ATOM     46  O5  A00 X   3      11.946  28.285 100.3240  0.00  0.00     0.000 O
ATOM     47   O  A00 X   3       8.590  27.292 102.7150  0.00  0.00     0.000 O
ATOM     49  HD  A00 X   3       8.912  27.972 103.1430  0.00  0.00     0.000 HD
BRANCH 42 49
ATOM     49   O  A00 X   3       8.998  28.110  99.8100  0.00  0.00     0.000 O
ATOM     50   O  A00 X   3       6.773  28.980  99.9600  0.00  0.00     0.000 OA
ATOM     51   O  A00 X   3       7.101  26.647 100.1570  0.00  0.00     0.000 OA
ATOM     52   O  A00 X   3       7.494  27.667  98.0610  0.00  0.00     0.000 OA
ATOM     53   S  A00 X   3       7.501  27.851  99.4720  0.00  0.00     0.000 S
ENDBRANCH 42 49
BRANCH 45 54
ATOM     54   C  A00 X   3      12.977  27.577 102.4910  0.00  0.00     0.000 C
ATOM     55   O  A00 X   3      12.534  26.792 103.3050  0.00  0.00     0.000 OA
ATOM     56   O  A00 X   3      14.178  27.573 102.2700  0.00  0.00     0.000 OA
ENDBRANCH 45 54
BRANCH 41 57
ATOM     57  O4  A00 X   4      11.876  25.868 100.0680  0.00  0.00     0.000 O
BRANCH 57 61
ATOM     58  C1  A00 X   4      14.775  23.713  97.7040  0.00  0.00     0.000 C
ATOM     59  C2  A00 X   4      15.150  25.118  98.2360  0.00  0.00     0.000 C
ATOM     60  C3  A00 X   4      14.206  25.628  99.3440  0.00  0.00     0.000 C
ATOM     61  C4  A00 X   4      12.722  25.451  98.9590  0.00  0.00     0.000 C
ATOM     62  C5  A00 X   4      12.523  23.941  98.6720  0.00  0.00     0.000 C
ATOM     63  O5  A00 X   4      13.347  23.558  97.5410  0.00  0.00     0.000 O
BRANCH 59 66
ATOM     64   N  A00 X   4      15.057  26.112  97.1510  0.00  0.00     0.000 N
ATOM     66  HD  A00 X   4      14.498  25.952  96.5090  0.00  0.00     0.000 HD
ATOM     66   O  A00 X   4      17.251  25.406  96.4530  0.00  0.00     0.000 OA
ATOM     67   S  A00 X   4      16.406  26.558  96.4150  0.00  0.00     0.000 S
ATOM     68   O  A00 X   4      15.892  26.905  95.1220  0.00  0.00     0.000 OA
ATOM     69   O  A00 X   4      16.774  27.686  97.2240  0.00  0.00     0.000 OA
ENDBRANCH 59 66
BRANCH 62 70
ATOM     70   C  A00 X   4      11.059  23.542  98.3720  0.00  0.00     0.000 C
ATOM     71   O  A00 X   4       9.042  24.350  95.4760  0.00  0.00     0.000 OA
ATOM     72   O  A00 X   4       8.567  24.531  97.7750  0.00  0.00     0.000 OA
ATOM     73   O  A00 X   4      10.748  23.867  97.0080  0.00  0.00     0.000 O
ATOM     74   O  A00 X   4      10.048  26.154  96.7200  0.00  0.00     0.000 OA
ATOM     75   S  A00 X   4       9.534  24.823  96.7400  0.00  0.00     0.000 S
ENDBRANCH 62 70
ENDBRANCH 57 61
ENDBRANCH 41 57
ENDBRANCH 40 44
ENDBRANCH 20 40
ENDBRANCH 19 23
ENDBRANCH 1 19
TORSDOF 14
ENDMDL
MODEL 19
REMARK VINA RESULT:       0.0     88.765     93.559
ROOT
ATOM      1  C1  A00 X   1      45.673  80.391  49.3080  0.00  0.00     0.000 C
ATOM      2  C2  A00 X   1      44.276  80.957  48.9360  0.00  0.00     0.000 C
ATOM      3  C3  A00 X   1      43.427  81.526  50.1210  0.00  0.00     0.000 C
ATOM      4  C4  A00 X   1      43.911  81.130  51.5400  0.00  0.00     0.000 C
ATOM      5  C5  A00 X   1      44.758  79.857  51.5270  0.00  0.00     0.000 C
ATOM      6  O5  A00 X   1      45.911  80.193  50.7230  0.00  0.00     0.000 O
ATOM      7   O  A00 X   1      42.091  81.044  50.0000  0.00  0.00     0.000 O
ATOM      9  HD  A00 X   1      42.302  81.003  50.8390  0.00  0.00     0.000 HD
ATOM      9   O  A00 X   1      44.642  82.189  52.1570  0.00  0.00     0.000 O
ATOM     11  HD  A00 X   1      44.853  82.149  52.9960  0.00  0.00     0.000 HD
ENDROOT
BRANCH 2 11
ATOM     11   O  A00 X   1      44.469  81.995  47.9560  0.00  0.00     0.000 O
ATOM     12   O  A00 X   1      42.665  83.400  47.2220  0.00  0.00     0.000 OA
ATOM     13   O  A00 X   1      42.581  81.014  46.7560  0.00  0.00     0.000 OA
ATOM     14   O  A00 X   1      44.186  82.397  45.6740  0.00  0.00     0.000 OA
ATOM     15   S  A00 X   1      43.380  82.205  46.8490  0.00  0.00     0.000 S
ENDBRANCH 2 11
BRANCH 5 16
ATOM     16   C  A00 X   1      44.027  78.597  51.0550  0.00  0.00     0.000 C
ATOM     17   O  A00 X   1      44.680  77.603  50.8110  0.00  0.00     0.000 OA
ATOM     18   O  A00 X   1      42.820  78.555  50.9230  0.00  0.00     0.000 OA
ENDBRANCH 5 16
BRANCH 1 19
ATOM     19  O4  A00 X   2      46.023  79.212  48.5420  0.00  0.00     0.000 O
BRANCH 19 23
ATOM     20  C1  A00 X   2      50.118  80.376  48.0510  0.00  0.00     0.000 C
ATOM     21  C2  A00 X   2      49.148  80.662  46.8790  0.00  0.00     0.000 C
ATOM     22  C3  A00 X   2      47.681  80.598  47.3510  0.00  0.00     0.000 C
ATOM     23  C4  A00 X   2      47.394  79.251  48.0530  0.00  0.00     0.000 C
ATOM     24  C5  A00 X   2      48.438  79.075  49.1890  0.00  0.00     0.000 C
ATOM     25  O5  A00 X   2      49.768  79.080  48.6060  0.00  0.00     0.000 O
ATOM     26   O  A00 X   2      46.825  80.936  46.2460  0.00  0.00     0.000 O
ATOM     28  HD  A00 X   2      47.211  80.376  45.7110  0.00  0.00     0.000 HD
BRANCH 21 30
ATOM     28   N  A00 X   2      50.253  80.398  45.9510  0.00  0.00     0.000 N
ATOM     30  HD  A00 X   2      49.636  80.802  45.4980  0.00  0.00     0.000 HD
ATOM     30   O  A00 X   2      49.948  81.732  44.0580  0.00  0.00     0.000 OA
ATOM     31   S  A00 X   2      49.948  80.354  44.4010  0.00  0.00     0.000 S
ATOM     32   O  A00 X   2      51.035  79.597  43.8630  0.00  0.00     0.000 OA
ATOM     33   O  A00 X   2      48.715  79.643  44.2320  0.00  0.00     0.000 OA
ENDBRANCH 21 30
BRANCH 24 34
ATOM     34   C  A00 X   2      48.231  77.917  50.1930  0.00  0.00     0.000 C
ATOM     35   O  A00 X   2      50.520  75.112  50.5730  0.00  0.00     0.000 OA
ATOM     36   O  A00 X   2      49.081  76.796  49.8800  0.00  0.00     0.000 O
ATOM     37   O  A00 X   2      51.164  77.379  50.7710  0.00  0.00     0.000 OA
ATOM     38   S  A00 X   2      50.127  76.417  50.9920  0.00  0.00     0.000 S
ATOM     39   O  A00 X   2      49.428  76.469  52.2400  0.00  0.00     0.000 OA
ENDBRANCH 24 34
BRANCH 20 40
ATOM     40  O4  A00 X   3      49.862  81.400  49.0240  0.00  0.00     0.000 O
BRANCH 40 44
ATOM     41  C1  A00 X   3      49.349  82.257  52.5060  0.00  0.00     0.000 C
ATOM     42  C2  A00 X   3      49.294  83.262  51.3350  0.00  0.00     0.000 C
ATOM     43  C3  A00 X   3      50.555  83.141  50.4400  0.00  0.00     0.000 C
ATOM     44  C4  A00 X   3      50.881  81.721  49.9940  0.00  0.00     0.000 C
ATOM     45  C5  A00 X   3      50.923  80.773  51.2260  0.00  0.00     0.000 C
ATOM     46  O5  A00 X   3      49.720  80.928  52.0460  0.00  0.00     0.000 O
ATOM     47   O  A00 X   3      50.654  84.083  49.3740  0.00  0.00     0.000 O
ATOM     49  HD  A00 X   3      50.964  83.396  48.9460  0.00  0.00     0.000 HD
BRANCH 42 49
ATOM     49   O  A00 X   3      48.089  82.978  50.5900  0.00  0.00     0.000 O
ATOM     50   O  A00 X   3      47.026  83.835  48.6240  0.00  0.00     0.000 OA
ATOM     51   O  A00 X   3      47.995  85.357  50.1520  0.00  0.00     0.000 OA
ATOM     52   O  A00 X   3      46.072  84.158  50.8220  0.00  0.00     0.000 OA
ATOM     53   S  A00 X   3      47.235  84.141  50.0040  0.00  0.00     0.000 S
ENDBRANCH 42 49
BRANCH 45 54
ATOM     54   C  A00 X   3      52.222  80.937  52.0240  0.00  0.00     0.000 C
ATOM     55   O  A00 X   3      52.958  81.881  51.8220  0.00  0.00     0.000 OA
ATOM     56   O  A00 X   3      52.540  80.120  52.8750  0.00  0.00     0.000 OA
ENDBRANCH 45 54
BRANCH 41 57
ATOM     57  O4  A00 X   4      50.161  82.750  53.5950  0.00  0.00     0.000 O
BRANCH 57 61
ATOM     58  C1  A00 X   4      49.931  82.278  57.8800  0.00  0.00     0.000 C
ATOM     59  C2  A00 X   4      50.135  81.016  57.0050  0.00  0.00     0.000 C
ATOM     60  C3  A00 X   4      50.558  81.334  55.5560  0.00  0.00     0.000 C
ATOM     61  C4  A00 X   4      49.670  82.428  54.9270  0.00  0.00     0.000 C
ATOM     62  C5  A00 X   4      49.781  83.665  55.8520  0.00  0.00     0.000 C
ATOM     63  O5  A00 X   4      49.251  83.332  57.1610  0.00  0.00     0.000 O
BRANCH 59 66
ATOM     64   N  A00 X   4      48.885  80.244  56.8760  0.00  0.00     0.000 N
ATOM     66  HD  A00 X   4      48.139  80.680  56.9270  0.00  0.00     0.000 HD
ATOM     66   O  A00 X   4      49.368  79.292  59.0340  0.00  0.00     0.000 OA
ATOM     67   S  A00 X   4      48.680  78.972  57.8230  0.00  0.00     0.000 S
ATOM     68   O  A00 X   4      47.249  78.946  57.9150  0.00  0.00     0.000 OA
ATOM     69   O  A00 X   4      49.234  77.943  56.9890  0.00  0.00     0.000 OA
ENDBRANCH 59 66
BRANCH 62 70
ATOM     70   C  A00 X   4      49.040  84.917  55.3260  0.00  0.00     0.000 C
ATOM     71   O  A00 X   4      45.474  85.493  55.0710  0.00  0.00     0.000 OA
ATOM     72   O  A00 X   4      47.194  85.795  53.4910  0.00  0.00     0.000 OA
ATOM     73   O  A00 X   4      47.641  84.807  55.6380  0.00  0.00     0.000 O
ATOM     74   O  A00 X   4      46.407  83.545  53.9990  0.00  0.00     0.000 OA
ATOM     75   S  A00 X   4      46.617  84.882  54.4530  0.00  0.00     0.000 S
ENDBRANCH 62 70
ENDBRANCH 57 61
ENDBRANCH 41 57
ENDBRANCH 40 44
ENDBRANCH 20 40
ENDBRANCH 19 23
ENDBRANCH 1 19
TORSDOF 14
ENDMDL
MODEL 20
REMARK VINA RESULT:       0.0     62.651     67.011
ROOT
ATOM      1  C1  A00 X   1      63.053  58.729 106.3180  0.00  0.00     0.000 C
ATOM      2  C2  A00 X   1      64.267  58.267 105.4690  0.00  0.00     0.000 C
ATOM      3  C3  A00 X   1      65.159  59.404 104.8690  0.00  0.00     0.000 C
ATOM      4  C4  A00 X   1      64.530  60.821 104.8790  0.00  0.00     0.000 C
ATOM      5  C5  A00 X   1      63.004  60.776 104.9550  0.00  0.00     0.000 C
ATOM      6  O5  A00 X   1      62.719  60.136 106.2200  0.00  0.00     0.000 O
ATOM      7   O  A00 X   1      65.438  59.095 103.5050  0.00  0.00     0.000 O
ATOM      9  HD  A00 X   1      65.271  59.943 103.5450  0.00  0.00     0.000 HD
ATOM      9   O  A00 X   1      65.044  61.612 105.9500  0.00  0.00     0.000 O
ATOM     11  HD  A00 X   1      64.877  62.461 105.9900  0.00  0.00     0.000 HD
ENDROOT
BRANCH 2 11
ATOM     11   O  A00 X   1      65.085  57.419 106.2990  0.00  0.00     0.000 O
ATOM     12   O  A00 X   1      67.234  56.627 105.5770  0.00  0.00     0.000 OA
ATOM     13   O  A00 X   1      65.242  55.928 104.3700  0.00  0.00     0.000 OA
ATOM     14   O  A00 X   1      65.634  55.168 106.5890  0.00  0.00     0.000 OA
ATOM     15   S  A00 X   1      65.852  56.223 105.6370  0.00  0.00     0.000 S
ENDBRANCH 2 11
BRANCH 5 16
ATOM     16   C  A00 X   1      62.315  60.108 103.7610  0.00  0.00     0.000 C
ATOM     17   O  A00 X   1      61.133  59.844 103.8450  0.00  0.00     0.000 OA
ATOM     18   O  A00 X   1      62.906  59.840 102.7340  0.00  0.00     0.000 OA
ENDBRANCH 5 16
BRANCH 1 19
ATOM     19  O4  A00 X   2      61.884  57.894 106.1250  0.00  0.00     0.000 O
BRANCH 19 23
ATOM     20  C1  A00 X   2      60.747  58.004 110.2560  0.00  0.00     0.000 C
ATOM     21  C2  A00 X   2      61.543  56.770 109.7660  0.00  0.00     0.000 C
ATOM     22  C3  A00 X   2      62.239  57.064 108.4210  0.00  0.00     0.000 C
ATOM     23  C4  A00 X   2      61.217  57.570 107.3790  0.00  0.00     0.000 C
ATOM     24  C5  A00 X   2      60.477  58.789 107.9940  0.00  0.00     0.000 C
ATOM     25  O5  A00 X   2      59.807  58.365 109.2090  0.00  0.00     0.000 O
ATOM     26   O  A00 X   2      63.018  55.915 108.0450  0.00  0.00     0.000 O
ATOM     28  HD  A00 X   2      62.359  55.366 108.1660  0.00  0.00     0.000 HD
BRANCH 21 30
ATOM     28   N  A00 X   2      60.774  55.948 110.7060  0.00  0.00     0.000 N
ATOM     30  HD  A00 X   2      61.460  55.478 110.4640  0.00  0.00     0.000 HD
ATOM     30   O  A00 X   2      62.142  54.198 111.4300  0.00  0.00     0.000 OA
ATOM     31   S  A00 X   2      60.958  54.379 110.6670  0.00  0.00     0.000 S
ATOM     32   O  A00 X   2      59.764  53.882 111.2790  0.00  0.00     0.000 OA
ATOM     33   O  A00 X   2      61.008  53.992 109.2890  0.00  0.00     0.000 OA
ENDBRANCH 21 30
BRANCH 24 34
ATOM     34   C  A00 X   2      59.562  59.625 107.0680  0.00  0.00     0.000 C
ATOM     35   O  A00 X   2      56.724  58.266 105.2360  0.00  0.00     0.000 OA
ATOM     36   O  A00 X   2      58.764  58.777 106.2180  0.00  0.00     0.000 O
ATOM     37   O  A00 X   2      56.991  58.090 107.5790  0.00  0.00     0.000 OA
ATOM     38   S  A00 X   2      57.209  58.898 106.4190  0.00  0.00     0.000 S
ATOM     39   O  A00 X   2      56.921  60.297 106.5210  0.00  0.00     0.000 OA
ENDBRANCH 24 34
BRANCH 20 40
ATOM     40  O4  A00 X   3      61.714  59.052 110.4140  0.00  0.00     0.000 O
BRANCH 40 44
ATOM     41  C1  A00 X   3      62.562  62.533 109.8780  0.00  0.00     0.000 C
ATOM     42  C2  A00 X   3      63.499  61.488 110.5210  0.00  0.00     0.000 C
ATOM     43  C3  A00 X   3      62.782  60.728 111.6660  0.00  0.00     0.000 C
ATOM     44  C4  A00 X   3      61.419  60.159 111.2920  0.00  0.00     0.000 C
ATOM     45  C5  A00 X   3      60.534  61.269 110.6580  0.00  0.00     0.000 C
ATOM     46  O5  A00 X   3      61.254  61.965 109.5900  0.00  0.00     0.000 O
ATOM     47   O  A00 X   3      63.581  59.796 112.3910  0.00  0.00     0.000 O
ATOM     49  HD  A00 X   3      62.852  59.328 112.3720  0.00  0.00     0.000 HD
BRANCH 42 49
ATOM     49   O  A00 X   3      63.914  60.588 109.4690  0.00  0.00     0.000 O
ATOM     50   O  A00 X   3      65.267  58.620 109.3070  0.00  0.00     0.000 OA
ATOM     51   O  A00 X   3      66.003  60.401 110.6760  0.00  0.00     0.000 OA
ATOM     52   O  A00 X   3      65.965  60.721 108.3350  0.00  0.00     0.000 OA
ATOM     53   S  A00 X   3      65.370  60.040 109.4320  0.00  0.00     0.000 S
ENDBRANCH 42 49
BRANCH 45 54
ATOM     54   C  A00 X   3      59.966  62.217 111.7210  0.00  0.00     0.000 C
ATOM     55   O  A00 X   3      59.150  63.065 111.4210  0.00  0.00     0.000 OA
ATOM     56   O  A00 X   3      60.324  62.138 112.8860  0.00  0.00     0.000 OA
ENDBRANCH 45 54
BRANCH 41 57
ATOM     57  O4  A00 X   4      62.515  63.754 110.6500  0.00  0.00     0.000 O
BRANCH 57 61
ATOM     58  C1  A00 X   4      62.066  67.907 109.5580  0.00  0.00     0.000 C
ATOM     59  C2  A00 X   4      60.916  66.924 109.2250  0.00  0.00     0.000 C
ATOM     60  C3  A00 X   4      61.024  65.577 109.9670  0.00  0.00     0.000 C
ATOM     61  C4  A00 X   4      62.444  64.979 109.8650  0.00  0.00     0.000 C
ATOM     62  C5  A00 X   4      63.408  66.043 110.4450  0.00  0.00     0.000 C
ATOM     63  O5  A00 X   4      63.347  67.239 109.6260  0.00  0.00     0.000 O
BRANCH 59 66
ATOM     64   N  A00 X   4      60.926  66.580 107.7920  0.00  0.00     0.000 N
ATOM     66  HD  A00 X   4      61.687  66.606 107.3790  0.00  0.00     0.000 HD
ATOM     66   O  A00 X   4      59.761  68.649 107.3890  0.00  0.00     0.000 OA
ATOM     67   S  A00 X   4      59.910  67.345 106.8220  0.00  0.00     0.000 S
ATOM     68   O  A00 X   4      60.638  67.289 105.5880  0.00  0.00     0.000 OA
ATOM     69   O  A00 X   4      58.784  66.457 106.8820  0.00  0.00     0.000 OA
ENDBRANCH 59 66
BRANCH 62 70
ATOM     70   C  A00 X   4      64.882  65.581 110.5310  0.00  0.00     0.000 C
ATOM     71   O  A00 X   4      67.225  64.980 107.8370  0.00  0.00     0.000 OA
ATOM     72   O  A00 X   4      66.656  63.656 109.6990  0.00  0.00     0.000 OA
ATOM     73   O  A00 X   4      65.497  65.714 109.2400  0.00  0.00     0.000 O
ATOM     74   O  A00 X   4      65.118  63.808 107.8150  0.00  0.00     0.000 OA
ATOM     75   S  A00 X   4      66.135  64.434 108.5970  0.00  0.00     0.000 S
ENDBRANCH 62 70
ENDBRANCH 57 61
ENDBRANCH 41 57
ENDBRANCH 40 44
ENDBRANCH 20 40
ENDBRANCH 19 23
ENDBRANCH 1 19
TORSDOF 14
ENDMDL
MODEL 21
REMARK VINA RESULT:       0.0    130.839    135.719
ROOT
ATOM      1  C1  A00 X   1      89.875  69.976  18.1020  0.00  0.00     0.000 C
ATOM      2  C2  A00 X   1      89.199  71.008  19.0440  0.00  0.00     0.000 C
ATOM      3  C3  A00 X   1      88.651  72.305  18.3610  0.00  0.00     0.000 C
ATOM      4  C4  A00 X   1      89.166  72.572  16.9230  0.00  0.00     0.000 C
ATOM      5  C5  A00 X   1      90.487  71.856  16.6410  0.00  0.00     0.000 C
ATOM      6  O5  A00 X   1      90.177  70.450  16.7670  0.00  0.00     0.000 O
ATOM      7   O  A00 X   1      89.038  73.432  19.1450  0.00  0.00     0.000 O
ATOM      9  HD  A00 X   1      89.144  73.650  18.3140  0.00  0.00     0.000 HD
ATOM      9   O  A00 X   1      88.196  72.198  15.9450  0.00  0.00     0.000 O
ATOM     11  HD  A00 X   1      88.302  72.417  15.1140  0.00  0.00     0.000 HD
ENDROOT
BRANCH 2 11
ATOM     11   O  A00 X   1      88.116  70.341  19.7200  0.00  0.00     0.000 O
ATOM     12   O  A00 X   1      86.564  71.531  21.1140  0.00  0.00     0.000 OA
ATOM     13   O  A00 X   1      88.908  71.432  21.7570  0.00  0.00     0.000 OA
ATOM     14   O  A00 X   1      87.559  69.474  21.8150  0.00  0.00     0.000 OA
ATOM     15   S  A00 X   1      87.774  70.752  21.1940  0.00  0.00     0.000 S
ENDBRANCH 2 11
BRANCH 5 16
ATOM     16   C  A00 X   1      91.665  72.305  17.5100  0.00  0.00     0.000 C
ATOM     17   O  A00 X   1      92.674  71.630  17.5140  0.00  0.00     0.000 OA
ATOM     18   O  A00 X   1      91.629  73.312  18.1890  0.00  0.00     0.000 OA
ENDBRANCH 5 16
BRANCH 1 19
ATOM     19  O4  A00 X   2      91.024  69.333  18.7070  0.00  0.00     0.000 O
BRANCH 19 23
ATOM     20  C1  A00 X   2      90.099  65.473  17.0920  0.00  0.00     0.000 C
ATOM     21  C2  A00 X   2      89.668  65.759  18.5510  0.00  0.00     0.000 C
ATOM     22  C3  A00 X   2      89.669  67.275  18.8370  0.00  0.00     0.000 C
ATOM     23  C4  A00 X   2      91.041  67.894  18.4840  0.00  0.00     0.000 C
ATOM     24  C5  A00 X   2      91.364  67.522  17.0110  0.00  0.00     0.000 C
ATOM     25  O5  A00 X   2      91.405  66.076  16.8930  0.00  0.00     0.000 O
ATOM     26   O  A00 X   2      89.197  67.492  20.1780  0.00  0.00     0.000 O
ATOM     28  HD  A00 X   2      89.743  66.911  20.5170  0.00  0.00     0.000 HD
BRANCH 21 30
ATOM     28   N  A00 X   2      89.939  64.353  18.8670  0.00  0.00     0.000 N
ATOM     30  HD  A00 X   2      89.462  64.669  19.5180  0.00  0.00     0.000 HD
ATOM     30   O  A00 X   2      88.455  63.686  20.5440  0.00  0.00     0.000 OA
ATOM     31   S  A00 X   2      89.850  63.884  20.3740  0.00  0.00     0.000 S
ATOM     32   O  A00 X   2      90.638  62.691  20.4050  0.00  0.00     0.000 OA
ATOM     33   O  A00 X   2      90.463  64.905  21.1720  0.00  0.00     0.000 OA
ENDBRANCH 21 30
BRANCH 24 34
ATOM     34   C  A00 X   2      92.575  68.210  16.3380  0.00  0.00     0.000 C
ATOM     35   O  A00 X   2      95.981  68.054  17.6150  0.00  0.00     0.000 OA
ATOM     36   O  A00 X   2      93.702  68.278  17.2340  0.00  0.00     0.000 O
ATOM     37   O  A00 X   2      94.669  66.151  17.1130  0.00  0.00     0.000 OA
ATOM     38   S  A00 X   2      94.984  67.501  16.7580  0.00  0.00     0.000 S
ATOM     39   O  A00 X   2      95.146  67.801  15.3670  0.00  0.00     0.000 OA
ENDBRANCH 24 34
BRANCH 20 40
ATOM     40  O4  A00 X   3      89.132  66.137  16.2650  0.00  0.00     0.000 O
BRANCH 40 44
ATOM     41  C1  A00 X   3      88.520  68.243  13.3810  0.00  0.00     0.000 C
ATOM     42  C2  A00 X   3      87.425  67.709  14.3300  0.00  0.00     0.000 C
ATOM     43  C3  A00 X   3      87.557  66.176  14.5230  0.00  0.00     0.000 C
ATOM     44  C4  A00 X   3      88.955  65.703  14.8990  0.00  0.00     0.000 C
ATOM     45  C5  A00 X   3      89.998  66.276  13.8990  0.00  0.00     0.000 C
ATOM     46  O5  A00 X   3      89.830  67.722  13.7390  0.00  0.00     0.000 O
ATOM     47   O  A00 X   3      86.542  65.558  15.3130  0.00  0.00     0.000 O
ATOM     49  HD  A00 X   3      87.212  65.095  15.6080  0.00  0.00     0.000 HD
BRANCH 42 49
ATOM     49   O  A00 X   3      87.570  68.413  15.5830  0.00  0.00     0.000 O
ATOM     50   O  A00 X   3      86.508  68.370  17.7270  0.00  0.00     0.000 OA
ATOM     51   O  A00 X   3      85.167  68.211  15.7870  0.00  0.00     0.000 OA
ATOM     52   O  A00 X   3      86.267  70.255  16.2330  0.00  0.00     0.000 OA
ATOM     53   S  A00 X   3      86.312  68.843  16.3930  0.00  0.00     0.000 S
ENDBRANCH 42 49
BRANCH 45 54
ATOM     54   C  A00 X   3      89.983  65.516  12.5660  0.00  0.00     0.000 C
ATOM     55   O  A00 X   3      89.132  64.681  12.3400  0.00  0.00     0.000 OA
ATOM     56   O  A00 X   3      90.826  65.737  11.7110  0.00  0.00     0.000 OA
ENDBRANCH 45 54
BRANCH 41 57
ATOM     57  O4  A00 X   4      88.168  68.044  11.9940  0.00  0.00     0.000 O
BRANCH 57 61
ATOM     58  C1  A00 X   4      88.938  70.327   8.4110  0.00  0.00     0.000 C
ATOM     59  C2  A00 X   4      90.143  69.767   9.2070  0.00  0.00     0.000 C
ATOM     60  C3  A00 X   4      89.752  68.688  10.2370  0.00  0.00     0.000 C
ATOM     61  C4  A00 X   4      88.549  69.127  11.0980  0.00  0.00     0.000 C
ATOM     62  C5  A00 X   4      87.396  69.436  10.1110  0.00  0.00     0.000 C
ATOM     63  O5  A00 X   4      87.784  70.541   9.2560  0.00  0.00     0.000 O
BRANCH 59 66
ATOM     64   N  A00 X   4      90.787  70.837   9.9890  0.00  0.00     0.000 N
ATOM     66  HD  A00 X   4      90.291  71.501  10.2430  0.00  0.00     0.000 HD
ATOM     66   O  A00 X   4      91.949  71.472   7.9770  0.00  0.00     0.000 OA
ATOM     67   S  A00 X   4      92.108  71.519   9.3970  0.00  0.00     0.000 S
ATOM     68   O  A00 X   4      92.012  72.822   9.9860  0.00  0.00     0.000 OA
ATOM     69   O  A00 X   4      93.112  70.679   9.9860  0.00  0.00     0.000 OA
ENDBRANCH 59 66
BRANCH 62 70
ATOM     70   C  A00 X   4      86.055  69.792  10.7970  0.00  0.00     0.000 C
ATOM     71   O  A00 X   4      85.196  72.762  12.6790  0.00  0.00     0.000 OA
ATOM     72   O  A00 X   4      84.903  70.483  13.1920  0.00  0.00     0.000 OA
ATOM     73   O  A00 X   4      86.084  71.167  11.2110  0.00  0.00     0.000 O
ATOM     74   O  A00 X   4      87.120  71.480  13.3640  0.00  0.00     0.000 OA
ATOM     75   S  A00 X   4      85.842  71.480  12.7290  0.00  0.00     0.000 S
ENDBRANCH 62 70
ENDBRANCH 57 61
ENDBRANCH 41 57
ENDBRANCH 40 44
ENDBRANCH 20 40
ENDBRANCH 19 23
ENDBRANCH 1 19
TORSDOF 14
ENDMDL
MODEL 22
REMARK VINA RESULT:       0.0     66.715     71.870
ROOT
ATOM      1  C1  A00 X   1      72.109  20.236  83.3650  0.00  0.00     0.000 C
ATOM      2  C2  A00 X   1      73.456  19.468  83.3010  0.00  0.00     0.000 C
ATOM      3  C3  A00 X   1      73.983  19.123  81.8690  0.00  0.00     0.000 C
ATOM      4  C4  A00 X   1      72.945  19.254  80.7250  0.00  0.00     0.000 C
ATOM      5  C5  A00 X   1      71.508  19.161  81.2360  0.00  0.00     0.000 C
ATOM      6  O5  A00 X   1      71.360  20.291  82.1250  0.00  0.00     0.000 O
ATOM      7   O  A00 X   1      74.427  17.768  81.8600  0.00  0.00     0.000 O
ATOM      9  HD  A00 X   1      74.002  17.902  81.1180  0.00  0.00     0.000 HD
ATOM      9   O  A00 X   1      73.121  20.469  79.9980  0.00  0.00     0.000 O
ATOM     11  HD  A00 X   1      72.695  20.604  79.2560  0.00  0.00     0.000 HD
ENDROOT
BRANCH 2 11
ATOM     11   O  A00 X   1      74.445  20.260  83.9870  0.00  0.00     0.000 O
ATOM     12   O  A00 X   1      76.775  19.681  83.9620  0.00  0.00     0.000 OA
ATOM     13   O  A00 X   1      75.186  18.175  85.0220  0.00  0.00     0.000 OA
ATOM     14   O  A00 X   1      75.657  20.300  85.9820  0.00  0.00     0.000 OA
ATOM     15   S  A00 X   1      75.591  19.531  84.7690  0.00  0.00     0.000 S
ENDBRANCH 2 11
BRANCH 5 16
ATOM     16   C  A00 X   1      71.134  17.822  81.8810  0.00  0.00     0.000 C
ATOM     17   O  A00 X   1      70.086  17.741  82.4870  0.00  0.00     0.000 OA
ATOM     18   O  A00 X   1      71.845  16.840  81.8010  0.00  0.00     0.000 OA
ENDBRANCH 5 16
BRANCH 1 19
ATOM     19  O4  A00 X   2      71.272  19.812  84.4680  0.00  0.00     0.000 O
BRANCH 19 23
ATOM     20  C1  A00 X   2      69.909  23.775  85.3630  0.00  0.00     0.000 C
ATOM     21  C2  A00 X   2      71.078  23.214  86.2070  0.00  0.00     0.000 C
ATOM     22  C3  A00 X   2      71.729  22.002  85.5090  0.00  0.00     0.000 C
ATOM     23  C4  A00 X   2      70.665  20.933  85.1730  0.00  0.00     0.000 C
ATOM     24  C5  A00 X   2      69.545  21.621  84.3450  0.00  0.00     0.000 C
ATOM     25  O5  A00 X   2      68.968  22.691  85.1380  0.00  0.00     0.000 O
ATOM     26   O  A00 X   2      72.849  21.562  86.2960  0.00  0.00     0.000 O
ATOM     28  HD  A00 X   2      72.388  21.538  87.0290  0.00  0.00     0.000 HD
BRANCH 21 30
ATOM     28   N  A00 X   2      70.549  23.950  87.3600  0.00  0.00     0.000 N
ATOM     30  HD  A00 X   2      71.361  23.722  87.5590  0.00  0.00     0.000 HD
ATOM     30   O  A00 X   2      72.349  24.576  88.7110  0.00  0.00     0.000 OA
ATOM     31   S  A00 X   2      71.215  23.723  88.7750  0.00  0.00     0.000 S
ATOM     32   O  A00 X   2      70.201  24.134  89.6960  0.00  0.00     0.000 OA
ATOM     33   O  A00 X   2      71.466  22.319  88.9050  0.00  0.00     0.000 OA
ENDBRANCH 21 30
BRANCH 24 34
ATOM     34   C  A00 X   2      68.473  20.722  83.6860  0.00  0.00     0.000 C
ATOM     35   O  A00 X   2      64.929  20.828  84.5170  0.00  0.00     0.000 OA
ATOM     36   O  A00 X   2      67.247  20.728  84.4450  0.00  0.00     0.000 O
ATOM     37   O  A00 X   2      66.177  22.707  83.8080  0.00  0.00     0.000 OA
ATOM     38   S  A00 X   2      65.991  21.294  83.6870  0.00  0.00     0.000 S
ATOM     39   O  A00 X   2      66.025  20.730  82.3710  0.00  0.00     0.000 OA
ENDBRANCH 24 34
BRANCH 20 40
ATOM     40  O4  A00 X   3      70.489  24.173  84.1120  0.00  0.00     0.000 O
BRANCH 40 44
ATOM     41  C1  A00 X   3      70.262  24.230  80.4970  0.00  0.00     0.000 C
ATOM     42  C2  A00 X   3      71.433  24.817  81.3150  0.00  0.00     0.000 C
ATOM     43  C3  A00 X   3      70.913  25.759  82.4310  0.00  0.00     0.000 C
ATOM     44  C4  A00 X   3      69.816  25.161  83.3040  0.00  0.00     0.000 C
ATOM     45  C5  A00 X   3      68.674  24.598  82.4110  0.00  0.00     0.000 C
ATOM     46  O5  A00 X   3      69.211  23.724  81.3660  0.00  0.00     0.000 O
ATOM     47   O  A00 X   3      71.913  26.428  83.1980  0.00  0.00     0.000 O
ATOM     49  HD  A00 X   3      71.365  26.263  83.8480  0.00  0.00     0.000 HD
BRANCH 42 49
ATOM     49   O  A00 X   3      72.167  23.701  81.8640  0.00  0.00     0.000 O
ATOM     50   O  A00 X   3      74.062  23.411  83.2970  0.00  0.00     0.000 OA
ATOM     51   O  A00 X   3      74.134  25.093  81.6370  0.00  0.00     0.000 OA
ATOM     52   O  A00 X   3      74.148  22.831  80.9510  0.00  0.00     0.000 OA
ATOM     53   S  A00 X   3      73.720  23.748  81.9510  0.00  0.00     0.000 S
ENDBRANCH 42 49
BRANCH 45 54
ATOM     54   C  A00 X   3      67.779  25.715  81.8630  0.00  0.00     0.000 C
ATOM     55   O  A00 X   3      66.778  25.450  81.2280  0.00  0.00     0.000 OA
ATOM     56   O  A00 X   3      68.056  26.889  82.0520  0.00  0.00     0.000 OA
ENDBRANCH 45 54
BRANCH 41 57
ATOM     57  O4  A00 X   4      69.796  25.157  79.4910  0.00  0.00     0.000 O
BRANCH 57 61
ATOM     58  C1  A00 X   4      68.154  24.619  75.5340  0.00  0.00     0.000 C
ATOM     59  C2  A00 X   4      67.388  24.024  76.7420  0.00  0.00     0.000 C
ATOM     60  C3  A00 X   4      67.860  24.577  78.1020  0.00  0.00     0.000 C
ATOM     61  C4  A00 X   4      69.399  24.550  78.2280  0.00  0.00     0.000 C
ATOM     62  C5  A00 X   4      69.947  25.378  77.0400  0.00  0.00     0.000 C
ATOM     63  O5  A00 X   4      69.571  24.734  75.7950  0.00  0.00     0.000 O
BRANCH 59 66
ATOM     64   N  A00 X   4      67.592  22.567  76.8230  0.00  0.00     0.000 N
ATOM     66  HD  A00 X   4      68.332  22.249  76.5050  0.00  0.00     0.000 HD
ATOM     66   O  A00 X   4      65.875  22.333  75.1520  0.00  0.00     0.000 OA
ATOM     67   S  A00 X   4      66.452  21.608  76.2400  0.00  0.00     0.000 S
ATOM     68   O  A00 X   4      67.238  20.467  75.8720  0.00  0.00     0.000 OA
ATOM     69   O  A00 X   4      65.654  21.419  77.4170  0.00  0.00     0.000 OA
ENDBRANCH 59 66
BRANCH 62 70
ATOM     70   C  A00 X   4      71.484  25.562  77.0530  0.00  0.00     0.000 C
ATOM     71   O  A00 X   4      74.063  23.085  76.4890  0.00  0.00     0.000 OA
ATOM     72   O  A00 X   4      73.814  24.677  78.2060  0.00  0.00     0.000 OA
ATOM     73   O  A00 X   4      72.109  24.376  76.5370  0.00  0.00     0.000 O
ATOM     74   O  A00 X   4      72.427  22.673  78.2110  0.00  0.00     0.000 OA
ATOM     75   S  A00 X   4      73.150  23.639  77.4490  0.00  0.00     0.000 S
ENDBRANCH 62 70
ENDBRANCH 57 61
ENDBRANCH 41 57
ENDBRANCH 40 44
ENDBRANCH 20 40
ENDBRANCH 19 23
ENDBRANCH 1 19
TORSDOF 14
ENDMDL
MODEL 23
REMARK VINA RESULT:       0.0     54.603     58.631
ROOT
ATOM      1  C1  A00 X   1      28.035  29.445  56.6320  0.00  0.00     0.000 C
ATOM      2  C2  A00 X   1      28.998  28.424  55.9690  0.00  0.00     0.000 C
ATOM      3  C3  A00 X   1      30.512  28.570  56.3340  0.00  0.00     0.000 C
ATOM      4  C4  A00 X   1      30.912  29.909  57.0040  0.00  0.00     0.000 C
ATOM      5  C5  A00 X   1      29.916  31.028  56.6980  0.00  0.00     0.000 C
ATOM      6  O5  A00 X   1      28.670  30.577  57.2760  0.00  0.00     0.000 O
ATOM      7   O  A00 X   1      31.283  28.468  55.1390  0.00  0.00     0.000 O
ATOM      9  HD  A00 X   1      31.630  29.103  55.6140  0.00  0.00     0.000 HD
ATOM      9   O  A00 X   1      31.057  29.764  58.4160  0.00  0.00     0.000 O
ATOM     11  HD  A00 X   1      31.404  30.400  58.8910  0.00  0.00     0.000 HD
ENDROOT
BRANCH 2 11
ATOM     11   O  A00 X   1      28.552  27.103  56.3300  0.00  0.00     0.000 O
ATOM     12   O  A00 X   1      29.835  25.142  55.8030  0.00  0.00     0.000 OA
ATOM     13   O  A00 X   1      28.931  26.494  53.9940  0.00  0.00     0.000 OA
ATOM     14   O  A00 X   1      27.480  25.245  55.4060  0.00  0.00     0.000 OA
ATOM     15   S  A00 X   1      28.739  25.933  55.3030  0.00  0.00     0.000 S
ENDBRANCH 2 11
BRANCH 5 16
ATOM     16   C  A00 X   1      29.803  31.409  55.2190  0.00  0.00     0.000 C
ATOM     17   O  A00 X   1      28.889  32.128  54.8720  0.00  0.00     0.000 OA
ATOM     18   O  A00 X   1      30.598  31.023  54.3840  0.00  0.00     0.000 OA
ENDBRANCH 5 16
BRANCH 1 19
ATOM     19  O4  A00 X   2      26.970  29.870  55.7470  0.00  0.00     0.000 O
BRANCH 19 23
ATOM     20  C1  A00 X   2      23.994  29.889  58.8310  0.00  0.00     0.000 C
ATOM     21  C2  A00 X   2      24.077  28.636  57.9250  0.00  0.00     0.000 C
ATOM     22  C3  A00 X   2      25.427  28.585  57.1800  0.00  0.00     0.000 C
ATOM     23  C4  A00 X   2      25.673  29.901  56.4080  0.00  0.00     0.000 C
ATOM     24  C5  A00 X   2      25.545  31.074  57.4180  0.00  0.00     0.000 C
ATOM     25  O5  A00 X   2      24.212  31.054  57.9920  0.00  0.00     0.000 O
ATOM     26   O  A00 X   2      25.482  27.373  56.4090  0.00  0.00     0.000 O
ATOM     28  HD  A00 X   2      24.707  27.509  56.0470  0.00  0.00     0.000 HD
BRANCH 21 30
ATOM     28   N  A00 X   2      22.620  28.509  58.0310  0.00  0.00     0.000 N
ATOM     30  HD  A00 X   2      22.917  27.753  57.7300  0.00  0.00     0.000 HD
ATOM     30   O  A00 X   2      22.080  26.238  57.9290  0.00  0.00     0.000 OA
ATOM     31   S  A00 X   2      21.889  27.414  57.1560  0.00  0.00     0.000 S
ATOM     32   O  A00 X   2      20.539  27.880  57.0890  0.00  0.00     0.000 OA
ATOM     33   O  A00 X   2      22.490  27.441  55.8560  0.00  0.00     0.000 OA
ENDBRANCH 21 30
BRANCH 24 34
ATOM     34   C  A00 X   2      25.972  32.485  56.9480  0.00  0.00     0.000 C
ATOM     35   O  A00 X   2      23.708  35.326  56.7020  0.00  0.00     0.000 OA
ATOM     36   O  A00 X   2      24.826  33.294  56.6150  0.00  0.00     0.000 O
ATOM     37   O  A00 X   2      24.040  34.068  58.6770  0.00  0.00     0.000 OA
ATOM     38   S  A00 X   2      24.642  34.588  57.4880  0.00  0.00     0.000 S
ATOM     39   O  A00 X   2      25.939  35.184  57.6070  0.00  0.00     0.000 OA
ENDBRANCH 24 34
BRANCH 20 40
ATOM     40  O4  A00 X   3      25.075  29.763  59.7670  0.00  0.00     0.000 O
BRANCH 40 44
ATOM     41  C1  A00 X   3      27.816  31.342  61.5330  0.00  0.00     0.000 C
ATOM     42  C2  A00 X   3      27.437  29.850  61.6490  0.00  0.00     0.000 C
ATOM     43  C3  A00 X   3      25.926  29.682  61.9550  0.00  0.00     0.000 C
ATOM     44  C4  A00 X   3      25.003  30.462  61.0280  0.00  0.00     0.000 C
ATOM     45  C5  A00 X   3      25.444  31.952  60.9670  0.00  0.00     0.000 C
ATOM     46  O5  A00 X   3      26.877  32.062  60.6870  0.00  0.00     0.000 O
ATOM     47   O  A00 X   3      25.479  28.345  62.1700  0.00  0.00     0.000 O
ATOM     49  HD  A00 X   3      24.791  28.623  61.7220  0.00  0.00     0.000 HD
BRANCH 42 49
ATOM     49   O  A00 X   3      27.795  29.223  60.3980  0.00  0.00     0.000 O
ATOM     50   O  A00 X   3      27.611  27.037  59.4390  0.00  0.00     0.000 OA
ATOM     51   O  A00 X   3      28.247  27.239  61.7080  0.00  0.00     0.000 OA
ATOM     52   O  A00 X   3      29.755  27.978  60.0450  0.00  0.00     0.000 OA
ATOM     53   S  A00 X   3      28.386  27.783  60.3800  0.00  0.00     0.000 S
ENDBRANCH 42 49
BRANCH 45 54
ATOM     54   C  A00 X   3      25.013  32.723  62.2210  0.00  0.00     0.000 C
ATOM     55   O  A00 X   3      24.515  32.142  63.1630  0.00  0.00     0.000 OA
ATOM     56   O  A00 X   3      25.162  33.933  62.2920  0.00  0.00     0.000 OA
ENDBRANCH 45 54
BRANCH 41 57
ATOM     57  O4  A00 X   4      28.018  31.944  62.8310  0.00  0.00     0.000 O
BRANCH 57 61
ATOM     58  C1  A00 X   4      30.667  35.043  64.2530  0.00  0.00     0.000 C
ATOM     59  C2  A00 X   4      29.626  35.400  63.1630  0.00  0.00     0.000 C
ATOM     60  C3  A00 X   4      28.520  34.338  62.9970  0.00  0.00     0.000 C
ATOM     61  C4  A00 X   4      29.103  32.912  62.9010  0.00  0.00     0.000 C
ATOM     62  C5  A00 X   4      29.934  32.693  64.1900  0.00  0.00     0.000 C
ATOM     63  O5  A00 X   4      31.030  33.643  64.2180  0.00  0.00     0.000 O
BRANCH 59 66
ATOM     64   N  A00 X   4      30.274  35.496  61.8420  0.00  0.00     0.000 N
ATOM     66  HD  A00 X   4      30.986  35.020  61.7100  0.00  0.00     0.000 HD
ATOM     66   O  A00 X   4      30.944  37.729  62.4440  0.00  0.00     0.000 OA
ATOM     67   S  A00 X   4      30.646  36.948  61.2850  0.00  0.00     0.000 S
ATOM     68   O  A00 X   4      31.769  36.626  60.4530  0.00  0.00     0.000 OA
ATOM     69   O  A00 X   4      29.446  37.256  60.5600  0.00  0.00     0.000 OA
ENDBRANCH 59 66
BRANCH 62 70
ATOM     70   C  A00 X   4      30.516  31.267  64.3320  0.00  0.00     0.000 C
ATOM     71   O  A00 X   4      33.141  29.693  62.3970  0.00  0.00     0.000 OA
ATOM     72   O  A00 X   4      30.995  28.922  62.9850  0.00  0.00     0.000 OA
ATOM     73   O  A00 X   4      31.702  31.156  63.5280  0.00  0.00     0.000 O
ATOM     74   O  A00 X   4      31.234  30.597  61.2310  0.00  0.00     0.000 OA
ATOM     75   S  A00 X   4      31.745  30.030  62.4370  0.00  0.00     0.000 S
ENDBRANCH 62 70
ENDBRANCH 57 61
ENDBRANCH 41 57
ENDBRANCH 40 44
ENDBRANCH 20 40
ENDBRANCH 19 23
ENDBRANCH 1 19
TORSDOF 14
ENDMDL
MODEL 24
REMARK VINA RESULT:       0.0     41.768     45.565
ROOT
ATOM      1  C1  A00 X   1      34.986  42.221  83.8300  0.00  0.00     0.000 C
ATOM      2  C2  A00 X   1      34.721  42.685  85.2870  0.00  0.00     0.000 C
ATOM      3  C3  A00 X   1      33.525  43.673  85.4870  0.00  0.00     0.000 C
ATOM      4  C4  A00 X   1      32.992  44.348  84.1970  0.00  0.00     0.000 C
ATOM      5  C5  A00 X   1      34.035  44.362  83.0800  0.00  0.00     0.000 C
ATOM      6  O5  A00 X   1      34.292  42.967  82.8000  0.00  0.00     0.000 O
ATOM      7   O  A00 X   1      33.941  44.727  86.3530  0.00  0.00     0.000 O
ATOM      9  HD  A00 X   1      33.470  45.086  85.7210  0.00  0.00     0.000 HD
ATOM      9   O  A00 X   1      31.798  43.718  83.7340  0.00  0.00     0.000 O
ATOM     11  HD  A00 X   1      31.327  44.077  83.1020  0.00  0.00     0.000 HD
ENDROOT
BRANCH 2 11
ATOM     11   O  A00 X   1      34.497  41.509  86.0880  0.00  0.00     0.000 O
ATOM     12   O  A00 X   1      33.773  41.647  88.3740  0.00  0.00     0.000 OA
ATOM     13   O  A00 X   1      35.948  42.545  87.7580  0.00  0.00     0.000 OA
ATOM     14   O  A00 X   1      35.555  40.200  87.7070  0.00  0.00     0.000 OA
ATOM     15   S  A00 X   1      34.969  41.508  87.5830  0.00  0.00     0.000 S
ENDBRANCH 2 11
BRANCH 5 16
ATOM     16   C  A00 X   1      35.302  45.168  83.3860  0.00  0.00     0.000 C
ATOM     17   O  A00 X   1      36.258  45.051  82.6480  0.00  0.00     0.000 OA
ATOM     18   O  A00 X   1      35.380  45.924  84.3340  0.00  0.00     0.000 OA
ENDBRANCH 5 16
BRANCH 1 19
ATOM     19  O4  A00 X   2      36.397  42.094  83.5300  0.00  0.00     0.000 O
BRANCH 19 23
ATOM     20  C1  A00 X   2      35.894  38.525  81.2100  0.00  0.00     0.000 C
ATOM     21  C2  A00 X   2      36.338  38.363  82.6840  0.00  0.00     0.000 C
ATOM     22  C3  A00 X   2      36.059  39.650  83.4880  0.00  0.00     0.000 C
ATOM     23  C4  A00 X   2      36.705  40.873  82.7970  0.00  0.00     0.000 C
ATOM     24  C5  A00 X   2      36.196  40.913  81.3300  0.00  0.00     0.000 C
ATOM     25  O5  A00 X   2      36.584  39.682  80.6670  0.00  0.00     0.000 O
ATOM     26   O  A00 X   2      36.425  39.426  84.8600  0.00  0.00     0.000 O
ATOM     28  HD  A00 X   2      37.207  39.116  84.6530  0.00  0.00     0.000 HD
BRANCH 21 30
ATOM     28   N  A00 X   2      37.137  37.205  82.2720  0.00  0.00     0.000 N
ATOM     30  HD  A00 X   2      37.070  37.169  83.1350  0.00  0.00     0.000 HD
ATOM     30   O  A00 X   2      37.203  35.695  84.0540  0.00  0.00     0.000 OA
ATOM     31   S  A00 X   2      38.097  36.529  83.3310  0.00  0.00     0.000 S
ATOM     32   O  A00 X   2      39.054  35.835  82.5270  0.00  0.00     0.000 OA
ATOM     33   O  A00 X   2      38.732  37.586  84.0610  0.00  0.00     0.000 OA
ENDBRANCH 21 30
BRANCH 24 34
ATOM     34   C  A00 X   2      36.512  42.171  80.4870  0.00  0.00     0.000 C
ATOM     35   O  A00 X   2      39.877  43.396  79.8310  0.00  0.00     0.000 OA
ATOM     36   O  A00 X   2      37.869  42.610  80.6910  0.00  0.00     0.000 O
ATOM     37   O  A00 X   2      39.147  41.204  79.3250  0.00  0.00     0.000 OA
ATOM     38   S  A00 X   2      38.782  42.585  79.4100  0.00  0.00     0.000 S
ATOM     39   O  A00 X   2      37.997  43.131  78.3440  0.00  0.00     0.000 OA
ENDBRANCH 24 34
BRANCH 20 40
ATOM     40  O4  A00 X   3      34.483  38.787  81.2580  0.00  0.00     0.000 O
BRANCH 40 44
ATOM     41  C1  A00 X   3      31.712  40.771  80.0310  0.00  0.00     0.000 C
ATOM     42  C2  A00 X   3      31.598  39.673  81.1100  0.00  0.00     0.000 C
ATOM     43  C3  A00 X   3      32.260  38.355  80.6330  0.00  0.00     0.000 C
ATOM     44  C4  A00 X   3      33.675  38.516  80.0920  0.00  0.00     0.000 C
ATOM     45  C5  A00 X   3      33.707  39.633  79.0100  0.00  0.00     0.000 C
ATOM     46  O5  A00 X   3      33.063  40.853  79.5000  0.00  0.00     0.000 O
ATOM     47   O  A00 X   3      32.140  37.242  81.5160  0.00  0.00     0.000 O
ATOM     49  HD  A00 X   3      32.954  37.094  81.2610  0.00  0.00     0.000 HD
BRANCH 42 49
ATOM     49   O  A00 X   3      32.236  40.183  82.3010  0.00  0.00     0.000 O
ATOM     50   O  A00 X   3      32.701  39.366  84.5030  0.00  0.00     0.000 OA
ATOM     51   O  A00 X   3      30.596  38.898  83.5330  0.00  0.00     0.000 OA
ATOM     52   O  A00 X   3      31.094  41.132  84.1200  0.00  0.00     0.000 OA
ATOM     53   S  A00 X   3      31.634  39.884  83.7050  0.00  0.00     0.000 S
ENDBRANCH 42 49
BRANCH 45 54
ATOM     54   C  A00 X   3      33.137  39.144  77.6740  0.00  0.00     0.000 C
ATOM     55   O  A00 X   3      33.280  39.801  76.6630  0.00  0.00     0.000 OA
ATOM     56   O  A00 X   3      32.529  38.087  77.6020  0.00  0.00     0.000 OA
ENDBRANCH 45 54
BRANCH 41 57
ATOM     57  O4  A00 X   4      30.690  40.631  79.0180  0.00  0.00     0.000 O
BRANCH 57 61
ATOM     58  C1  A00 X   4      28.526  43.492  76.6150  0.00  0.00     0.000 C
ATOM     59  C2  A00 X   4      30.067  43.421  76.4740  0.00  0.00     0.000 C
ATOM     60  C3  A00 X   4      30.683  42.149  77.0920  0.00  0.00     0.000 C
ATOM     61  C4  A00 X   4      30.144  41.884  78.5140  0.00  0.00     0.000 C
ATOM     62  C5  A00 X   4      28.604  41.783  78.3850  0.00  0.00     0.000 C
ATOM     63  O5  A00 X   4      28.080  43.053  77.9180  0.00  0.00     0.000 O
BRANCH 59 66
ATOM     64   N  A00 X   4      30.700  44.546  77.1850  0.00  0.00     0.000 N
ATOM     66  HD  A00 X   4      30.278  44.878  77.8650  0.00  0.00     0.000 HD
ATOM     66   O  A00 X   4      30.228  45.902  75.2520  0.00  0.00     0.000 OA
ATOM     67   S  A00 X   4      31.161  45.818  76.3320  0.00  0.00     0.000 S
ATOM     68   O  A00 X   4      31.052  46.848  77.3230  0.00  0.00     0.000 OA
ATOM     69   O  A00 X   4      32.511  45.440  76.0230  0.00  0.00     0.000 OA
ENDBRANCH 59 66
BRANCH 62 70
ATOM     70   C  A00 X   4      27.882  41.407  79.7010  0.00  0.00     0.000 C
ATOM     71   O  A00 X   4      27.494  43.383  82.7100  0.00  0.00     0.000 OA
ATOM     72   O  A00 X   4      28.209  41.159  82.4170  0.00  0.00     0.000 OA
ATOM     73   O  A00 X   4      27.761  42.577  80.5270  0.00  0.00     0.000 O
ATOM     74   O  A00 X   4      29.719  42.991  81.8680  0.00  0.00     0.000 OA
ATOM     75   S  A00 X   4      28.374  42.524  81.9690  0.00  0.00     0.000 S
ENDBRANCH 62 70
ENDBRANCH 57 61
ENDBRANCH 41 57
ENDBRANCH 40 44
ENDBRANCH 20 40
ENDBRANCH 19 23
ENDBRANCH 1 19
TORSDOF 14
ENDMDL
MODEL 25
REMARK VINA RESULT:       0.0     91.360     96.977
ROOT
ATOM      1  C1  A00 X   1      92.304  38.652  69.2130  0.00  0.00     0.000 C
ATOM      2  C2  A00 X   1      92.151  39.149  70.6750  0.00  0.00     0.000 C
ATOM      3  C3  A00 X   1      90.788  39.828  71.0310  0.00  0.00     0.000 C
ATOM      4  C4  A00 X   1      89.916  40.252  69.8210  0.00  0.00     0.000 C
ATOM      5  C5  A00 X   1      90.743  40.433  68.5490  0.00  0.00     0.000 C
ATOM      6  O5  A00 X   1      91.298  39.125  68.2830  0.00  0.00     0.000 O
ATOM      7   O  A00 X   1      91.050  41.015  71.7770  0.00  0.00     0.000 O
ATOM      9  HD  A00 X   1      90.415  41.200  71.2180  0.00  0.00     0.000 HD
ATOM      9   O  A00 X   1      88.864  39.317  69.5840  0.00  0.00     0.000 O
ATOM     11  HD  A00 X   1      88.229  39.501  69.0250  0.00  0.00     0.000 HD
ENDROOT
BRANCH 2 11
ATOM     11   O  A00 X   1      92.354  38.018  71.5450  0.00  0.00     0.000 O
ATOM     12   O  A00 X   1      92.386  38.246  73.9360  0.00  0.00     0.000 OA
ATOM     13   O  A00 X   1      94.110  39.338  72.6130  0.00  0.00     0.000 OA
ATOM     14   O  A00 X   1      94.037  36.966  72.7740  0.00  0.00     0.000 OA
ATOM     15   S  A00 X   1      93.275  38.185  72.8030  0.00  0.00     0.000 S
ENDBRANCH 2 11
BRANCH 5 16
ATOM     16   C  A00 X   1      91.796  41.544  68.6130  0.00  0.00     0.000 C
ATOM     17   O  A00 X   1      92.617  41.619  67.7220  0.00  0.00     0.000 OA
ATOM     18   O  A00 X   1      91.834  42.354  69.5170  0.00  0.00     0.000 OA
ENDBRANCH 5 16
BRANCH 1 19
ATOM     19  O4  A00 X   2      93.641  38.849  68.6900  0.00  0.00     0.000 O
BRANCH 19 23
ATOM     20  C1  A00 X   2      93.632  35.195  66.4510  0.00  0.00     0.000 C
ATOM     21  C2  A00 X   2      94.331  35.185  67.8320  0.00  0.00     0.000 C
ATOM     22  C3  A00 X   2      93.886  36.394  68.6810  0.00  0.00     0.000 C
ATOM     23  C4  A00 X   2      94.107  37.713  67.9070  0.00  0.00     0.000 C
ATOM     24  C5  A00 X   2      93.377  37.590  66.5410  0.00  0.00     0.000 C
ATOM     25  O5  A00 X   2      93.935  36.465  65.8130  0.00  0.00     0.000 O
ATOM     26   O  A00 X   2      94.508  36.302  69.9750  0.00  0.00     0.000 O
ATOM     28  HD  A00 X   2      95.298  36.178  69.6420  0.00  0.00     0.000 HD
BRANCH 21 30
ATOM     28   N  A00 X   2      95.308  34.238  67.2870  0.00  0.00     0.000 N
ATOM     30  HD  A00 X   2      95.386  34.210  68.1490  0.00  0.00     0.000 HD
ATOM     30   O  A00 X   2      96.006  32.835  69.0210  0.00  0.00     0.000 OA
ATOM     31   S  A00 X   2      96.553  33.837  68.1760  0.00  0.00     0.000 S
ATOM     32   O  A00 X   2      97.512  33.368  67.2240  0.00  0.00     0.000 OA
ATOM     33   O  A00 X   2      97.024  35.033  68.8080  0.00  0.00     0.000 OA
ENDBRANCH 21 30
BRANCH 24 34
ATOM     34   C  A00 X   2      93.249  38.861  65.6690  0.00  0.00     0.000 C
ATOM     35   O  A00 X   2      94.720  39.221  62.3580  0.00  0.00     0.000 OA
ATOM     36   O  A00 X   2      94.207  38.854  64.5920  0.00  0.00     0.000 O
ATOM     37   O  A00 X   2      93.245  37.475  62.9660  0.00  0.00     0.000 OA
ATOM     38   S  A00 X   2      93.590  38.852  63.1460  0.00  0.00     0.000 S
ATOM     39   O  A00 X   2      92.523  39.807  63.1600  0.00  0.00     0.000 OA
ENDBRANCH 24 34
BRANCH 20 40
ATOM     40  O4  A00 X   3      92.226  35.120  66.7270  0.00  0.00     0.000 O
BRANCH 40 44
ATOM     41  C1  A00 X   3      88.876  36.286  65.9910  0.00  0.00     0.000 C
ATOM     42  C2  A00 X   3      89.226  35.242  67.0730  0.00  0.00     0.000 C
ATOM     43  C3  A00 X   3      90.116  34.115  66.4880  0.00  0.00     0.000 C
ATOM     44  C4  A00 X   3      91.334  34.606  65.7150  0.00  0.00     0.000 C
ATOM     45  C5  A00 X   3      90.900  35.647  64.6450  0.00  0.00     0.000 C
ATOM     46  O5  A00 X   3      90.054  36.685  65.2380  0.00  0.00     0.000 O
ATOM     47   O  A00 X   3      90.431  33.045  67.3780  0.00  0.00     0.000 O
ATOM     49  HD  A00 X   3      91.203  33.098  66.9870  0.00  0.00     0.000 HD
BRANCH 42 49
ATOM     49   O  A00 X   3      89.899  35.946  68.1390  0.00  0.00     0.000 O
ATOM     50   O  A00 X   3      90.919  35.366  70.2260  0.00  0.00     0.000 OA
ATOM     51   O  A00 X   3      88.876  34.336  69.6280  0.00  0.00     0.000 OA
ATOM     52   O  A00 X   3      88.869  36.645  70.1300  0.00  0.00     0.000 OA
ATOM     53   S  A00 X   3      89.637  35.560  69.6240  0.00  0.00     0.000 S
ENDBRANCH 42 49
BRANCH 45 54
ATOM     54   C  A00 X   3      90.262  34.974  63.4240  0.00  0.00     0.000 C
ATOM     55   O  A00 X   3      90.042  35.608  62.4120  0.00  0.00     0.000 OA
ATOM     56   O  A00 X   3      89.963  33.790  63.4470  0.00  0.00     0.000 OA
ENDBRANCH 45 54
BRANCH 41 57
ATOM     57  O4  A00 X   4      87.772  35.851  65.1660  0.00  0.00     0.000 O
BRANCH 57 61
ATOM     58  C1  A00 X   4      84.576  37.965  63.1770  0.00  0.00     0.000 C
ATOM     59  C2  A00 X   4      86.038  38.275  62.7670  0.00  0.00     0.000 C
ATOM     60  C3  A00 X   4      87.052  37.227  63.2690  0.00  0.00     0.000 C
ATOM     61  C4  A00 X   4      86.848  36.902  64.7640  0.00  0.00     0.000 C
ATOM     62  C5  A00 X   4      85.385  36.413  64.9080  0.00  0.00     0.000 C
ATOM     63  O5  A00 X   4      84.484  37.489  64.5390  0.00  0.00     0.000 O
BRANCH 59 66
ATOM     64   N  A00 X   4      86.474  39.555  63.3550  0.00  0.00     0.000 N
ATOM     66  HD  A00 X   4      86.103  39.801  64.0970  0.00  0.00     0.000 HD
ATOM     66   O  A00 X   4      85.353  40.659  61.5320  0.00  0.00     0.000 OA
ATOM     67   S  A00 X   4      86.445  40.861  62.4310  0.00  0.00     0.000 S
ATOM     68   O  A00 X   4      86.247  41.875  63.4250  0.00  0.00     0.000 OA
ATOM     69   O  A00 X   4      87.774  40.818  61.8910  0.00  0.00     0.000 OA
ENDBRANCH 59 66
BRANCH 62 70
ATOM     70   C  A00 X   4      85.017  35.931  66.3320  0.00  0.00     0.000 C
ATOM     71   O  A00 X   4      84.640  37.886  69.3560  0.00  0.00     0.000 OA
ATOM     72   O  A00 X   4      85.847  35.905  68.9490  0.00  0.00     0.000 OA
ATOM     73   O  A00 X   4      84.737  37.070  67.1620  0.00  0.00     0.000 O
ATOM     74   O  A00 X   4      86.717  38.033  68.1400  0.00  0.00     0.000 OA
ATOM     75   S  A00 X   4      85.576  37.244  68.4750  0.00  0.00     0.000 S
ENDBRANCH 62 70
ENDBRANCH 57 61
ENDBRANCH 41 57
ENDBRANCH 40 44
ENDBRANCH 20 40
ENDBRANCH 19 23
ENDBRANCH 1 19
TORSDOF 14
ENDMDL
MODEL 26
REMARK VINA RESULT:       0.0     73.163     78.673
ROOT
ATOM      1  C1  A00 X   1      10.782  49.401  40.4900  0.00  0.00     0.000 C
ATOM      2  C2  A00 X   1      12.312  49.476  40.2420  0.00  0.00     0.000 C
ATOM      3  C3  A00 X   1      12.844  48.712  38.9850  0.00  0.00     0.000 C
ATOM      4  C4  A00 X   1      11.862  47.687  38.3620  0.00  0.00     0.000 C
ATOM      5  C5  A00 X   1      10.807  47.216  39.3620  0.00  0.00     0.000 C
ATOM      6  O5  A00 X   1      10.070  48.410  39.7090  0.00  0.00     0.000 O
ATOM      7   O  A00 X   1      14.011  47.981  39.3540  0.00  0.00     0.000 O
ATOM      9  HD  A00 X   1      13.542  47.468  38.8380  0.00  0.00     0.000 HD
ATOM      9   O  A00 X   1      11.222  48.217  37.2010  0.00  0.00     0.000 O
ATOM     11  HD  A00 X   1      10.753  47.705  36.6840  0.00  0.00     0.000 HD
ENDROOT
BRANCH 2 11
ATOM     11   O  A00 X   1      12.670  50.868  40.1310  0.00  0.00     0.000 O
ATOM     12   O  A00 X   1      14.879  51.564  39.4960  0.00  0.00     0.000 OA
ATOM     13   O  A00 X   1      14.568  50.346  41.5780  0.00  0.00     0.000 OA
ATOM     14   O  A00 X   1      13.731  52.560  41.3410  0.00  0.00     0.000 OA
ATOM     15   S  A00 X   1      14.068  51.336  40.6650  0.00  0.00     0.000 S
ENDBRANCH 2 11
BRANCH 5 16
ATOM     16   C  A00 X   1      11.357  46.461  40.5770  0.00  0.00     0.000 C
ATOM     17   O  A00 X   1      10.613  46.241  41.5100  0.00  0.00     0.000 OA
ATOM     18   O  A00 X   1      12.506  46.071  40.6360  0.00  0.00     0.000 OA
ENDBRANCH 5 16
BRANCH 1 19
ATOM     19  O4  A00 X   2      10.445  49.308  41.8960  0.00  0.00     0.000 O
BRANCH 19 23
ATOM     20  C1  A00 X   2       7.052  51.905  41.5660  0.00  0.00     0.000 C
ATOM     21  C2  A00 X   2       8.377  52.521  42.0780  0.00  0.00     0.000 C
ATOM     22  C3  A00 X   2       9.575  51.611  41.7360  0.00  0.00     0.000 C
ATOM     23  C4  A00 X   2       9.336  50.178  42.2630  0.00  0.00     0.000 C
ATOM     24  C5  A00 X   2       7.977  49.684  41.6970  0.00  0.00     0.000 C
ATOM     25  O5  A00 X   2       6.929  50.580  42.1490  0.00  0.00     0.000 O
ATOM     26   O  A00 X   2      10.784  52.257  42.1690  0.00  0.00     0.000 O
ATOM     28  HD  A00 X   2      10.475  52.413  42.9630  0.00  0.00     0.000 HD
BRANCH 21 30
ATOM     28   N  A00 X   2       7.586  53.401  42.9440  0.00  0.00     0.000 N
ATOM     30  HD  A00 X   2       8.385  53.733  42.9120  0.00  0.00     0.000 HD
ATOM     30   O  A00 X   2       8.744  55.415  43.1870  0.00  0.00     0.000 OA
ATOM     31   S  A00 X   2       8.341  54.315  43.9890  0.00  0.00     0.000 S
ATOM     32   O  A00 X   2       7.338  54.614  44.9640  0.00  0.00     0.000 OA
ATOM     33   O  A00 X   2       9.381  53.521  44.5720  0.00  0.00     0.000 OA
ENDBRANCH 21 30
BRANCH 24 34
ATOM     34   C  A00 X   2       7.610  48.193  41.8880  0.00  0.00     0.000 C
ATOM     35   O  A00 X   2       7.373  46.548  45.1270  0.00  0.00     0.000 OA
ATOM     36   O  A00 X   2       7.936  47.740  43.2170  0.00  0.00     0.000 O
ATOM     37   O  A00 X   2       6.158  48.489  44.5390  0.00  0.00     0.000 OA
ATOM     38   S  A00 X   2       6.714  47.254  44.0780  0.00  0.00     0.000 S
ATOM     39   O  A00 X   2       5.907  46.444  43.2150  0.00  0.00     0.000 OA
ENDBRANCH 24 34
BRANCH 20 40
ATOM     40  O4  A00 X   3       7.201  51.791  40.1430  0.00  0.00     0.000 O
BRANCH 40 44
ATOM     41  C1  A00 X   3       6.770  49.737  37.1910  0.00  0.00     0.000 C
ATOM     42  C2  A00 X   3       7.400  51.147  37.1980  0.00  0.00     0.000 C
ATOM     43  C3  A00 X   3       6.486  52.159  37.9360  0.00  0.00     0.000 C
ATOM     44  C4  A00 X   3       6.022  51.705  39.3140  0.00  0.00     0.000 C
ATOM     45  C5  A00 X   3       5.398  50.284  39.2250  0.00  0.00     0.000 C
ATOM     46  O5  A00 X   3       6.289  49.366  38.5120  0.00  0.00     0.000 O
ATOM     47   O  A00 X   3       6.927  53.516  37.9300  0.00  0.00     0.000 O
ATOM     49  HD  A00 X   3       6.628  53.498  38.7430  0.00  0.00     0.000 HD
BRANCH 42 49
ATOM     49   O  A00 X   3       8.688  51.032  37.8410  0.00  0.00     0.000 O
ATOM     50   O  A00 X   3      10.456  52.524  38.4560  0.00  0.00     0.000 OA
ATOM     51   O  A00 X   3       9.404  52.806  36.3580  0.00  0.00     0.000 OA
ATOM     52   O  A00 X   3      10.736  50.884  36.7010  0.00  0.00     0.000 OA
ATOM     53   S  A00 X   3       9.902  51.856  37.3210  0.00  0.00     0.000 S
ENDBRANCH 42 49
BRANCH 45 54
ATOM     54   C  A00 X   3       3.980  50.323  38.6420  0.00  0.00     0.000 C
ATOM     55   O  A00 X   3       3.302  49.317  38.5960  0.00  0.00     0.000 OA
ATOM     56   O  A00 X   3       3.509  51.365  38.2130  0.00  0.00     0.000 OA
ENDBRANCH 45 54
BRANCH 41 57
ATOM     57  O4  A00 X   4       5.782  49.599  36.1450  0.00  0.00     0.000 O
BRANCH 57 61
ATOM     58  C1  A00 X   4       4.581  46.283  33.6550  0.00  0.00     0.000 C
ATOM     59  C2  A00 X   4       4.392  46.165  35.1880  0.00  0.00     0.000 C
ATOM     60  C3  A00 X   4       4.512  47.513  35.9270  0.00  0.00     0.000 C
ATOM     61  C4  A00 X   4       5.761  48.303  35.4820  0.00  0.00     0.000 C
ATOM     62  C5  A00 X   4       5.638  48.487  33.9490  0.00  0.00     0.000 C
ATOM     63  O5  A00 X   4       5.657  47.185  33.3090  0.00  0.00     0.000 O
BRANCH 59 66
ATOM     64   N  A00 X   4       5.448  45.306  35.7530  0.00  0.00     0.000 N
ATOM     66  HD  A00 X   4       6.204  45.271  35.3310  0.00  0.00     0.000 HD
ATOM     66   O  A00 X   4       4.115  43.410  35.1010  0.00  0.00     0.000 OA
ATOM     67   S  A00 X   4       5.091  43.781  36.0770  0.00  0.00     0.000 S
ATOM     68   O  A00 X   4       6.380  43.174  35.9220  0.00  0.00     0.000 OA
ATOM     69   O  A00 X   4       4.660  43.906  37.4410  0.00  0.00     0.000 OA
ENDBRANCH 59 66
BRANCH 62 70
ATOM     70   C  A00 X   4       6.753  49.358  33.3250  0.00  0.00     0.000 C
ATOM     71   O  A00 X   4      10.264  48.578  32.9050  0.00  0.00     0.000 OA
ATOM     72   O  A00 X   4       9.212  50.487  33.7980  0.00  0.00     0.000 OA
ATOM     73   O  A00 X   4       7.933  48.559  33.1400  0.00  0.00     0.000 O
ATOM     74   O  A00 X   4       9.309  48.439  35.1150  0.00  0.00     0.000 OA
ATOM     75   S  A00 X   4       9.260  49.042  33.8220  0.00  0.00     0.000 S
ENDBRANCH 62 70
ENDBRANCH 57 61
ENDBRANCH 41 57
ENDBRANCH 40 44
ENDBRANCH 20 40
ENDBRANCH 19 23
ENDBRANCH 1 19
TORSDOF 14
ENDMDL
MODEL 27
REMARK VINA RESULT:       0.0    113.128    117.950
ROOT
ATOM      1  C1  A00 X   1      64.697  23.046  10.5580  0.00  0.00     0.000 C
ATOM      2  C2  A00 X   1      63.914  21.763  10.9450  0.00  0.00     0.000 C
ATOM      3  C3  A00 X   1      62.982  21.878  12.1960  0.00  0.00     0.000 C
ATOM      4  C4  A00 X   1      63.226  23.114  13.1000  0.00  0.00     0.000 C
ATOM      5  C5  A00 X   1      64.635  23.683  12.9320  0.00  0.00     0.000 C
ATOM      6  O5  A00 X   1      64.699  24.102  11.5500  0.00  0.00     0.000 O
ATOM      7   O  A00 X   1      63.177  20.730  13.0190  0.00  0.00     0.000 O
ATOM      9  HD  A00 X   1      63.119  21.415  13.5460  0.00  0.00     0.000 HD
ATOM      9   O  A00 X   1      62.261  24.137  12.8580  0.00  0.00     0.000 O
ATOM     11  HD  A00 X   1      62.203  24.822  13.3850  0.00  0.00     0.000 HD
ENDROOT
BRANCH 2 11
ATOM     11   O  A00 X   1      63.124  21.371   9.8060  0.00  0.00     0.000 O
ATOM     12   O  A00 X   1      61.502  19.604   9.9330  0.00  0.00     0.000 OA
ATOM     13   O  A00 X   1      63.855  19.086  10.2690  0.00  0.00     0.000 OA
ATOM     14   O  A00 X   1      63.061  19.749   8.1270  0.00  0.00     0.000 OA
ATOM     15   S  A00 X   1      62.870  19.845   9.5490  0.00  0.00     0.000 S
ENDBRANCH 2 11
BRANCH 5 16
ATOM     16   C  A00 X   1      65.769  22.736  13.3390  0.00  0.00     0.000 C
ATOM     17   O  A00 X   1      66.907  23.030  13.0380  0.00  0.00     0.000 OA
ATOM     18   O  A00 X   1      65.570  21.709  13.9570  0.00  0.00     0.000 OA
ENDBRANCH 5 16
BRANCH 1 19
ATOM     19  O4  A00 X   2      66.036  22.765  10.0830  0.00  0.00     0.000 O
BRANCH 19 23
ATOM     20  C1  A00 X   2      65.913  25.759   7.0200  0.00  0.00     0.000 C
ATOM     21  C2  A00 X   2      65.598  24.301   6.6070  0.00  0.00     0.000 C
ATOM     22  C3  A00 X   2      65.257  23.442   7.8420  0.00  0.00     0.000 C
ATOM     23  C4  A00 X   2      66.382  23.536   8.8970  0.00  0.00     0.000 C
ATOM     24  C5  A00 X   2      66.614  25.040   9.2100  0.00  0.00     0.000 C
ATOM     25  O5  A00 X   2      66.997  25.718   7.9860  0.00  0.00     0.000 O
ATOM     26   O  A00 X   2      64.906  22.119   7.4010  0.00  0.00     0.000 O
ATOM     28  HD  A00 X   2      65.613  22.041   6.9080  0.00  0.00     0.000 HD
BRANCH 21 30
ATOM     28   N  A00 X   2      66.237  24.573   5.3160  0.00  0.00     0.000 N
ATOM     30  HD  A00 X   2      65.781  23.843   5.2210  0.00  0.00     0.000 HD
ATOM     30   O  A00 X   2      65.175  23.274   3.6900  0.00  0.00     0.000 OA
ATOM     31   S  A00 X   2      66.450  23.374   4.3080  0.00  0.00     0.000 S
ATOM     32   O  A00 X   2      67.501  23.832   3.4530  0.00  0.00     0.000 OA
ATOM     33   O  A00 X   2      66.889  22.247   5.0760  0.00  0.00     0.000 OA
ENDBRANCH 21 30
BRANCH 24 34
ATOM     34   C  A00 X   2      67.530  25.399  10.4040  0.00  0.00     0.000 C
ATOM     35   O  A00 X   2      70.686  27.188  10.0880  0.00  0.00     0.000 OA
ATOM     36   O  A00 X   2      68.848  25.777   9.9560  0.00  0.00     0.000 O
ATOM     37   O  A00 X   2      68.618  28.005   9.2830  0.00  0.00     0.000 OA
ATOM     38   S  A00 X   2      69.278  27.249  10.3040  0.00  0.00     0.000 S
ATOM     39   O  A00 X   2      68.881  27.478  11.6600  0.00  0.00     0.000 OA
ENDBRANCH 24 34
BRANCH 20 40
ATOM     40  O4  A00 X   3      64.723  26.249   7.6550  0.00  0.00     0.000 O
BRANCH 40 44
ATOM     41  C1  A00 X   3      63.259  28.090  10.4100  0.00  0.00     0.000 C
ATOM     42  C2  A00 X   3      62.455  27.397   9.2890  0.00  0.00     0.000 C
ATOM     43  C3  A00 X   3      62.983  27.810   7.8910  0.00  0.00     0.000 C
ATOM     44  C4  A00 X   3      64.491  27.672   7.7170  0.00  0.00     0.000 C
ATOM     45  C5  A00 X   3      65.228  28.398   8.8780  0.00  0.00     0.000 C
ATOM     46  O5  A00 X   3      64.691  27.986  10.1770  0.00  0.00     0.000 O
ATOM     47   O  A00 X   3      62.258  27.297   6.7750  0.00  0.00     0.000 O
ATOM     49  HD  A00 X   3      63.053  27.216   6.4390  0.00  0.00     0.000 HD
BRANCH 42 49
ATOM     49   O  A00 X   3      62.576  25.973   9.4990  0.00  0.00     0.000 O
ATOM     50   O  A00 X   3      61.834  23.988   8.3870  0.00  0.00     0.000 OA
ATOM     51   O  A00 X   3      60.343  25.812   8.5810  0.00  0.00     0.000 OA
ATOM     52   O  A00 X   3      60.948  24.638  10.5410  0.00  0.00     0.000 OA
ATOM     53   S  A00 X   3      61.362  25.034   9.2390  0.00  0.00     0.000 S
ENDBRANCH 42 49
BRANCH 45 54
ATOM     54   C  A00 X   3      65.236  29.919   8.6830  0.00  0.00     0.000 C
ATOM     55   O  A00 X   3      65.901  30.632   9.4060  0.00  0.00     0.000 OA
ATOM     56   O  A00 X   3      64.573  30.439   7.7990  0.00  0.00     0.000 OA
ENDBRANCH 45 54
BRANCH 41 57
ATOM     57  O4  A00 X   4      62.798  29.440  10.6410  0.00  0.00     0.000 O
BRANCH 57 61
ATOM     58  C1  A00 X   4      62.531  31.888  14.1870  0.00  0.00     0.000 C
ATOM     59  C2  A00 X   4      63.928  31.403  13.7250  0.00  0.00     0.000 C
ATOM     60  C3  A00 X   4      63.942  30.857  12.2820  0.00  0.00     0.000 C
ATOM     61  C4  A00 X   4      62.790  29.860  12.0350  0.00  0.00     0.000 C
ATOM     62  C5  A00 X   4      61.479  30.620  12.3580  0.00  0.00     0.000 C
ATOM     63  O5  A00 X   4      61.478  30.995  13.7600  0.00  0.00     0.000 O
BRANCH 59 66
ATOM     64   N  A00 X   4      64.378  30.287  14.5750  0.00  0.00     0.000 N
ATOM     66  HD  A00 X   4      63.769  29.792  14.9410  0.00  0.00     0.000 HD
ATOM     66   O  A00 X   4      65.099  31.932  16.1800  0.00  0.00     0.000 OA
ATOM     67   S  A00 X   4      65.411  30.603  15.7550  0.00  0.00     0.000 S
ATOM     68   O  A00 X   4      65.070  29.563  16.6820  0.00  0.00     0.000 OA
ATOM     69   O  A00 X   4      66.653  30.393  15.0680  0.00  0.00     0.000 OA
ENDBRANCH 59 66
BRANCH 62 70
ATOM     70   C  A00 X   4      60.192  29.814  12.0640  0.00  0.00     0.000 C
ATOM     71   O  A00 X   4      58.897  26.910  13.7940  0.00  0.00     0.000 OA
ATOM     72   O  A00 X   4      59.226  27.306  11.4960  0.00  0.00     0.000 OA
ATOM     73   O  A00 X   4      59.944  28.902  13.1460  0.00  0.00     0.000 O
ATOM     74   O  A00 X   4      61.143  26.825  12.9220  0.00  0.00     0.000 OA
ATOM     75   S  A00 X   4      59.831  27.375  12.8080  0.00  0.00     0.000 S
ENDBRANCH 62 70
ENDBRANCH 57 61
ENDBRANCH 41 57
ENDBRANCH 40 44
ENDBRANCH 20 40
ENDBRANCH 19 23
ENDBRANCH 1 19
TORSDOF 14
ENDMDL
MODEL 28
REMARK VINA RESULT:       0.0    129.775    135.548
ROOT
ATOM      1  C1  A00 X   1      68.061  92.101  16.6620  0.00  0.00     0.000 C
ATOM      2  C2  A00 X   1      67.356  90.810  17.1560  0.00  0.00     0.000 C
ATOM      3  C3  A00 X   1      67.476  89.561  16.2220  0.00  0.00     0.000 C
ATOM      4  C4  A00 X   1      67.953  89.851  14.7760  0.00  0.00     0.000 C
ATOM      5  C5  A00 X   1      67.700  91.301  14.3650  0.00  0.00     0.000 C
ATOM      6  O5  A00 X   1      68.497  92.086  15.2800  0.00  0.00     0.000 O
ATOM      7   O  A00 X   1      66.193  88.948  16.1100  0.00  0.00     0.000 O
ATOM      9  HD  A00 X   1      66.551  88.938  15.3210  0.00  0.00     0.000 HD
ATOM      9   O  A00 X   1      69.336  89.536  14.6100  0.00  0.00     0.000 O
ATOM     11  HD  A00 X   1      69.694  89.527  13.8210  0.00  0.00     0.000 HD
ENDROOT
BRANCH 2 11
ATOM     11   O  A00 X   1      67.898  90.482  18.4500  0.00  0.00     0.000 O
ATOM     12   O  A00 X   1      67.131  88.583  19.7040  0.00  0.00     0.000 OA
ATOM     13   O  A00 X   1      65.587  90.403  19.2380  0.00  0.00     0.000 OA
ATOM     14   O  A00 X   1      67.417  90.727  20.7220  0.00  0.00     0.000 OA
ATOM     15   S  A00 X   1      66.923  90.003  19.5810  0.00  0.00     0.000 S
ENDBRANCH 2 11
BRANCH 5 16
ATOM     16   C  A00 X   1      66.226  91.715  14.3240  0.00  0.00     0.000 C
ATOM     17   O  A00 X   1      65.956  92.891  14.1910  0.00  0.00     0.000 OA
ATOM     18   O  A00 X   1      65.320  90.910  14.4130  0.00  0.00     0.000 OA
ENDBRANCH 5 16
BRANCH 1 19
ATOM     19  O4  A00 X   2      67.310  93.302  16.9670  0.00  0.00     0.000 O
BRANCH 19 23
ATOM     20  C1  A00 X   2      70.800  95.624  17.8580  0.00  0.00     0.000 C
ATOM     21  C2  A00 X   2      70.025  95.012  19.0500  0.00  0.00     0.000 C
ATOM     22  C3  A00 X   2      69.089  93.881  18.5750  0.00  0.00     0.000 C
ATOM     23  C4  A00 X   2      68.158  94.384  17.4490  0.00  0.00     0.000 C
ATOM     24  C5  A00 X   2      69.049  94.987  16.3290  0.00  0.00     0.000 C
ATOM     25  O5  A00 X   2      69.822  96.082  16.8870  0.00  0.00     0.000 O
ATOM     26   O  A00 X   2      68.446  93.301  19.7220  0.00  0.00     0.000 O
ATOM     28  HD  A00 X   2      68.196  94.069  20.0340  0.00  0.00     0.000 HD
BRANCH 21 30
ATOM     28   N  A00 X   2      70.370  96.200  19.8370  0.00  0.00     0.000 N
ATOM     30  HD  A00 X   2      70.104  95.596  20.3980  0.00  0.00     0.000 HD
ATOM     30   O  A00 X   2      70.583  95.556  22.0720  0.00  0.00     0.000 OA
ATOM     31   S  A00 X   2      69.735  96.369  21.2740  0.00  0.00     0.000 S
ATOM     32   O  A00 X   2      69.834  97.773  21.5260  0.00  0.00     0.000 OA
ATOM     33   O  A00 X   2      68.361  95.976  21.1790  0.00  0.00     0.000 OA
ENDBRANCH 21 30
BRANCH 24 34
ATOM     34   C  A00 X   2      68.377  95.354  14.9850  0.00  0.00     0.000 C
ATOM     35   O  A00 X   2      65.652  97.745  14.6520  0.00  0.00     0.000 OA
ATOM     36   O  A00 X   2      67.125  96.036  15.1960  0.00  0.00     0.000 O
ATOM     37   O  A00 X   2      67.735  98.247  15.6530  0.00  0.00     0.000 OA
ATOM     38   S  A00 X   2      67.057  97.503  14.6350  0.00  0.00     0.000 S
ATOM     39   O  A00 X   2      67.651  97.467  13.3330  0.00  0.00     0.000 OA
ENDBRANCH 24 34
BRANCH 20 40
ATOM     40  O4  A00 X   3      71.564  94.547  17.2980  0.00  0.00     0.000 O
BRANCH 40 44
ATOM     41  C1  A00 X   3      72.652  92.821  14.3040  0.00  0.00     0.000 C
ATOM     42  C2  A00 X   3      73.002  92.390  15.7450  0.00  0.00     0.000 C
ATOM     43  C3  A00 X   3      73.573  93.580  16.5580  0.00  0.00     0.000 C
ATOM     44  C4  A00 X   3      72.730  94.848  16.5020  0.00  0.00     0.000 C
ATOM     45  C5  A00 X   3      72.425  95.219  15.0230  0.00  0.00     0.000 C
ATOM     46  O5  A00 X   3      71.898  94.064  14.2920  0.00  0.00     0.000 O
ATOM     47   O  A00 X   3      74.013  93.278  17.8800  0.00  0.00     0.000 O
ATOM     49  HD  A00 X   3      73.658  94.048  18.0530  0.00  0.00     0.000 HD
BRANCH 42 49
ATOM     49   O  A00 X   3      71.789  91.878  16.3400  0.00  0.00     0.000 O
ATOM     50   O  A00 X   3      71.133  91.032  18.4810  0.00  0.00     0.000 OA
ATOM     51   O  A00 X   3      73.226  90.386  17.5920  0.00  0.00     0.000 OA
ATOM     52   O  A00 X   3      71.262  89.598  16.5380  0.00  0.00     0.000 OA
ATOM     53   S  A00 X   3      71.840  90.653  17.2990  0.00  0.00     0.000 S
ENDBRANCH 42 49
BRANCH 45 54
ATOM     54   C  A00 X   3      73.635  95.865  14.3380  0.00  0.00     0.000 C
ATOM     55   O  A00 X   3      74.721  95.875  14.8810  0.00  0.00     0.000 OA
ATOM     56   O  A00 X   3      73.529  96.381  13.2370  0.00  0.00     0.000 OA
ENDBRANCH 45 54
BRANCH 41 57
ATOM     57  O4  A00 X   4      73.820  92.834  13.4530  0.00  0.00     0.000 O
BRANCH 57 61
ATOM     58  C1  A00 X   4      74.404  92.010   9.2550  0.00  0.00     0.000 C
ATOM     59  C2  A00 X   4      73.476  93.183   9.6580  0.00  0.00     0.000 C
ATOM     60  C3  A00 X   4      73.625  93.606  11.1340  0.00  0.00     0.000 C
ATOM     61  C4  A00 X   4      73.592  92.390  12.0850  0.00  0.00     0.000 C
ATOM     62  C5  A00 X   4      74.735  91.449  11.6290  0.00  0.00     0.000 C
ATOM     63  O5  A00 X   4      74.466  90.991  10.2790  0.00  0.00     0.000 O
BRANCH 59 66
ATOM     64   N  A00 X   4      72.067  92.781   9.5010  0.00  0.00     0.000 N
ATOM     66  HD  A00 X   4      71.879  91.939   9.5800  0.00  0.00     0.000 HD
ATOM     66   O  A00 X   4      72.283  93.304   7.1600  0.00  0.00     0.000 OA
ATOM     67   S  A00 X   4      71.288  93.251   8.1850  0.00  0.00     0.000 S
ATOM     68   O  A00 X   4      70.330  92.191   8.0600  0.00  0.00     0.000 OA
ATOM     69   O  A00 X   4      70.735  94.492   8.6470  0.00  0.00     0.000 OA
ENDBRANCH 59 66
BRANCH 62 70
ATOM     70   C  A00 X   4      74.935  90.212  12.5370  0.00  0.00     0.000 C
ATOM     71   O  A00 X   4      72.765  87.345  12.9640  0.00  0.00     0.000 OA
ATOM     72   O  A00 X   4      73.800  88.736  14.5570  0.00  0.00     0.000 OA
ATOM     73   O  A00 X   4      73.954  89.215  12.2050  0.00  0.00     0.000 O
ATOM     74   O  A00 X   4      71.853  89.546  13.3360  0.00  0.00     0.000 OA
ATOM     75   S  A00 X   4      73.008  88.707  13.3470  0.00  0.00     0.000 S
ENDBRANCH 62 70
ENDBRANCH 57 61
ENDBRANCH 41 57
ENDBRANCH 40 44
ENDBRANCH 20 40
ENDBRANCH 19 23
ENDBRANCH 1 19
TORSDOF 14
ENDMDL
MODEL 29
REMARK VINA RESULT:       0.0    102.226    107.128
ROOT
ATOM      1  C1  A00 X   1     106.798  61.314  92.0580  0.00  0.00     0.000 C
ATOM      2  C2  A00 X   1     107.970  62.268  92.4090  0.00  0.00     0.000 C
ATOM      3  C3  A00 X   1     108.581  62.109  93.8400  0.00  0.00     0.000 C
ATOM      4  C4  A00 X   1     107.726  61.295  94.8460  0.00  0.00     0.000 C
ATOM      5  C5  A00 X   1     106.249  61.265  94.4550  0.00  0.00     0.000 C
ATOM      6  O5  A00 X   1     106.221  60.593  93.1750  0.00  0.00     0.000 O
ATOM      7   O  A00 X   1     108.754  63.404  94.4110  0.00  0.00     0.000 O
ATOM      9  HD  A00 X   1     108.450  62.887  95.0370  0.00  0.00     0.000 HD
ATOM      9   O  A00 X   1     108.215  59.961  94.9870  0.00  0.00     0.000 O
ATOM     11  HD  A00 X   1     107.911  59.445  95.6120  0.00  0.00     0.000 HD
ENDROOT
BRANCH 2 11
ATOM     11   O  A00 X   1     109.008  62.067  91.4310  0.00  0.00     0.000 O
ATOM     12   O  A00 X   1     110.982  63.433  91.3740  0.00  0.00     0.000 OA
ATOM     13   O  A00 X   1     108.816  64.454  90.9490  0.00  0.00     0.000 OA
ATOM     14   O  A00 X   1     109.753  62.922  89.3890  0.00  0.00     0.000 OA
ATOM     15   S  A00 X   1     109.679  63.320  90.7690  0.00  0.00     0.000 S
ENDBRANCH 2 11
BRANCH 5 16
ATOM     16   C  A00 X   1     105.553  62.630  94.4450  0.00  0.00     0.000 C
ATOM     17   O  A00 X   1     104.440  62.711  93.9670  0.00  0.00     0.000 OA
ATOM     18   O  A00 X   1     106.071  63.628  94.9040  0.00  0.00     0.000 OA
ENDBRANCH 5 16
BRANCH 1 19
ATOM     19  O4  A00 X   2     105.774  61.953  91.2570  0.00  0.00     0.000 O
BRANCH 19 23
ATOM     20  C1  A00 X   2     104.977  58.444  88.9290  0.00  0.00     0.000 C
ATOM     21  C2  A00 X   2     105.916  59.511  88.3150  0.00  0.00     0.000 C
ATOM     22  C3  A00 X   2     106.444  60.469  89.4030  0.00  0.00     0.000 C
ATOM     23  C4  A00 X   2     105.272  61.088  90.1980  0.00  0.00     0.000 C
ATOM     24  C5  A00 X   2     104.401  59.923  90.7420  0.00  0.00     0.000 C
ATOM     25  O5  A00 X   2     103.908  59.144  89.6210  0.00  0.00     0.000 O
ATOM     26   O  A00 X   2     107.362  61.395  88.7960  0.00  0.00     0.000 O
ATOM     28  HD  A00 X   2     106.811  61.602  88.1610  0.00  0.00     0.000 HD
BRANCH 21 30
ATOM     28   N  A00 X   2     105.368  59.178  86.9960  0.00  0.00     0.000 N
ATOM     30  HD  A00 X   2     106.096  59.626  86.8590  0.00  0.00     0.000 HD
ATOM     30   O  A00 X   2     107.050  59.498  85.4070  0.00  0.00     0.000 OA
ATOM     31   S  A00 X   2     105.792  60.059  85.7540  0.00  0.00     0.000 S
ATOM     32   O  A00 X   2     104.747  59.831  84.8050  0.00  0.00     0.000 OA
ATOM     33   O  A00 X   2     105.786  61.426  86.1830  0.00  0.00     0.000 OA
ENDBRANCH 21 30
BRANCH 24 34
ATOM     34   C  A00 X   2     103.292  60.263  91.7660  0.00  0.00     0.000 C
ATOM     35   O  A00 X   2      99.736  59.758  91.1650  0.00  0.00     0.000 OA
ATOM     36   O  A00 X   2     101.994  60.296  91.1380  0.00  0.00     0.000 O
ATOM     37   O  A00 X   2     101.361  58.049  90.9920  0.00  0.00     0.000 OA
ATOM     38   S  A00 X   2     100.962  59.239  91.6780  0.00  0.00     0.000 S
ATOM     39   O  A00 X   2     101.076  59.253  93.1050  0.00  0.00     0.000 OA
ENDBRANCH 24 34
BRANCH 20 40
ATOM     40  O4  A00 X   3     105.775  57.726  89.8810  0.00  0.00     0.000 O
BRANCH 40 44
ATOM     41  C1  A00 X   3     106.037  56.235  93.1720  0.00  0.00     0.000 C
ATOM     42  C2  A00 X   3     107.173  56.266  92.1270  0.00  0.00     0.000 C
ATOM     43  C3  A00 X   3     106.679  55.741  90.7540  0.00  0.00     0.000 C
ATOM     44  C4  A00 X   3     105.392  56.386  90.2560  0.00  0.00     0.000 C
ATOM     45  C5  A00 X   3     104.298  56.311  91.3580  0.00  0.00     0.000 C
ATOM     46  O5  A00 X   3     104.810  56.806  92.6370  0.00  0.00     0.000 O
ATOM     47   O  A00 X   3     107.669  55.643  89.7320  0.00  0.00     0.000 O
ATOM     49  HD  A00 X   3     107.021  55.928  89.2330  0.00  0.00     0.000 HD
BRANCH 42 49
ATOM     49   O  A00 X   3     107.628  57.634  92.0370  0.00  0.00     0.000 O
ATOM     50   O  A00 X   3     109.235  58.844  90.7390  0.00  0.00     0.000 OA
ATOM     51   O  A00 X   3     109.813  56.705  91.5670  0.00  0.00     0.000 OA
ATOM     52   O  A00 X   3     109.540  58.475  93.1100  0.00  0.00     0.000 OA
ATOM     53   S  A00 X   3     109.140  57.949  91.8500  0.00  0.00     0.000 S
ENDBRANCH 42 49
BRANCH 45 54
ATOM     54   C  A00 X   3     103.685  54.908  91.4550  0.00  0.00     0.000 C
ATOM     55   O  A00 X   3     104.173  53.977  90.8490  0.00  0.00     0.000 OA
ATOM     56   O  A00 X   3     102.697  54.704  92.1430  0.00  0.00     0.000 OA
ENDBRANCH 45 54
BRANCH 41 57
ATOM     57  O4  A00 X   4     105.871  54.917  93.7420  0.00  0.00     0.000 O
BRANCH 57 61
ATOM     58  C1  A00 X   4     104.703  53.537  97.6620  0.00  0.00     0.000 C
ATOM     59  C2  A00 X   4     103.697  54.385  96.8440  0.00  0.00     0.000 C
ATOM     60  C3  A00 X   4     104.068  54.511  95.3530  0.00  0.00     0.000 C
ATOM     61  C4  A00 X   4     105.552  54.894  95.1620  0.00  0.00     0.000 C
ATOM     62  C5  A00 X   4     106.380  53.799  95.8800  0.00  0.00     0.000 C
ATOM     63  O5  A00 X   4     106.073  53.821  97.2970  0.00  0.00     0.000 O
BRANCH 59 66
ATOM     64   N  A00 X   4     103.649  55.769  97.3500  0.00  0.00     0.000 N
ATOM     66  HD  A00 X   4     104.363  56.081  97.7270  0.00  0.00     0.000 HD
ATOM     66   O  A00 X   4     102.153  54.984  99.0660  0.00  0.00     0.000 OA
ATOM     67   S  A00 X   4     102.456  56.175  98.3350  0.00  0.00     0.000 S
ATOM     68   O  A00 X   4     103.088  57.218  99.0890  0.00  0.00     0.000 OA
ATOM     69   O  A00 X   4     101.489  56.640  97.3820  0.00  0.00     0.000 OA
ENDBRANCH 59 66
BRANCH 62 70
ATOM     70   C  A00 X   4     107.910  53.949  95.7060  0.00  0.00     0.000 C
ATOM     71   O  A00 X   4     110.105  56.479  97.0820  0.00  0.00     0.000 OA
ATOM     72   O  A00 X   4     109.892  55.663  94.8830  0.00  0.00     0.000 OA
ATOM     73   O  A00 X   4     108.397  54.942  96.6240  0.00  0.00     0.000 O
ATOM     74   O  A00 X   4     108.210  57.187  95.7700  0.00  0.00     0.000 OA
ATOM     75   S  A00 X   4     109.175  56.169  96.0320  0.00  0.00     0.000 S
ENDBRANCH 62 70
ENDBRANCH 57 61
ENDBRANCH 41 57
ENDBRANCH 40 44
ENDBRANCH 20 40
ENDBRANCH 19 23
ENDBRANCH 1 19
TORSDOF 14
ENDMDL
MODEL 30
REMARK VINA RESULT:       0.0    126.818    131.255
ROOT
ATOM      1  C1  A00 X   1      67.238  99.383  26.1710  0.00  0.00     0.000 C
ATOM      2  C2  A00 X   1      66.262  99.302  27.3760  0.00  0.00     0.000 C
ATOM      3  C3  A00 X   1      66.393  98.034  28.2830  0.00  0.00     0.000 C
ATOM      4  C4  A00 X   1      67.205  96.860  27.6770  0.00  0.00     0.000 C
ATOM      5  C5  A00 X   1      67.261  96.924  26.1510  0.00  0.00     0.000 C
ATOM      6  O5  A00 X   1      67.951  98.160  25.8600  0.00  0.00     0.000 O
ATOM      7   O  A00 X   1      65.088  97.528  28.5530  0.00  0.00     0.000 O
ATOM      9  HD  A00 X   1      65.600  96.846  28.3990  0.00  0.00     0.000 HD
ATOM      9   O  A00 X   1      68.530  96.813  28.2070  0.00  0.00     0.000 O
ATOM     11  HD  A00 X   1      69.041  96.132  28.0530  0.00  0.00     0.000 HD
ENDROOT
BRANCH 2 11
ATOM     11   O  A00 X   1      66.462 100.479  28.1820  0.00  0.00     0.000 O
ATOM     12   O  A00 X   1      65.381 100.761  30.3080  0.00  0.00     0.000 OA
ATOM     13   O  A00 X   1      64.028 100.643  28.2900  0.00  0.00     0.000 OA
ATOM     14   O  A00 X   1      65.439 102.516  28.6860  0.00  0.00     0.000 OA
ATOM     15   S  A00 X   1      65.232 101.112  28.9180  0.00  0.00     0.000 S
ENDBRANCH 2 11
BRANCH 5 16
ATOM     16   C  A00 X   1      65.906  96.798  25.4470  0.00  0.00     0.000 C
ATOM     17   O  A00 X   1      65.843  97.043  24.2600  0.00  0.00     0.000 OA
ATOM     18   O  A00 X   1      64.897  96.455  26.0310  0.00  0.00     0.000 OA
ENDBRANCH 5 16
BRANCH 1 19
ATOM     19  O4  A00 X   2      66.624  99.952  24.9890  0.00  0.00     0.000 O
BRANCH 19 23
ATOM     20  C1  A00 X   2      70.118 102.164  23.8630  0.00  0.00     0.000 C
ATOM     21  C2  A00 X   2      69.015 102.919  24.6430  0.00  0.00     0.000 C
ATOM     22  C3  A00 X   2      68.058 101.929  25.3400  0.00  0.00     0.000 C
ATOM     23  C4  A00 X   2      67.487 100.917  24.3210  0.00  0.00     0.000 C
ATOM     24  C5  A00 X   2      68.686 100.244  23.5970  0.00  0.00     0.000 C
ATOM     25  O5  A00 X   2      69.461 101.271  22.9250  0.00  0.00     0.000 O
ATOM     26   O  A00 X   2      67.097 102.676  26.1040  0.00  0.00     0.000 O
ATOM     28  HD  A00 X   2      66.896 103.194  25.4390  0.00  0.00     0.000 HD
BRANCH 21 30
ATOM     28   N  A00 X   2      69.332 104.120  23.8640  0.00  0.00     0.000 N
ATOM     30  HD  A00 X   2      68.868 104.380  24.5470  0.00  0.00     0.000 HD
ATOM     30   O  A00 X   2      68.948 105.986  25.2150  0.00  0.00     0.000 OA
ATOM     31   S  A00 X   2      68.419 105.399  24.0360  0.00  0.00     0.000 S
ATOM     32   O  A00 X   2      68.648 106.142  22.8360  0.00  0.00     0.000 OA
ATOM     33   O  A00 X   2      67.061 104.946  24.0890  0.00  0.00     0.000 OA
ENDBRANCH 21 30
BRANCH 24 34
ATOM     34   C  A00 X   2      68.394  99.026  22.6900  0.00  0.00     0.000 C
ATOM     35   O  A00 X   2      66.163  99.110  19.8130  0.00  0.00     0.000 OA
ATOM     36   O  A00 X   2      67.230  99.251  21.8700  0.00  0.00     0.000 O
ATOM     37   O  A00 X   2      68.010 100.560  20.0960  0.00  0.00     0.000 OA
ATOM     38   S  A00 X   2      67.490  99.246  20.3190  0.00  0.00     0.000 S
ATOM     39   O  A00 X   2      68.355  98.135  20.0580  0.00  0.00     0.000 OA
ENDBRANCH 24 34
BRANCH 20 40
ATOM     40  O4  A00 X   3      70.827 101.392  24.8430  0.00  0.00     0.000 O
BRANCH 40 44
ATOM     41  C1  A00 X   3      72.330  98.223  25.7470  0.00  0.00     0.000 C
ATOM     42  C2  A00 X   3      72.270  99.462  26.6660  0.00  0.00     0.000 C
ATOM     43  C3  A00 X   3      72.797 100.722  25.9340  0.00  0.00     0.000 C
ATOM     44  C4  A00 X   3      72.177 100.964  24.5640  0.00  0.00     0.000 C
ATOM     45  C5  A00 X   3      72.282  99.677  23.6980  0.00  0.00     0.000 C
ATOM     46  O5  A00 X   3      71.783  98.512  24.4310  0.00  0.00     0.000 O
ATOM     47   O  A00 X   3      72.869 101.913  26.7170  0.00  0.00     0.000 O
ATOM     49  HD  A00 X   3      72.595 102.278  25.9810  0.00  0.00     0.000 HD
BRANCH 42 49
ATOM     49   O  A00 X   3      70.892  99.623  27.0690  0.00  0.00     0.000 O
ATOM     50   O  A00 X   3      69.640 101.191  28.3750  0.00  0.00     0.000 OA
ATOM     51   O  A00 X   3      71.771 100.511  29.1410  0.00  0.00     0.000 OA
ATOM     52   O  A00 X   3      70.018  98.926  29.1340  0.00  0.00     0.000 OA
ATOM     53   S  A00 X   3      70.544 100.092  28.5120  0.00  0.00     0.000 S
ENDBRANCH 42 49
BRANCH 45 54
ATOM     54   C  A00 X   3      73.697  99.480  23.1420  0.00  0.00     0.000 C
ATOM     55   O  A00 X   3      74.604 100.211  23.4850  0.00  0.00     0.000 OA
ATOM     56   O  A00 X   3      73.937  98.586  22.3450  0.00  0.00     0.000 OA
ENDBRANCH 45 54
BRANCH 41 57
ATOM     57  O4  A00 X   4      73.655  97.644  25.7180  0.00  0.00     0.000 O
BRANCH 57 61
ATOM     58  C1  A00 X   4      75.082  93.586  25.3560  0.00  0.00     0.000 C
ATOM     59  C2  A00 X   4      74.253  94.187  24.1930  0.00  0.00     0.000 C
ATOM     60  C3  A00 X   4      74.111  95.720  24.2680  0.00  0.00     0.000 C
ATOM     61  C4  A00 X   4      73.693  96.189  25.6780  0.00  0.00     0.000 C
ATOM     62  C5  A00 X   4      74.771  95.655  26.6530  0.00  0.00     0.000 C
ATOM     63  O5  A00 X   4      74.764  94.204  26.6240  0.00  0.00     0.000 O
BRANCH 59 66
ATOM     64   N  A00 X   4      72.863  93.700  24.1480  0.00  0.00     0.000 N
ATOM     66  HD  A00 X   4      72.491  93.480  24.8990  0.00  0.00     0.000 HD
ATOM     66   O  A00 X   4      73.701  91.704  23.0940  0.00  0.00     0.000 OA
ATOM     67   S  A00 X   4      72.513  92.497  23.1540  0.00  0.00     0.000 S
ATOM     68   O  A00 X   4      71.408  91.901  23.8470  0.00  0.00     0.000 OA
ATOM     69   O  A00 X   4      72.142  93.237  21.9810  0.00  0.00     0.000 OA
ENDBRANCH 59 66
BRANCH 62 70
ATOM     70   C  A00 X   4      74.585  96.118  28.1180  0.00  0.00     0.000 C
ATOM     71   O  A00 X   4      72.017  95.159  30.4830  0.00  0.00     0.000 OA
ATOM     72   O  A00 X   4      72.819  97.286  29.8670  0.00  0.00     0.000 OA
ATOM     73   O  A00 X   4      73.589  95.299  28.7520  0.00  0.00     0.000 O
ATOM     74   O  A00 X   4      71.342  96.073  28.3560  0.00  0.00     0.000 OA
ATOM     75   S  A00 X   4      72.340  96.013  29.3750  0.00  0.00     0.000 S
ENDBRANCH 62 70
ENDBRANCH 57 61
ENDBRANCH 41 57
ENDBRANCH 40 44
ENDBRANCH 20 40
ENDBRANCH 19 23
ENDBRANCH 1 19
TORSDOF 14
ENDMDL
MODEL 31
REMARK VINA RESULT:       0.0     83.180     88.299
ROOT
ATOM      1  C1  A00 X   1      36.983  44.976  33.1660  0.00  0.00     0.000 C
ATOM      2  C2  A00 X   1      38.457  45.334  32.8380  0.00  0.00     0.000 C
ATOM      3  C3  A00 X   1      39.321  44.187  32.2180  0.00  0.00     0.000 C
ATOM      4  C4  A00 X   1      38.729  42.760  32.3470  0.00  0.00     0.000 C
ATOM      5  C5  A00 X   1      37.723  42.653  33.4920  0.00  0.00     0.000 C
ATOM      6  O5  A00 X   1      36.659  43.564  33.1330  0.00  0.00     0.000 O
ATOM      7   O  A00 X   1      40.586  44.161  32.8760  0.00  0.00     0.000 O
ATOM      9  HD  A00 X   1      40.336  43.339  32.7710  0.00  0.00     0.000 HD
ATOM      9   O  A00 X   1      38.119  42.336  31.1280  0.00  0.00     0.000 O
ATOM     11  HD  A00 X   1      37.869  41.514  31.0230  0.00  0.00     0.000 HD
ENDROOT
BRANCH 2 11
ATOM     11   O  A00 X   1      38.445  46.454  31.9320  0.00  0.00     0.000 O
ATOM     12   O  A00 X   1      40.472  47.463  31.1310  0.00  0.00     0.000 OA
ATOM     13   O  A00 X   1      39.952  47.558  33.5060  0.00  0.00     0.000 OA
ATOM     14   O  A00 X   1      38.647  48.780  31.9360  0.00  0.00     0.000 OA
ATOM     15   S  A00 X   1      39.469  47.620  32.1540  0.00  0.00     0.000 S
ENDBRANCH 2 11
BRANCH 5 16
ATOM     16   C  A00 X   1      38.301  42.907  34.8880  0.00  0.00     0.000 C
ATOM     17   O  A00 X   1      37.534  43.043  35.8190  0.00  0.00     0.000 OA
ATOM     18   O  A00 X   1      39.496  42.971  35.0970  0.00  0.00     0.000 OA
ENDBRANCH 5 16
BRANCH 1 19
ATOM     19  O4  A00 X   2      36.514  45.596  34.3880  0.00  0.00     0.000 O
BRANCH 19 23
ATOM     20  C1  A00 X   2      32.582  46.344  32.8560  0.00  0.00     0.000 C
ATOM     21  C2  A00 X   2      33.593  47.516  32.8320  0.00  0.00     0.000 C
ATOM     22  C3  A00 X   2      35.038  46.998  32.9950  0.00  0.00     0.000 C
ATOM     23  C4  A00 X   2      35.162  46.125  34.2630  0.00  0.00     0.000 C
ATOM     24  C5  A00 X   2      34.089  45.005  34.1760  0.00  0.00     0.000 C
ATOM     25  O5  A00 X   2      32.777  45.620  34.1000  0.00  0.00     0.000 O
ATOM     26   O  A00 X   2      35.940  48.113  32.8970  0.00  0.00     0.000 O
ATOM     28  HD  A00 X   2      35.502  48.584  33.4760  0.00  0.00     0.000 HD
BRANCH 21 30
ATOM     28   N  A00 X   2      32.479  48.433  33.0910  0.00  0.00     0.000 N
ATOM     30  HD  A00 X   2      33.143  48.916  32.8180  0.00  0.00     0.000 HD
ATOM     30   O  A00 X   2      32.956  50.470  32.0520  0.00  0.00     0.000 OA
ATOM     31   S  A00 X   2      32.799  49.956  33.3670  0.00  0.00     0.000 S
ATOM     32   O  A00 X   2      31.641  50.425  34.0630  0.00  0.00     0.000 OA
ATOM     33   O  A00 X   2      33.946  50.000  34.2230  0.00  0.00     0.000 OA
ENDBRANCH 21 30
BRANCH 24 34
ATOM     34   C  A00 X   2      34.152  43.857  35.2110  0.00  0.00     0.000 C
ATOM     35   O  A00 X   2      31.544  43.171  37.6580  0.00  0.00     0.000 OA
ATOM     36   O  A00 X   2      33.177  44.042  36.2560  0.00  0.00     0.000 O
ATOM     37   O  A00 X   2      31.172  43.278  35.3250  0.00  0.00     0.000 OA
ATOM     38   S  A00 X   2      32.087  42.914  36.3640  0.00  0.00     0.000 S
ATOM     39   O  A00 X   2      32.779  41.668  36.2330  0.00  0.00     0.000 OA
ENDBRANCH 24 34
BRANCH 20 40
ATOM     40  O4  A00 X   3      32.937  45.502  31.7500  0.00  0.00     0.000 O
BRANCH 40 44
ATOM     41  C1  A00 X   3      33.480  42.138  30.5200  0.00  0.00     0.000 C
ATOM     42  C2  A00 X   3      33.678  43.422  29.6870  0.00  0.00     0.000 C
ATOM     43  C3  A00 X   3      32.431  44.339  29.7730  0.00  0.00     0.000 C
ATOM     44  C4  A00 X   3      31.945  44.615  31.1900  0.00  0.00     0.000 C
ATOM     45  C5  A00 X   3      31.764  43.278  31.9610  0.00  0.00     0.000 C
ATOM     46  O5  A00 X   3      32.960  42.441  31.8440  0.00  0.00     0.000 O
ATOM     47   O  A00 X   3      32.467  45.517  28.9710  0.00  0.00     0.000 O
ATOM     49  HD  A00 X   3      32.086  45.866  29.6650  0.00  0.00     0.000 HD
BRANCH 42 49
ATOM     49   O  A00 X   3      34.855  44.083  30.2020  0.00  0.00     0.000 O
ATOM     50   O  A00 X   3      36.034  46.119  29.7570  0.00  0.00     0.000 OA
ATOM     51   O  A00 X   3      35.216  44.853  27.9360  0.00  0.00     0.000 OA
ATOM     52   O  A00 X   3      36.986  43.961  29.2230  0.00  0.00     0.000 OA
ATOM     53   S  A00 X   3      35.840  44.803  29.2350  0.00  0.00     0.000 S
ENDBRANCH 42 49
BRANCH 45 54
ATOM     54   C  A00 X   3      30.478  42.553  31.5470  0.00  0.00     0.000 C
ATOM     55   O  A00 X   3      29.814  42.955  30.6130  0.00  0.00     0.000 OA
ATOM     56   O  A00 X   3      30.098  41.560  32.1480  0.00  0.00     0.000 OA
ENDBRANCH 45 54
BRANCH 41 57
ATOM     57  O4  A00 X   4      32.711  41.148  29.8000  0.00  0.00     0.000 O
BRANCH 57 61
ATOM     58  C1  A00 X   4      32.822  36.833  29.7100  0.00  0.00     0.000 C
ATOM     59  C2  A00 X   4      32.487  37.538  31.0480  0.00  0.00     0.000 C
ATOM     60  C3  A00 X   4      32.125  39.028  30.8840  0.00  0.00     0.000 C
ATOM     61  C4  A00 X   4      33.142  39.771  29.9910  0.00  0.00     0.000 C
ATOM     62  C5  A00 X   4      33.161  39.022  28.6350  0.00  0.00     0.000 C
ATOM     63  O5  A00 X   4      33.630  37.666  28.8460  0.00  0.00     0.000 O
BRANCH 59 66
ATOM     64   N  A00 X   4      33.654  37.518  31.9490  0.00  0.00     0.000 N
ATOM     66  HD  A00 X   4      34.439  37.495  31.5860  0.00  0.00     0.000 HD
ATOM     66   O  A00 X   4      33.020  35.276  32.5560  0.00  0.00     0.000 OA
ATOM     67   S  A00 X   4      33.703  36.408  33.0990  0.00  0.00     0.000 S
ATOM     68   O  A00 X   4      35.121  36.258  33.2530  0.00  0.00     0.000 OA
ATOM     69   O  A00 X   4      33.068  37.123  34.1690  0.00  0.00     0.000 OA
ENDBRANCH 59 66
BRANCH 62 70
ATOM     70   C  A00 X   4      34.050  39.688  27.5580  0.00  0.00     0.000 C
ATOM     71   O  A00 X   4      37.660  39.928  27.4370  0.00  0.00     0.000 OA
ATOM     72   O  A00 X   4      36.002  41.575  27.1490  0.00  0.00     0.000 OA
ATOM     73   O  A00 X   4      35.422  39.330  27.7870  0.00  0.00     0.000 O
ATOM     74   O  A00 X   4      36.514  40.761  29.3880  0.00  0.00     0.000 OA
ATOM     75   S  A00 X   4      36.459  40.490  27.9880  0.00  0.00     0.000 S
ENDBRANCH 62 70
ENDBRANCH 57 61
ENDBRANCH 41 57
ENDBRANCH 40 44
ENDBRANCH 20 40
ENDBRANCH 19 23
ENDBRANCH 1 19
TORSDOF 14
ENDMDL
MODEL 32
REMARK VINA RESULT:       0.0    102.107    107.633
ROOT
ATOM      1  C1  A00 X   1      89.012  52.099  46.7650  0.00  0.00     0.000 C
ATOM      2  C2  A00 X   1      89.564  53.125  47.7900  0.00  0.00     0.000 C
ATOM      3  C3  A00 X   1      88.522  54.125  48.3920  0.00  0.00     0.000 C
ATOM      4  C4  A00 X   1      87.171  54.216  47.6360  0.00  0.00     0.000 C
ATOM      5  C5  A00 X   1      87.289  53.755  46.1840  0.00  0.00     0.000 C
ATOM      6  O5  A00 X   1      87.676  52.365  46.2710  0.00  0.00     0.000 O
ATOM      7   O  A00 X   1      89.083  55.435  48.3770  0.00  0.00     0.000 O
ATOM      9  HD  A00 X   1      88.255  55.509  48.1350  0.00  0.00     0.000 HD
ATOM      9   O  A00 X   1      86.151  53.468  48.2990  0.00  0.00     0.000 O
ATOM     11  HD  A00 X   1      85.323  53.543  48.0560  0.00  0.00     0.000 HD
ENDROOT
BRANCH 2 11
ATOM     11   O  A00 X   1      90.178  52.386  48.8630  0.00  0.00     0.000 O
ATOM     12   O  A00 X   1      90.937  53.458  50.8730  0.00  0.00     0.000 OA
ATOM     13   O  A00 X   1      91.994  54.016  48.7550  0.00  0.00     0.000 OA
ATOM     14   O  A00 X   1      92.287  51.861  49.7160  0.00  0.00     0.000 OA
ATOM     15   S  A00 X   1      91.420  53.001  49.5950  0.00  0.00     0.000 S
ENDBRANCH 2 11
BRANCH 5 16
ATOM     16   C  A00 X   1      88.223  54.598  45.3100  0.00  0.00     0.000 C
ATOM     17   O  A00 X   1      88.545  54.169  44.2210  0.00  0.00     0.000 OA
ATOM     18   O  A00 X   1      88.646  55.680  45.6650  0.00  0.00     0.000 OA
ENDBRANCH 5 16
BRANCH 1 19
ATOM     19  O4  A00 X   2      89.935  51.840  45.6780  0.00  0.00     0.000 O
BRANCH 19 23
ATOM     20  C1  A00 X   2      89.143  47.628  45.6220  0.00  0.00     0.000 C
ATOM     21  C2  A00 X   2      90.427  48.104  46.3430  0.00  0.00     0.000 C
ATOM     22  C3  A00 X   2      90.355  49.613  46.6550  0.00  0.00     0.000 C
ATOM     23  C4  A00 X   2      90.053  50.421  45.3730  0.00  0.00     0.000 C
ATOM     24  C5  A00 X   2      88.761  49.837  44.7380  0.00  0.00     0.000 C
ATOM     25  O5  A00 X   2      88.984  48.438  44.4260  0.00  0.00     0.000 O
ATOM     26   O  A00 X   2      91.535  49.991  47.3840  0.00  0.00     0.000 O
ATOM     28  HD  A00 X   2      92.068  49.616  46.8130  0.00  0.00     0.000 HD
BRANCH 21 30
ATOM     28   N  A00 X   2      91.086  46.874  45.8940  0.00  0.00     0.000 N
ATOM     30  HD  A00 X   2      91.581  47.209  46.5200  0.00  0.00     0.000 HD
ATOM     30   O  A00 X   2      92.665  46.265  47.5040  0.00  0.00     0.000 OA
ATOM     31   S  A00 X   2      92.636  46.705  46.1540  0.00  0.00     0.000 S
ATOM     32   O  A00 X   2      93.036  45.726  45.1910  0.00  0.00     0.000 OA
ATOM     33   O  A00 X   2      93.253  47.965  45.8680  0.00  0.00     0.000 OA
ENDBRANCH 21 30
BRANCH 24 34
ATOM     34   C  A00 X   2      88.113  50.614  43.5670  0.00  0.00     0.000 C
ATOM     35   O  A00 X   2      89.815  51.392  40.4450  0.00  0.00     0.000 OA
ATOM     36   O  A00 X   2      89.108  51.076  42.6330  0.00  0.00     0.000 O
ATOM     37   O  A00 X   2      89.579  49.205  41.3110  0.00  0.00     0.000 OA
ATOM     38   S  A00 X   2      88.980  50.497  41.1760  0.00  0.00     0.000 S
ATOM     39   O  A00 X   2      87.590  50.552  40.8390  0.00  0.00     0.000 OA
ENDBRANCH 24 34
BRANCH 20 40
ATOM     40  O4  A00 X   3      88.065  47.898  46.5300  0.00  0.00     0.000 O
BRANCH 40 44
ATOM     41  C1  A00 X   3      84.719  49.223  46.9460  0.00  0.00     0.000 C
ATOM     42  C2  A00 X   3      85.602  48.686  48.0930  0.00  0.00     0.000 C
ATOM     43  C3  A00 X   3      86.158  47.279  47.7550  0.00  0.00     0.000 C
ATOM     44  C4  A00 X   3      86.824  47.173  46.3890  0.00  0.00     0.000 C
ATOM     45  C5  A00 X   3      85.875  47.727  45.2890  0.00  0.00     0.000 C
ATOM     46  O5  A00 X   3      85.366  49.050  45.6550  0.00  0.00     0.000 O
ATOM     47   O  A00 X   3      86.919  46.646  48.7820  0.00  0.00     0.000 O
ATOM     49  HD  A00 X   3      87.403  46.391  48.1100  0.00  0.00     0.000 HD
BRANCH 42 49
ATOM     49   O  A00 X   3      86.668  49.642  48.2890  0.00  0.00     0.000 O
ATOM     50   O  A00 X   3      88.588  49.829  49.7070  0.00  0.00     0.000 OA
ATOM     51   O  A00 X   3      86.562  49.034  50.6300  0.00  0.00     0.000 OA
ATOM     52   O  A00 X   3      86.682  51.296  49.9560  0.00  0.00     0.000 OA
ATOM     53   S  A00 X   3      87.167  49.979  49.7250  0.00  0.00     0.000 S
ENDBRANCH 42 49
BRANCH 45 54
ATOM     54   C  A00 X   3      84.764  46.728  44.9440  0.00  0.00     0.000 C
ATOM     55   O  A00 X   3      84.634  45.702  45.5800  0.00  0.00     0.000 OA
ATOM     56   O  A00 X   3      83.991  46.946  44.0240  0.00  0.00     0.000 OA
ENDBRANCH 45 54
BRANCH 41 57
ATOM     57  O4  A00 X   4      83.379  48.685  47.0080  0.00  0.00     0.000 O
BRANCH 57 61
ATOM     58  C1  A00 X   4      79.512  50.308  45.9810  0.00  0.00     0.000 C
ATOM     59  C2  A00 X   4      80.576  50.163  44.8640  0.00  0.00     0.000 C
ATOM     60  C3  A00 X   4      81.761  49.257  45.2570  0.00  0.00     0.000 C
ATOM     61  C4  A00 X   4      82.321  49.619  46.6490  0.00  0.00     0.000 C
ATOM     62  C5  A00 X   4      81.138  49.496  47.6410  0.00  0.00     0.000 C
ATOM     63  O5  A00 X   4      80.115  50.461  47.2860  0.00  0.00     0.000 O
BRANCH 59 66
ATOM     64   N  A00 X   4      81.164  51.481  44.5640  0.00  0.00     0.000 N
ATOM     66  HD  A00 X   4      81.175  52.068  45.2000  0.00  0.00     0.000 HD
ATOM     66   O  A00 X   4      79.253  51.902  43.1600  0.00  0.00     0.000 OA
ATOM     67   S  A00 X   4      80.627  52.276  43.2840  0.00  0.00     0.000 S
ATOM     68   O  A00 X   4      80.864  53.627  43.7010  0.00  0.00     0.000 OA
ATOM     69   O  A00 X   4      81.543  51.798  42.2870  0.00  0.00     0.000 OA
ENDBRANCH 59 66
BRANCH 62 70
ATOM     70   C  A00 X   4      81.529  49.716  49.1220  0.00  0.00     0.000 C
ATOM     71   O  A00 X   4      82.530  52.783  50.7650  0.00  0.00     0.000 OA
ATOM     72   O  A00 X   4      83.514  50.644  50.7780  0.00  0.00     0.000 OA
ATOM     73   O  A00 X   4      81.612  51.126  49.3870  0.00  0.00     0.000 O
ATOM     74   O  A00 X   4      83.755  52.068  48.8150  0.00  0.00     0.000 OA
ATOM     75   S  A00 X   4      82.966  51.689  49.9430  0.00  0.00     0.000 S
ENDBRANCH 62 70
ENDBRANCH 57 61
ENDBRANCH 41 57
ENDBRANCH 40 44
ENDBRANCH 20 40
ENDBRANCH 19 23
ENDBRANCH 1 19
TORSDOF 14
ENDMDL
MODEL 33
REMARK VINA RESULT:       0.0     38.469     42.769
ROOT
ATOM      1  C1  A00 X   1      36.178  49.828 103.0900  0.00  0.00     0.000 C
ATOM      2  C2  A00 X   1      35.092  49.684 101.9900  0.00  0.00     0.000 C
ATOM      3  C3  A00 X   1      34.084  50.874 101.8590  0.00  0.00     0.000 C
ATOM      4  C4  A00 X   1      34.057  51.861 103.0550  0.00  0.00     0.000 C
ATOM      5  C5  A00 X   1      34.587  51.226 104.3400  0.00  0.00     0.000 C
ATOM      6  O5  A00 X   1      35.963  50.896 104.0460  0.00  0.00     0.000 O
ATOM      7   O  A00 X   1      32.765  50.346 101.7400  0.00  0.00     0.000 O
ATOM      9  HD  A00 X   1      32.719  51.030 102.2680  0.00  0.00     0.000 HD
ATOM      9   O  A00 X   1      34.790  53.051 102.7660  0.00  0.00     0.000 O
ATOM     11  HD  A00 X   1      34.744  53.736 103.2940  0.00  0.00     0.000 HD
ENDROOT
BRANCH 2 11
ATOM     11   O  A00 X   1      35.765  49.499 100.7300  0.00  0.00     0.000 O
ATOM     12   O  A00 X   1      34.576  49.488  98.6440  0.00  0.00     0.000 OA
ATOM     13   O  A00 X   1      34.128  47.743 100.2780  0.00  0.00     0.000 OA
ATOM     14   O  A00 X   1      36.224  47.835  99.1580  0.00  0.00     0.000 OA
ATOM     15   S  A00 X   1      35.099  48.589  99.6410  0.00  0.00     0.000 S
ENDBRANCH 2 11
BRANCH 5 16
ATOM     16   C  A00 X   1      33.770  50.040 104.8620  0.00  0.00     0.000 C
ATOM     17   O  A00 X   1      34.229  49.370 105.7640  0.00  0.00     0.000 OA
ATOM     18   O  A00 X   1      32.680  49.750 104.4100  0.00  0.00     0.000 OA
ENDBRANCH 5 16
BRANCH 1 19
ATOM     19  O4  A00 X   2      36.473  48.575 103.7550  0.00  0.00     0.000 O
BRANCH 19 23
ATOM     20  C1  A00 X   2      40.684  49.334 103.9840  0.00  0.00     0.000 C
ATOM     21  C2  A00 X   2      40.181  48.446 102.8210  0.00  0.00     0.000 C
ATOM     22  C3  A00 X   2      38.661  48.618 102.6160  0.00  0.00     0.000 C
ATOM     23  C4  A00 X   2      37.902  48.363 103.9380  0.00  0.00     0.000 C
ATOM     24  C5  A00 X   2      38.510  49.295 105.0210  0.00  0.00     0.000 C
ATOM     25  O5  A00 X   2      39.920  48.984 105.1680  0.00  0.00     0.000 O
ATOM     26   O  A00 X   2      38.256  47.829 101.4850  0.00  0.00     0.000 O
ATOM     28  HD  A00 X   2      38.651  47.116 101.7780  0.00  0.00     0.000 HD
BRANCH 21 30
ATOM     28   N  A00 X   2      41.423  47.674 102.9230  0.00  0.00     0.000 N
ATOM     30  HD  A00 X   2      41.066  47.474 102.1600  0.00  0.00     0.000 HD
ATOM     30   O  A00 X   2      41.973  46.896 100.7900  0.00  0.00     0.000 OA
ATOM     31   S  A00 X   2      41.578  46.367 102.0470  0.00  0.00     0.000 S
ATOM     32   O  A00 X   2      42.586  45.618 102.7310  0.00  0.00     0.000 OA
ATOM     33   O  A00 X   2      40.325  45.674 102.0950  0.00  0.00     0.000 OA
ENDBRANCH 21 30
BRANCH 24 34
ATOM     34   C  A00 X   2      37.777  49.403 106.3800  0.00  0.00     0.000 C
ATOM     35   O  A00 X   2      39.208  48.351 109.5580  0.00  0.00     0.000 OA
ATOM     36   O  A00 X   2      38.425  48.601 107.3880  0.00  0.00     0.000 O
ATOM     37   O  A00 X   2      40.229  49.909 108.1000  0.00  0.00     0.000 OA
ATOM     38   S  A00 X   2      38.995  49.400 108.6160  0.00  0.00     0.000 S
ATOM     39   O  A00 X   2      37.988  50.350 108.9840  0.00  0.00     0.000 OA
ENDBRANCH 24 34
BRANCH 20 40
ATOM     40  O4  A00 X   3      40.383  50.684 103.6000  0.00  0.00     0.000 O
BRANCH 40 44
ATOM     41  C1  A00 X   3      39.102  53.935 104.5550  0.00  0.00     0.000 C
ATOM     42  C2  A00 X   3      39.593  53.564 103.1390  0.00  0.00     0.000 C
ATOM     43  C3  A00 X   3      40.999  52.914 103.1920  0.00  0.00     0.000 C
ATOM     44  C4  A00 X   3      41.131  51.769 104.1890  0.00  0.00     0.000 C
ATOM     45  C5  A00 X   3      40.623  52.221 105.5870  0.00  0.00     0.000 C
ATOM     46  O5  A00 X   3      39.299  52.837 105.4880  0.00  0.00     0.000 O
ATOM     47   O  A00 X   3      41.592  52.608 101.9310  0.00  0.00     0.000 O
ATOM     49  HD  A00 X   3      41.857  51.900 102.3540  0.00  0.00     0.000 HD
BRANCH 42 49
ATOM     49   O  A00 X   3      38.615  52.662 102.5750  0.00  0.00     0.000 O
ATOM     50   O  A00 X   3      38.365  51.434 100.5360  0.00  0.00     0.000 OA
ATOM     51   O  A00 X   3      39.174  53.653 100.4390  0.00  0.00     0.000 OA
ATOM     52   O  A00 X   3      36.925  53.300 101.0750  0.00  0.00     0.000 OA
ATOM     53   S  A00 X   3      38.238  52.754 101.0680  0.00  0.00     0.000 S
ENDBRANCH 42 49
BRANCH 45 54
ATOM     54   C  A00 X   3      41.649  53.106 106.3050  0.00  0.00     0.000 C
ATOM     55   O  A00 X   3      42.637  53.505 105.7230  0.00  0.00     0.000 OA
ATOM     56   O  A00 X   3      41.491  53.425 107.4730  0.00  0.00     0.000 OA
ENDBRANCH 45 54
BRANCH 41 57
ATOM     57  O4  A00 X   4      39.659  55.192 105.0010  0.00  0.00     0.000 O
BRANCH 57 61
ATOM     58  C1  A00 X   4      38.128  58.367 107.4940  0.00  0.00     0.000 C
ATOM     59  C2  A00 X   4      38.295  56.955 108.1100  0.00  0.00     0.000 C
ATOM     60  C3  A00 X   4      39.169  56.012 107.2590  0.00  0.00     0.000 C
ATOM     61  C4  A00 X   4      38.753  56.031 105.7720  0.00  0.00     0.000 C
ATOM     62  C5  A00 X   4      38.862  57.505 105.3080  0.00  0.00     0.000 C
ATOM     63  O5  A00 X   4      37.924  58.313 106.0640  0.00  0.00     0.000 O
BRANCH 59 66
ATOM     64   N  A00 X   4      36.995  56.270 108.2280  0.00  0.00     0.000 N
ATOM     66  HD  A00 X   4      36.378  56.482 107.6580  0.00  0.00     0.000 HD
ATOM     66   O  A00 X   4      36.632  57.522 110.2530  0.00  0.00     0.000 OA
ATOM     67   S  A00 X   4      36.258  56.282 109.6480  0.00  0.00     0.000 S
ATOM     68   O  A00 X   4      34.890  56.186 109.2300  0.00  0.00     0.000 OA
ATOM     69   O  A00 X   4      36.786  55.074 110.2160  0.00  0.00     0.000 OA
ENDBRANCH 59 66
BRANCH 62 70
ATOM     70   C  A00 X   4      38.587  57.714 103.8000  0.00  0.00     0.000 C
ATOM     71   O  A00 X   4      35.457  57.408 102.0070  0.00  0.00     0.000 OA
ATOM     72   O  A00 X   4      37.586  56.517 101.5400  0.00  0.00     0.000 OA
ATOM     73   O  A00 X   4      37.169  57.732 103.5730  0.00  0.00     0.000 O
ATOM     74   O  A00 X   4      36.228  55.530 103.3070  0.00  0.00     0.000 OA
ATOM     75   S  A00 X   4      36.574  56.695 102.5580  0.00  0.00     0.000 S
ENDBRANCH 62 70
ENDBRANCH 57 61
ENDBRANCH 41 57
ENDBRANCH 40 44
ENDBRANCH 20 40
ENDBRANCH 19 23
ENDBRANCH 1 19
TORSDOF 14
ENDMDL
MODEL 34
REMARK VINA RESULT:       0.0    119.011    123.564
ROOT
ATOM      1  C1  A00 X   1      57.305  81.383  19.4040  0.00  0.00     0.000 C
ATOM      2  C2  A00 X   1      56.841  79.979  18.9340  0.00  0.00     0.000 C
ATOM      3  C3  A00 X   1      56.018  79.936  17.6050  0.00  0.00     0.000 C
ATOM      4  C4  A00 X   1      55.456  81.298  17.1230  0.00  0.00     0.000 C
ATOM      5  C5  A00 X   1      55.333  82.309  18.2630  0.00  0.00     0.000 C
ATOM      6  O5  A00 X   1      56.688  82.505  18.7270  0.00  0.00     0.000 O
ATOM      7   O  A00 X   1      54.894  79.078  17.7900  0.00  0.00     0.000 O
ATOM      9  HD  A00 X   1      54.619  79.767  17.3430  0.00  0.00     0.000 HD
ATOM      9   O  A00 X   1      56.253  81.849  16.0740  0.00  0.00     0.000 O
ATOM     11  HD  A00 X   1      55.978  82.538  15.6270  0.00  0.00     0.000 HD
ENDROOT
BRANCH 2 11
ATOM     11   O  A00 X   1      58.015  79.156  18.7860  0.00  0.00     0.000 O
ATOM     12   O  A00 X   1      57.870  76.828  18.2150  0.00  0.00     0.000 OA
ATOM     13   O  A00 X   1      56.939  77.596  20.3270  0.00  0.00     0.000 OA
ATOM     14   O  A00 X   1      59.291  77.603  19.9730  0.00  0.00     0.000 OA
ATOM     15   S  A00 X   1      57.995  77.697  19.3580  0.00  0.00     0.000 S
ENDBRANCH 2 11
BRANCH 5 16
ATOM     16   C  A00 X   1      54.356  81.914  19.3750  0.00  0.00     0.000 C
ATOM     17   O  A00 X   1      54.355  82.559  20.4040  0.00  0.00     0.000 OA
ATOM     18   O  A00 X   1      53.580  80.986  19.2620  0.00  0.00     0.000 OA
ENDBRANCH 5 16
BRANCH 1 19
ATOM     19  O4  A00 X   2      57.251  81.540  20.8430  0.00  0.00     0.000 O
BRANCH 19 23
ATOM     20  C1  A00 X   2      60.812  83.916  21.0250  0.00  0.00     0.000 C
ATOM     21  C2  A00 X   2      60.944  82.407  21.3410  0.00  0.00     0.000 C
ATOM     22  C3  A00 X   2      59.716  81.628  20.8240  0.00  0.00     0.000 C
ATOM     23  C4  A00 X   2      58.410  82.245  21.3730  0.00  0.00     0.000 C
ATOM     24  C5  A00 X   2      58.408  83.755  21.0090  0.00  0.00     0.000 C
ATOM     25  O5  A00 X   2      59.569  84.382  21.6130  0.00  0.00     0.000 O
ATOM     26   O  A00 X   2      59.917  80.227  21.0790  0.00  0.00     0.000 O
ATOM     28  HD  A00 X   2      60.122  80.357  21.9100  0.00  0.00     0.000 HD
BRANCH 21 30
ATOM     28   N  A00 X   2      61.982  82.741  22.3210  0.00  0.00     0.000 N
ATOM     30  HD  A00 X   2      62.043  81.890  22.1720  0.00  0.00     0.000 HD
ATOM     30   O  A00 X   2      63.506  80.972  22.3990  0.00  0.00     0.000 OA
ATOM     31   S  A00 X   2      62.550  81.592  23.2460  0.00  0.00     0.000 S
ATOM     32   O  A00 X   2      63.100  82.297  24.3630  0.00  0.00     0.000 OA
ATOM     33   O  A00 X   2      61.435  80.794  23.6620  0.00  0.00     0.000 OA
ENDBRANCH 21 30
BRANCH 24 34
ATOM     34   C  A00 X   2      57.106  84.556  21.2430  0.00  0.00     0.000 C
ATOM     35   O  A00 X   2      56.820  87.354  23.5560  0.00  0.00     0.000 OA
ATOM     36   O  A00 X   2      57.190  85.351  22.4430  0.00  0.00     0.000 O
ATOM     37   O  A00 X   2      58.404  87.245  21.8020  0.00  0.00     0.000 OA
ATOM     38   S  A00 X   2      57.080  86.904  22.2280  0.00  0.00     0.000 S
ATOM     39   O  A00 X   2      56.011  87.109  21.2970  0.00  0.00     0.000 OA
ENDBRANCH 24 34
BRANCH 20 40
ATOM     40  O4  A00 X   3      60.731  84.008  19.5960  0.00  0.00     0.000 O
BRANCH 40 44
ATOM     41  C1  A00 X   3      59.154  85.502  16.6970  0.00  0.00     0.000 C
ATOM     42  C2  A00 X   3      60.260  84.426  16.6400  0.00  0.00     0.000 C
ATOM     43  C3  A00 X   3      61.471  84.828  17.5220  0.00  0.00     0.000 C
ATOM     44  C4  A00 X   3      61.109  85.239  18.9440  0.00  0.00     0.000 C
ATOM     45  C5  A00 X   3      59.996  86.325  18.9180  0.00  0.00     0.000 C
ATOM     46  O5  A00 X   3      58.880  85.908  18.0660  0.00  0.00     0.000 O
ATOM     47   O  A00 X   3      62.592  83.948  17.4790  0.00  0.00     0.000 O
ATOM     49  HD  A00 X   3      62.623  84.127  18.3260  0.00  0.00     0.000 HD
BRANCH 42 49
ATOM     49   O  A00 X   3      59.669  83.187  17.0880  0.00  0.00     0.000 O
ATOM     50   O  A00 X   3      60.424  80.950  17.4810  0.00  0.00     0.000 OA
ATOM     51   O  A00 X   3      61.200  82.095  15.5640  0.00  0.00     0.000 OA
ATOM     52   O  A00 X   3      58.921  81.478  15.6620  0.00  0.00     0.000 OA
ATOM     53   S  A00 X   3      60.069  81.839  16.4200  0.00  0.00     0.000 S
ENDBRANCH 42 49
BRANCH 45 54
ATOM     54   C  A00 X   3      60.557  87.703  18.5470  0.00  0.00     0.000 C
ATOM     55   O  A00 X   3      61.703  87.823  18.1650  0.00  0.00     0.000 OA
ATOM     56   O  A00 X   3      59.861  88.704  18.6300  0.00  0.00     0.000 OA
ENDBRANCH 45 54
BRANCH 41 57
ATOM     57  O4  A00 X   4      59.433  86.602  15.8020  0.00  0.00     0.000 O
BRANCH 57 61
ATOM     58  C1  A00 X   4      56.904  89.188  13.4450  0.00  0.00     0.000 C
ATOM     59  C2  A00 X   4      56.747  89.202  14.9860  0.00  0.00     0.000 C
ATOM     60  C3  A00 X   4      57.919  88.529  15.7290  0.00  0.00     0.000 C
ATOM     61  C4  A00 X   4      58.271  87.155  15.1210  0.00  0.00     0.000 C
ATOM     62  C5  A00 X   4      58.596  87.409  13.6280  0.00  0.00     0.000 C
ATOM     63  O5  A00 X   4      57.413  87.923  12.9630  0.00  0.00     0.000 O
BRANCH 59 66
ATOM     64   N  A00 X   4      55.548  88.452  15.4010  0.00  0.00     0.000 N
ATOM     66  HD  A00 X   4      55.283  87.805  14.8900  0.00  0.00     0.000 HD
ATOM     66   O  A00 X   4      54.260  90.419  14.8800  0.00  0.00     0.000 OA
ATOM     67   S  A00 X   4      54.218  89.275  15.7370  0.00  0.00     0.000 S
ATOM     68   O  A00 X   4      53.220  88.298  15.4140  0.00  0.00     0.000 OA
ATOM     69   O  A00 X   4      54.400  89.487  17.1450  0.00  0.00     0.000 OA
ENDBRANCH 59 66
BRANCH 62 70
ATOM     70   C  A00 X   4      59.083  86.155  12.8640  0.00  0.00     0.000 C
ATOM     71   O  A00 X   4      57.200  83.210  11.9200  0.00  0.00     0.000 OA
ATOM     72   O  A00 X   4      59.286  83.419  12.9940  0.00  0.00     0.000 OA
ATOM     73   O  A00 X   4      57.948  85.354  12.4940  0.00  0.00     0.000 O
ATOM     74   O  A00 X   4      57.239  83.857  14.2430  0.00  0.00     0.000 OA
ATOM     75   S  A00 X   4      57.910  83.865  12.9830  0.00  0.00     0.000 S
ENDBRANCH 62 70
ENDBRANCH 57 61
ENDBRANCH 41 57
ENDBRANCH 40 44
ENDBRANCH 20 40
ENDBRANCH 19 23
ENDBRANCH 1 19
TORSDOF 14
ENDMDL
MODEL 35
REMARK VINA RESULT:       0.0    118.906    123.411
ROOT
ATOM      1  C1  A00 X   1      56.100  80.076  18.1560  0.00  0.00     0.000 C
ATOM      2  C2  A00 X   1      55.636  78.672  17.6860  0.00  0.00     0.000 C
ATOM      3  C3  A00 X   1      54.812  78.629  16.3570  0.00  0.00     0.000 C
ATOM      4  C4  A00 X   1      54.251  79.992  15.8750  0.00  0.00     0.000 C
ATOM      5  C5  A00 X   1      54.128  81.002  17.0150  0.00  0.00     0.000 C
ATOM      6  O5  A00 X   1      55.483  81.199  17.4790  0.00  0.00     0.000 O
ATOM      7   O  A00 X   1      53.689  77.771  16.5420  0.00  0.00     0.000 O
ATOM      9  HD  A00 X   1      53.413  78.460  16.0950  0.00  0.00     0.000 HD
ATOM      9   O  A00 X   1      55.048  80.542  14.8260  0.00  0.00     0.000 O
ATOM     11  HD  A00 X   1      54.772  81.231  14.3790  0.00  0.00     0.000 HD
ENDROOT
BRANCH 2 11
ATOM     11   O  A00 X   1      56.809  77.849  17.5380  0.00  0.00     0.000 O
ATOM     12   O  A00 X   1      56.664  75.521  16.9670  0.00  0.00     0.000 OA
ATOM     13   O  A00 X   1      55.733  76.289  19.0790  0.00  0.00     0.000 OA
ATOM     14   O  A00 X   1      58.085  76.296  18.7260  0.00  0.00     0.000 OA
ATOM     15   S  A00 X   1      56.789  76.390  18.1100  0.00  0.00     0.000 S
ENDBRANCH 2 11
BRANCH 5 16
ATOM     16   C  A00 X   1      53.151  80.608  18.1270  0.00  0.00     0.000 C
ATOM     17   O  A00 X   1      53.150  81.252  19.1560  0.00  0.00     0.000 OA
ATOM     18   O  A00 X   1      52.374  79.680  18.0140  0.00  0.00     0.000 OA
ENDBRANCH 5 16
BRANCH 1 19
ATOM     19  O4  A00 X   2      56.045  80.233  19.5950  0.00  0.00     0.000 O
BRANCH 19 23
ATOM     20  C1  A00 X   2      59.607  82.609  19.7770  0.00  0.00     0.000 C
ATOM     21  C2  A00 X   2      59.738  81.100  20.0930  0.00  0.00     0.000 C
ATOM     22  C3  A00 X   2      58.511  80.321  19.5760  0.00  0.00     0.000 C
ATOM     23  C4  A00 X   2      57.204  80.938  20.1250  0.00  0.00     0.000 C
ATOM     24  C5  A00 X   2      57.203  82.448  19.7610  0.00  0.00     0.000 C
ATOM     25  O5  A00 X   2      58.363  83.076  20.3650  0.00  0.00     0.000 O
ATOM     26   O  A00 X   2      58.712  78.921  19.8310  0.00  0.00     0.000 O
ATOM     28  HD  A00 X   2      58.917  79.050  20.6620  0.00  0.00     0.000 HD
BRANCH 21 30
ATOM     28   N  A00 X   2      60.776  81.434  21.0730  0.00  0.00     0.000 N
ATOM     30  HD  A00 X   2      60.837  80.583  20.9240  0.00  0.00     0.000 HD
ATOM     30   O  A00 X   2      62.300  79.665  21.1510  0.00  0.00     0.000 OA
ATOM     31   S  A00 X   2      61.344  80.285  21.9980  0.00  0.00     0.000 S
ATOM     32   O  A00 X   2      61.894  80.990  23.1150  0.00  0.00     0.000 OA
ATOM     33   O  A00 X   2      60.230  79.487  22.4140  0.00  0.00     0.000 OA
ENDBRANCH 21 30
BRANCH 24 34
ATOM     34   C  A00 X   2      55.900  83.249  19.9960  0.00  0.00     0.000 C
ATOM     35   O  A00 X   2      55.614  86.047  22.3080  0.00  0.00     0.000 OA
ATOM     36   O  A00 X   2      55.985  84.044  21.1950  0.00  0.00     0.000 O
ATOM     37   O  A00 X   2      57.198  85.938  20.5550  0.00  0.00     0.000 OA
ATOM     38   S  A00 X   2      55.875  85.598  20.9800  0.00  0.00     0.000 S
ATOM     39   O  A00 X   2      54.805  85.803  20.0490  0.00  0.00     0.000 OA
ENDBRANCH 24 34
BRANCH 20 40
ATOM     40  O4  A00 X   3      59.525  82.701  18.3480  0.00  0.00     0.000 O
BRANCH 40 44
ATOM     41  C1  A00 X   3      57.948  84.195  15.4490  0.00  0.00     0.000 C
ATOM     42  C2  A00 X   3      59.055  83.120  15.3920  0.00  0.00     0.000 C
ATOM     43  C3  A00 X   3      60.265  83.521  16.2740  0.00  0.00     0.000 C
ATOM     44  C4  A00 X   3      59.904  83.932  17.6960  0.00  0.00     0.000 C
ATOM     45  C5  A00 X   3      58.791  85.018  17.6700  0.00  0.00     0.000 C
ATOM     46  O5  A00 X   3      57.674  84.601  16.8180  0.00  0.00     0.000 O
ATOM     47   O  A00 X   3      61.387  82.642  16.2310  0.00  0.00     0.000 O
ATOM     49  HD  A00 X   3      61.417  82.821  17.0780  0.00  0.00     0.000 HD
BRANCH 42 49
ATOM     49   O  A00 X   3      58.464  81.880  15.8400  0.00  0.00     0.000 O
ATOM     50   O  A00 X   3      59.219  79.643  16.2330  0.00  0.00     0.000 OA
ATOM     51   O  A00 X   3      59.994  80.789  14.3160  0.00  0.00     0.000 OA
ATOM     52   O  A00 X   3      57.715  80.171  14.4140  0.00  0.00     0.000 OA
ATOM     53   S  A00 X   3      58.863  80.532  15.1720  0.00  0.00     0.000 S
ENDBRANCH 42 49
BRANCH 45 54
ATOM     54   C  A00 X   3      59.351  86.396  17.2990  0.00  0.00     0.000 C
ATOM     55   O  A00 X   3      60.497  86.516  16.9170  0.00  0.00     0.000 OA
ATOM     56   O  A00 X   3      58.656  87.397  17.3820  0.00  0.00     0.000 OA
ENDBRANCH 45 54
BRANCH 41 57
ATOM     57  O4  A00 X   4      58.227  85.296  14.5540  0.00  0.00     0.000 O
BRANCH 57 61
ATOM     58  C1  A00 X   4      55.698  87.881  12.1970  0.00  0.00     0.000 C
ATOM     59  C2  A00 X   4      55.541  87.895  13.7380  0.00  0.00     0.000 C
ATOM     60  C3  A00 X   4      56.713  87.223  14.4810  0.00  0.00     0.000 C
ATOM     61  C4  A00 X   4      57.065  85.848  13.8730  0.00  0.00     0.000 C
ATOM     62  C5  A00 X   4      57.390  86.103  12.3800  0.00  0.00     0.000 C
ATOM     63  O5  A00 X   4      56.207  86.616  11.7150  0.00  0.00     0.000 O
BRANCH 59 66
ATOM     64   N  A00 X   4      54.342  87.145  14.1540  0.00  0.00     0.000 N
ATOM     66  HD  A00 X   4      54.078  86.498  13.6420  0.00  0.00     0.000 HD
ATOM     66   O  A00 X   4      53.054  89.112  13.6320  0.00  0.00     0.000 OA
ATOM     67   S  A00 X   4      53.012  87.968  14.4890  0.00  0.00     0.000 S
ATOM     68   O  A00 X   4      52.014  86.991  14.1660  0.00  0.00     0.000 OA
ATOM     69   O  A00 X   4      53.194  88.180  15.8970  0.00  0.00     0.000 OA
ENDBRANCH 59 66
BRANCH 62 70
ATOM     70   C  A00 X   4      57.877  84.848  11.6160  0.00  0.00     0.000 C
ATOM     71   O  A00 X   4      55.995  81.903  10.6720  0.00  0.00     0.000 OA
ATOM     72   O  A00 X   4      58.080  82.112  11.7460  0.00  0.00     0.000 OA
ATOM     73   O  A00 X   4      56.743  84.048  11.2460  0.00  0.00     0.000 O
ATOM     74   O  A00 X   4      56.034  82.550  12.9950  0.00  0.00     0.000 OA
ATOM     75   S  A00 X   4      56.704  82.558  11.7350  0.00  0.00     0.000 S
ENDBRANCH 62 70
ENDBRANCH 57 61
ENDBRANCH 41 57
ENDBRANCH 40 44
ENDBRANCH 20 40
ENDBRANCH 19 23
ENDBRANCH 1 19
TORSDOF 14
ENDMDL
MODEL 36
REMARK VINA RESULT:       0.0     64.771     69.164
ROOT
ATOM      1  C1  A00 X   1      64.317  61.219 104.2030  0.00  0.00     0.000 C
ATOM      2  C2  A00 X   1      65.589  60.962 103.3510  0.00  0.00     0.000 C
ATOM      3  C3  A00 X   1      66.541  62.187 103.1520  0.00  0.00     0.000 C
ATOM      4  C4  A00 X   1      65.935  63.569 103.5040  0.00  0.00     0.000 C
ATOM      5  C5  A00 X   1      64.407  63.560 103.4540  0.00  0.00     0.000 C
ATOM      6  O5  A00 X   1      64.013  62.610 104.4710  0.00  0.00     0.000 O
ATOM      7   O  A00 X   1      66.924  62.250 101.7800  0.00  0.00     0.000 O
ATOM      9  HD  A00 X   1      66.767  63.061 102.0390  0.00  0.00     0.000 HD
ATOM      9   O  A00 X   1      66.373  64.020 104.7860  0.00  0.00     0.000 O
ATOM     11  HD  A00 X   1      66.215  64.831 105.0450  0.00  0.00     0.000 HD
ENDROOT
BRANCH 2 11
ATOM     11   O  A00 X   1      66.325  59.891 103.9740  0.00  0.00     0.000 O
ATOM     12   O  A00 X   1      68.344  59.013 103.0160  0.00  0.00     0.000 OA
ATOM     13   O  A00 X   1      66.249  58.772 101.8040  0.00  0.00     0.000 OA
ATOM     14   O  A00 X   1      66.614  57.579 103.8290  0.00  0.00     0.000 OA
ATOM     15   S  A00 X   1      66.927  58.760 103.0710  0.00  0.00     0.000 S
ENDBRANCH 2 11
BRANCH 5 16
ATOM     16   C  A00 X   1      63.806  63.267 102.0760  0.00  0.00     0.000 C
ATOM     17   O  A00 X   1      62.617  63.035 101.9980  0.00  0.00     0.000 OA
ATOM     18   O  A00 X   1      64.473  63.266 101.0610  0.00  0.00     0.000 OA
ENDBRANCH 5 16
BRANCH 1 19
ATOM     19  O4  A00 X   2      63.155  60.511 103.7050  0.00  0.00     0.000 O
BRANCH 19 23
ATOM     20  C1  A00 X   2      61.631  59.639 107.6140  0.00  0.00     0.000 C
ATOM     21  C2  A00 X   2      62.437  58.529 106.8980  0.00  0.00     0.000 C
ATOM     22  C3  A00 X   2      63.266  59.114 105.7360  0.00  0.00     0.000 C
ATOM     23  C4  A00 X   2      62.363  59.917 104.7730  0.00  0.00     0.000 C
ATOM     24  C5  A00 X   2      61.600  60.979 105.6120  0.00  0.00     0.000 C
ATOM     25  O5  A00 X   2      60.806  60.298 106.6170  0.00  0.00     0.000 O
ATOM     26   O  A00 X   2      64.047  58.059 105.1480  0.00  0.00     0.000 O
ATOM     28  HD  A00 X   2      63.365  57.531 105.0690  0.00  0.00     0.000 HD
BRANCH 21 30
ATOM     28   N  A00 X   2      61.560  57.538 107.5290  0.00  0.00     0.000 N
ATOM     30  HD  A00 X   2      62.252  57.109 107.2350  0.00  0.00     0.000 HD
ATOM     30   O  A00 X   2      62.804  55.595 107.8980  0.00  0.00     0.000 OA
ATOM     31   S  A00 X   2      61.703  56.021 107.1090  0.00  0.00     0.000 S
ATOM     32   O  A00 X   2      60.443  55.448 107.4710  0.00  0.00     0.000 OA
ATOM     33   O  A00 X   2      61.873  55.990 105.6870  0.00  0.00     0.000 OA
ENDBRANCH 21 30
BRANCH 24 34
ATOM     34   C  A00 X   2      60.801  62.065 104.8540  0.00  0.00     0.000 C
ATOM     35   O  A00 X   2      57.187  62.456 105.0610  0.00  0.00     0.000 OA
ATOM     36   O  A00 X   2      59.391  61.763 104.8410  0.00  0.00     0.000 O
ATOM     37   O  A00 X   2      58.627  62.467 106.9370  0.00  0.00     0.000 OA
ATOM     38   S  A00 X   2      58.473  62.819 105.5580  0.00  0.00     0.000 S
ATOM     39   O  A00 X   2      58.941  64.108 105.1460  0.00  0.00     0.000 OA
ENDBRANCH 24 34
BRANCH 20 40
ATOM     40  O4  A00 X   3      62.607  60.564 108.1160  0.00  0.00     0.000 O
BRANCH 40 44
ATOM     41  C1  A00 X   3      63.602  64.017 108.5740  0.00  0.00     0.000 C
ATOM     42  C2  A00 X   3      64.443  62.795 109.0010  0.00  0.00     0.000 C
ATOM     43  C3  A00 X   3      63.598  61.807 109.8460  0.00  0.00     0.000 C
ATOM     44  C4  A00 X   3      62.262  61.424 109.2230  0.00  0.00     0.000 C
ATOM     45  C5  A00 X   3      61.473  62.704 108.8260  0.00  0.00     0.000 C
ATOM     46  O5  A00 X   3      62.312  63.611 108.0390  0.00  0.00     0.000 O
ATOM     47   O  A00 X   3      64.297  60.679 110.3690  0.00  0.00     0.000 O
ATOM     49  HD  A00 X   3      63.561  60.271 110.1680  0.00  0.00     0.000 HD
BRANCH 42 49
ATOM     49   O  A00 X   3      64.930  62.173 107.7910  0.00  0.00     0.000 O
ATOM     50   O  A00 X   3      66.221  60.234 107.2390  0.00  0.00     0.000 OA
ATOM     51   O  A00 X   3      66.878  61.553 109.0870  0.00  0.00     0.000 OA
ATOM     52   O  A00 X   3      67.090  62.468 106.9180  0.00  0.00     0.000 OA
ATOM     53   S  A00 X   3      66.362  61.565 107.7410  0.00  0.00     0.000 S
ENDBRANCH 42 49
BRANCH 45 54
ATOM     54   C  A00 X   3      60.834  63.378 110.0450  0.00  0.00     0.000 C
ATOM     55   O  A00 X   3      61.120  63.022 111.1700  0.00  0.00     0.000 OA
ATOM     56   O  A00 X   3      60.026  64.283 109.9070  0.00  0.00     0.000 OA
ENDBRANCH 45 54
BRANCH 41 57
ATOM     57  O4  A00 X   4      63.517  65.001 109.6290  0.00  0.00     0.000 O
BRANCH 57 61
ATOM     58  C1  A00 X   4      63.296  69.313 109.6130  0.00  0.00     0.000 C
ATOM     59  C2  A00 X   4      62.161  68.510 108.9290  0.00  0.00     0.000 C
ATOM     60  C3  A00 X   4      62.155  67.014 109.3040  0.00  0.00     0.000 C
ATOM     61  C4  A00 X   4      63.561  66.388 109.1860  0.00  0.00     0.000 C
ATOM     62  C5  A00 X   4      64.487  67.217 110.1110  0.00  0.00     0.000 C
ATOM     63  O5  A00 X   4      64.544  68.583 109.6270  0.00  0.00     0.000 O
BRANCH 59 66
ATOM     64   N  A00 X   4      62.309  68.541 107.4630  0.00  0.00     0.000 N
ATOM     66  HD  A00 X   4      63.109  68.630 107.1440  0.00  0.00     0.000 HD
ATOM     66   O  A00 X   4      61.253  70.705 107.5030  0.00  0.00     0.000 OA
ATOM     67   S  A00 X   4      61.422  69.582 106.6340  0.00  0.00     0.000 S
ATOM     68   O  A00 X   4      62.271  69.801 105.5000  0.00  0.00     0.000 OA
ATOM     69   O  A00 X   4      60.271  68.770 106.3580  0.00  0.00     0.000 OA
ENDBRANCH 59 66
BRANCH 62 70
ATOM     70   C  A00 X   4      65.931  66.671 110.2140  0.00  0.00     0.000 C
ATOM     71   O  A00 X   4      68.525  66.648 107.6890  0.00  0.00     0.000 OA
ATOM     72   O  A00 X   4      67.729  64.928 109.0860  0.00  0.00     0.000 OA
ATOM     73   O  A00 X   4      66.681  67.093 109.0630  0.00  0.00     0.000 O
ATOM     74   O  A00 X   4      66.402  65.632 107.1680  0.00  0.00     0.000 OA
ATOM     75   S  A00 X   4      67.348  65.985 108.1760  0.00  0.00     0.000 S
ENDBRANCH 62 70
ENDBRANCH 57 61
ENDBRANCH 41 57
ENDBRANCH 40 44
ENDBRANCH 20 40
ENDBRANCH 19 23
ENDBRANCH 1 19
TORSDOF 14
ENDMDL
MODEL 37
REMARK VINA RESULT:       0.0     87.944     92.898
ROOT
ATOM      1  C1  A00 X   1      28.679  84.106  44.7520  0.00  0.00     0.000 C
ATOM      2  C2  A00 X   1      28.209  84.528  43.3340  0.00  0.00     0.000 C
ATOM      3  C3  A00 X   1      27.703  86.001  43.1880  0.00  0.00     0.000 C
ATOM      4  C4  A00 X   1      27.387  86.734  44.5180  0.00  0.00     0.000 C
ATOM      5  C5  A00 X   1      27.102  85.759  45.6610  0.00  0.00     0.000 C
ATOM      6  O5  A00 X   1      28.331  85.016  45.8240  0.00  0.00     0.000 O
ATOM      7   O  A00 X   1      26.494  85.996  42.4320  0.00  0.00     0.000 O
ATOM      9  HD  A00 X   1      26.388  86.562  43.0790  0.00  0.00     0.000 HD
ATOM      9   O  A00 X   1      28.443  87.618  44.8890  0.00  0.00     0.000 O
ATOM     11  HD  A00 X   1      28.337  88.184  45.5370  0.00  0.00     0.000 HD
ENDROOT
BRANCH 2 11
ATOM     11   O  A00 X   1      29.308  84.317  42.4270  0.00  0.00     0.000 O
ATOM     12   O  A00 X   1      29.234  85.067  40.1470  0.00  0.00     0.000 OA
ATOM     13   O  A00 X   1      27.666  83.362  40.8900  0.00  0.00     0.000 OA
ATOM     14   O  A00 X   1      29.988  82.874  40.7220  0.00  0.00     0.000 OA
ATOM     15   S  A00 X   1      29.000  83.893  40.9490  0.00  0.00     0.000 S
ENDBRANCH 2 11
BRANCH 5 16
ATOM     16   C  A00 X   1      25.870  84.871  45.4630  0.00  0.00     0.000 C
ATOM     17   O  A00 X   1      25.701  83.936  46.2180  0.00  0.00     0.000 OA
ATOM     18   O  A00 X   1      25.055  85.072  44.5840  0.00  0.00     0.000 OA
ENDBRANCH 5 16
BRANCH 1 19
ATOM     19  O4  A00 X   2      28.318  82.741  45.0800  0.00  0.00     0.000 O
BRANCH 19 23
ATOM     20  C1  A00 X   2      32.023  81.917  47.0700  0.00  0.00     0.000 C
ATOM     21  C2  A00 X   2      31.882  81.450  45.6010  0.00  0.00     0.000 C
ATOM     22  C3  A00 X   2      30.714  82.178  44.9030  0.00  0.00     0.000 C
ATOM     23  C4  A00 X   2      29.408  82.012  45.7130  0.00  0.00     0.000 C
ATOM     24  C5  A00 X   2      29.686  82.495  47.1630  0.00  0.00     0.000 C
ATOM     25  O5  A00 X   2      30.750  81.686  47.7290  0.00  0.00     0.000 O
ATOM     26   O  A00 X   2      30.668  81.762  43.5270  0.00  0.00     0.000 O
ATOM     28  HD  A00 X   2      30.693  80.920  43.7280  0.00  0.00     0.000 HD
BRANCH 21 30
ATOM     28   N  A00 X   2      32.704  80.282  45.9330  0.00  0.00     0.000 N
ATOM     30  HD  A00 X   2      32.687  80.339  45.0690  0.00  0.00     0.000 HD
ATOM     30   O  A00 X   2      33.927  79.690  44.0320  0.00  0.00     0.000 OA
ATOM     31   S  A00 X   2      32.892  79.153  44.8430  0.00  0.00     0.000 S
ATOM     32   O  A00 X   2      33.260  78.002  45.6080  0.00  0.00     0.000 OA
ATOM     33   O  A00 X   2      31.619  78.950  44.2190  0.00  0.00     0.000 OA
ENDBRANCH 21 30
BRANCH 24 34
ATOM     34   C  A00 X   2      28.480  82.649  48.1200  0.00  0.00     0.000 C
ATOM     35   O  A00 X   2      28.044  80.726  51.1810  0.00  0.00     0.000 OA
ATOM     36   O  A00 X   2      28.393  81.538  49.0350  0.00  0.00     0.000 O
ATOM     37   O  A00 X   2      29.956  82.034  50.7030  0.00  0.00     0.000 OA
ATOM     38   S  A00 X   2      28.538  81.909  50.5560  0.00  0.00     0.000 S
ATOM     39   O  A00 X   2      27.743  83.082  50.7640  0.00  0.00     0.000 OA
ENDBRANCH 24 34
BRANCH 20 40
ATOM     40  O4  A00 X   3      32.282  83.327  47.0050  0.00  0.00     0.000 O
BRANCH 40 44
ATOM     41  C1  A00 X   3      31.610  86.645  48.2960  0.00  0.00     0.000 C
ATOM     42  C2  A00 X   3      32.563  86.334  47.1230  0.00  0.00     0.000 C
ATOM     43  C3  A00 X   3      33.574  85.223  47.5080  0.00  0.00     0.000 C
ATOM     44  C4  A00 X   3      32.944  83.975  48.1130  0.00  0.00     0.000 C
ATOM     45  C5  A00 X   3      32.005  84.369  49.2870  0.00  0.00     0.000 C
ATOM     46  O5  A00 X   3      31.076  85.425  48.8820  0.00  0.00     0.000 O
ATOM     47   O  A00 X   3      34.563  84.913  46.5280  0.00  0.00     0.000 O
ATOM     49  HD  A00 X   3      34.417  84.104  46.8000  0.00  0.00     0.000 HD
BRANCH 42 49
ATOM     49   O  A00 X   3      31.741  85.934  46.0040  0.00  0.00     0.000 O
ATOM     50   O  A00 X   3      32.113  85.184  43.7610  0.00  0.00     0.000 OA
ATOM     51   O  A00 X   3      33.432  86.955  44.6060  0.00  0.00     0.000 OA
ATOM     52   O  A00 X   3      31.132  87.344  44.2280  0.00  0.00     0.000 OA
ATOM     53   S  A00 X   3      32.115  86.371  44.5580  0.00  0.00     0.000 S
ENDBRANCH 42 49
BRANCH 45 54
ATOM     54   C  A00 X   3      32.795  84.714  50.5550  0.00  0.00     0.000 C
ATOM     55   O  A00 X   3      34.006  84.804  50.5240  0.00  0.00     0.000 OA
ATOM     56   O  A00 X   3      32.223  84.903  51.6170  0.00  0.00     0.000 OA
ENDBRANCH 45 54
BRANCH 41 57
ATOM     57  O4  A00 X   4      32.217  87.539  49.2550  0.00  0.00     0.000 O
BRANCH 57 61
ATOM     58  C1  A00 X   4      30.629  90.659  51.7820  0.00  0.00     0.000 C
ATOM     59  C2  A00 X   4      30.127  89.209  51.9910  0.00  0.00     0.000 C
ATOM     60  C3  A00 X   4      31.008  88.148  51.2990  0.00  0.00     0.000 C
ATOM     61  C4  A00 X   4      31.318  88.527  49.8350  0.00  0.00     0.000 C
ATOM     62  C5  A00 X   4      32.004  89.915  49.8800  0.00  0.00     0.000 C
ATOM     63  O5  A00 X   4      31.077  90.888  50.4260  0.00  0.00     0.000 O
BRANCH 59 66
ATOM     64   N  A00 X   4      28.783  89.032  51.4130  0.00  0.00     0.000 N
ATOM     66  HD  A00 X   4      28.567  89.534  50.7410  0.00  0.00     0.000 HD
ATOM     66   O  A00 X   4      27.898  90.018  53.4240  0.00  0.00     0.000 OA
ATOM     67   S  A00 X   4      27.522  89.101  52.3950  0.00  0.00     0.000 S
ATOM     68   O  A00 X   4      26.514  89.569  51.4890  0.00  0.00     0.000 OA
ATOM     69   O  A00 X   4      27.398  87.714  52.7460  0.00  0.00     0.000 OA
ENDBRANCH 59 66
BRANCH 62 70
ATOM     70   C  A00 X   4      32.495  90.422  48.5040  0.00  0.00     0.000 C
ATOM     71   O  A00 X   4      30.533  91.514  45.6640  0.00  0.00     0.000 OA
ATOM     72   O  A00 X   4      32.330  89.999  45.7950  0.00  0.00     0.000 OA
ATOM     73   O  A00 X   4      31.386  90.978  47.7790  0.00  0.00     0.000 O
ATOM     74   O  A00 X   4      30.123  89.319  46.5720  0.00  0.00     0.000 OA
ATOM     75   S  A00 X   4      31.057  90.378  46.3680  0.00  0.00     0.000 S
ENDBRANCH 62 70
ENDBRANCH 57 61
ENDBRANCH 41 57
ENDBRANCH 40 44
ENDBRANCH 20 40
ENDBRANCH 19 23
ENDBRANCH 1 19
TORSDOF 14
ENDMDL
MODEL 38
REMARK VINA RESULT:       0.0     43.087     48.033
ROOT
ATOM      1  C1  A00 X   1      35.487  42.009  81.8450  0.00  0.00     0.000 C
ATOM      2  C2  A00 X   1      34.877  42.220  83.2560  0.00  0.00     0.000 C
ATOM      3  C3  A00 X   1      33.633  43.164  83.3330  0.00  0.00     0.000 C
ATOM      4  C4  A00 X   1      33.388  44.051  82.0850  0.00  0.00     0.000 C
ATOM      5  C5  A00 X   1      34.659  44.250  81.2600  0.00  0.00     0.000 C
ATOM      6  O5  A00 X   1      35.023  42.922  80.8200  0.00  0.00     0.000 O
ATOM      7   O  A00 X   1      33.801  44.054  84.4350  0.00  0.00     0.000 O
ATOM      9  HD  A00 X   1      33.476  44.518  83.7800  0.00  0.00     0.000 HD
ATOM      9   O  A00 X   1      32.356  43.514  81.2580  0.00  0.00     0.000 O
ATOM     11  HD  A00 X   1      32.031  43.978  80.6030  0.00  0.00     0.000 HD
ENDROOT
BRANCH 2 11
ATOM     11   O  A00 X   1      34.516  40.925  83.7760  0.00  0.00     0.000 O
ATOM     12   O  A00 X   1      33.613  40.649  85.9840  0.00  0.00     0.000 OA
ATOM     13   O  A00 X   1      35.882  41.486  85.7220  0.00  0.00     0.000 OA
ATOM     14   O  A00 X   1      35.354  39.237  85.1550  0.00  0.00     0.000 OA
ATOM     15   S  A00 X   1      34.861  40.583  85.2660  0.00  0.00     0.000 S
ENDBRANCH 2 11
BRANCH 5 16
ATOM     16   C  A00 X   1      35.792  44.987  81.9830  0.00  0.00     0.000 C
ATOM     17   O  A00 X   1      36.890  45.012  81.4670  0.00  0.00     0.000 OA
ATOM     18   O  A00 X   1      35.628  45.551  83.0460  0.00  0.00     0.000 OA
ENDBRANCH 5 16
BRANCH 1 19
ATOM     19  O4  A00 X   2      36.933  41.928  81.8640  0.00  0.00     0.000 O
BRANCH 19 23
ATOM     20  C1  A00 X   2      37.110  38.925  78.8120  0.00  0.00     0.000 C
ATOM     21  C2  A00 X   2      37.211  38.455  80.2830  0.00  0.00     0.000 C
ATOM     22  C3  A00 X   2      36.706  39.550  81.2450  0.00  0.00     0.000 C
ATOM     23  C4  A00 X   2      37.446  40.883  80.9890  0.00  0.00     0.000 C
ATOM     24  C5  A00 X   2      37.286  41.233  79.4850  0.00  0.00     0.000 C
ATOM     25  O5  A00 X   2      37.863  40.162  78.6920  0.00  0.00     0.000 O
ATOM     26   O  A00 X   2      36.755  39.042  82.5890  0.00  0.00     0.000 O
ATOM     28  HD  A00 X   2      37.574  38.773  82.5110  0.00  0.00     0.000 HD
BRANCH 21 30
ATOM     28   N  A00 X   2      38.130  37.401  79.8430  0.00  0.00     0.000 N
ATOM     30  HD  A00 X   2      37.865  37.186  80.6390  0.00  0.00     0.000 HD
ATOM     30   O  A00 X   2      37.838  35.552  81.2400  0.00  0.00     0.000 OA
ATOM     31   S  A00 X   2      38.841  36.510  80.9380  0.00  0.00     0.000 S
ATOM     32   O  A00 X   2      39.988  35.990  80.2590  0.00  0.00     0.000 OA
ATOM     33   O  A00 X   2      39.245  37.384  81.9990  0.00  0.00     0.000 OA
ENDBRANCH 21 30
BRANCH 24 34
ATOM     34   C  A00 X   2      37.740  42.635  79.0130  0.00  0.00     0.000 C
ATOM     35   O  A00 X   2      40.465  43.218  76.6710  0.00  0.00     0.000 OA
ATOM     36   O  A00 X   2      39.036  42.581  78.3850  0.00  0.00     0.000 O
ATOM     37   O  A00 X   2      38.599  41.840  76.2100  0.00  0.00     0.000 OA
ATOM     38   S  A00 X   2      39.068  43.017  76.8750  0.00  0.00     0.000 S
ATOM     39   O  A00 X   2      38.265  44.199  76.7780  0.00  0.00     0.000 OA
ENDBRANCH 24 34
BRANCH 20 40
ATOM     40  O4  A00 X   3      35.718  39.187  78.5820  0.00  0.00     0.000 O
BRANCH 40 44
ATOM     41  C1  A00 X   3      33.209  41.382  77.1640  0.00  0.00     0.000 C
ATOM     42  C2  A00 X   3      32.904  40.089  77.9520  0.00  0.00     0.000 C
ATOM     43  C3  A00 X   3      33.715  38.893  77.3910  0.00  0.00     0.000 C
ATOM     44  C4  A00 X   3      35.207  39.158  77.2320  0.00  0.00     0.000 C
ATOM     45  C5  A00 X   3      35.432  40.469  76.4280  0.00  0.00     0.000 C
ATOM     46  O5  A00 X   3      34.640  41.567  76.9850  0.00  0.00     0.000 O
ATOM     47   O  A00 X   3      33.448  37.625  77.9870  0.00  0.00     0.000 O
ATOM     49  HD  A00 X   3      34.305  37.531  77.9010  0.00  0.00     0.000 HD
BRANCH 42 49
ATOM     49   O  A00 X   3      33.233  40.348  79.3340  0.00  0.00     0.000 O
ATOM     50   O  A00 X   3      33.240  39.100  81.3770  0.00  0.00     0.000 OA
ATOM     51   O  A00 X   3      31.432  38.826  79.8780  0.00  0.00     0.000 OA
ATOM     52   O  A00 X   3      31.666  40.896  80.9950  0.00  0.00     0.000 OA
ATOM     53   S  A00 X   3      32.351  39.763  80.4750  0.00  0.00     0.000 S
ENDBRANCH 42 49
BRANCH 45 54
ATOM     54   C  A00 X   3      35.201  40.260  74.9260  0.00  0.00     0.000 C
ATOM     55   O  A00 X   3      34.704  39.232  74.5140  0.00  0.00     0.000 OA
ATOM     56   O  A00 X   3      35.513  41.122  74.1190  0.00  0.00     0.000 OA
ENDBRANCH 45 54
BRANCH 41 57
ATOM     57  O4  A00 X   4      32.450  41.451  75.9360  0.00  0.00     0.000 O
BRANCH 57 61
ATOM     58  C1  A00 X   4      30.743  44.737  73.7160  0.00  0.00     0.000 C
ATOM     59  C2  A00 X   4      32.279  44.691  73.9090  0.00  0.00     0.000 C
ATOM     60  C3  A00 X   4      32.798  43.321  74.3890  0.00  0.00     0.000 C
ATOM     61  C4  A00 X   4      31.974  42.779  75.5770  0.00  0.00     0.000 C
ATOM     62  C5  A00 X   4      30.505  42.710  75.0930  0.00  0.00     0.000 C
ATOM     63  O5  A00 X   4      30.043  44.048  74.7770  0.00  0.00     0.000 O
BRANCH 59 66
ATOM     64   N  A00 X   4      32.707  45.649  74.9450  0.00  0.00     0.000 N
ATOM     66  HD  A00 X   4      32.140  45.841  75.5710  0.00  0.00     0.000 HD
ATOM     66   O  A00 X   4      32.599  47.366  73.2590  0.00  0.00     0.000 OA
ATOM     67   S  A00 X   4      33.288  47.063  74.4740  0.00  0.00     0.000 S
ATOM     68   O  A00 X   4      32.936  47.876  75.6020  0.00  0.00     0.000 OA
ATOM     69   O  A00 X   4      34.686  46.748  74.3910  0.00  0.00     0.000 OA
ENDBRANCH 59 66
BRANCH 62 70
ATOM     70   C  A00 X   4      29.530  42.082  76.1180  0.00  0.00     0.000 C
ATOM     71   O  A00 X   4      28.386  43.437  79.2740  0.00  0.00     0.000 OA
ATOM     72   O  A00 X   4      29.261  41.317  78.7410  0.00  0.00     0.000 OA
ATOM     73   O  A00 X   4      29.170  43.070  77.0970  0.00  0.00     0.000 O
ATOM     74   O  A00 X   4      30.759  43.232  78.9010  0.00  0.00     0.000 OA
ATOM     75   S  A00 X   4      29.451  42.744  78.6050  0.00  0.00     0.000 S
ENDBRANCH 62 70
ENDBRANCH 57 61
ENDBRANCH 41 57
ENDBRANCH 40 44
ENDBRANCH 20 40
ENDBRANCH 19 23
ENDBRANCH 1 19
TORSDOF 14
ENDMDL
MODEL 39
REMARK VINA RESULT:       0.0     88.562     94.432
ROOT
ATOM      1  C1  A00 X   1      56.661  74.479  46.4230  0.00  0.00     0.000 C
ATOM      2  C2  A00 X   1      56.579  74.578  44.8760  0.00  0.00     0.000 C
ATOM      3  C3  A00 X   1      56.045  73.309  44.1340  0.00  0.00     0.000 C
ATOM      4  C4  A00 X   1      56.013  72.007  44.9740  0.00  0.00     0.000 C
ATOM      5  C5  A00 X   1      56.985  72.057  46.1530  0.00  0.00     0.000 C
ATOM      6  O5  A00 X   1      56.510  73.147  46.9740  0.00  0.00     0.000 O
ATOM      7   O  A00 X   1      56.886  73.048  43.0120  0.00  0.00     0.000 O
ATOM      9  HD  A00 X   1      56.705  72.284  43.3800  0.00  0.00     0.000 HD
ATOM      9   O  A00 X   1      54.697  71.722  45.4460  0.00  0.00     0.000 O
ATOM     11  HD  A00 X   1      54.516  70.959  45.8130  0.00  0.00     0.000 HD
ENDROOT
BRANCH 2 11
ATOM     11   O  A00 X   1      55.736  75.701  44.5530  0.00  0.00     0.000 O
ATOM     12   O  A00 X   1      55.046  76.163  42.2990  0.00  0.00     0.000 OA
ATOM     13   O  A00 X   1      57.407  76.286  42.8700  0.00  0.00     0.000 OA
ATOM     14   O  A00 X   1      55.874  77.884  43.7360  0.00  0.00     0.000 OA
ATOM     15   S  A00 X   1      56.049  76.537  43.2640  0.00  0.00     0.000 S
ENDBRANCH 2 11
BRANCH 5 16
ATOM     16   C  A00 X   1      58.463  72.176  45.7690  0.00  0.00     0.000 C
ATOM     17   O  A00 X   1      59.271  72.433  46.6380  0.00  0.00     0.000 OA
ATOM     18   O  A00 X   1      58.856  72.018  44.6300  0.00  0.00     0.000 OA
ENDBRANCH 5 16
BRANCH 1 19
ATOM     19  O4  A00 X   2      57.825  75.148  46.9670  0.00  0.00     0.000 O
BRANCH 19 23
ATOM     20  C1  A00 X   2      55.712  76.739  50.3390  0.00  0.00     0.000 C
ATOM     21  C2  A00 X   2      55.923  77.673  49.1230  0.00  0.00     0.000 C
ATOM     22  C3  A00 X   2      56.291  76.860  47.8640  0.00  0.00     0.000 C
ATOM     23  C4  A00 X   2      57.510  75.951  48.1410  0.00  0.00     0.000 C
ATOM     24  C5  A00 X   2      57.181  75.084  49.3870  0.00  0.00     0.000 C
ATOM     25  O5  A00 X   2      56.926  75.962  50.5140  0.00  0.00     0.000 O
ATOM     26   O  A00 X   2      56.409  77.762  46.7500  0.00  0.00     0.000 O
ATOM     28  HD  A00 X   2      56.934  78.302  47.1780  0.00  0.00     0.000 HD
BRANCH 21 30
ATOM     28   N  A00 X   2      56.048  78.797  50.0550  0.00  0.00     0.000 N
ATOM     30  HD  A00 X   2      55.917  79.137  49.2700  0.00  0.00     0.000 HD
ATOM     30   O  A00 X   2      55.223  80.712  49.0010  0.00  0.00     0.000 OA
ATOM     31   S  A00 X   2      56.461  80.213  49.4860  0.00  0.00     0.000 S
ATOM     32   O  A00 X   2      56.984  80.898  50.6270  0.00  0.00     0.000 OA
ATOM     33   O  A00 X   2      57.496  79.995  48.5190  0.00  0.00     0.000 OA
ENDBRANCH 21 30
BRANCH 24 34
ATOM     34   C  A00 X   2      58.143  73.925  49.7390  0.00  0.00     0.000 C
ATOM     35   O  A00 X   2      60.086  73.748  52.8140  0.00  0.00     0.000 OA
ATOM     36   O  A00 X   2      59.024  74.288  50.8210  0.00  0.00     0.000 O
ATOM     37   O  A00 X   2      57.733  73.984  52.7480  0.00  0.00     0.000 OA
ATOM     38   S  A00 X   2      58.885  73.413  52.1200  0.00  0.00     0.000 S
ATOM     39   O  A00 X   2      58.797  72.051  51.6840  0.00  0.00     0.000 OA
ENDBRANCH 24 34
BRANCH 20 40
ATOM     40  O4  A00 X   3      54.632  75.867  49.9760  0.00  0.00     0.000 O
BRANCH 40 44
ATOM     41  C1  A00 X   3      53.289  72.503  49.8970  0.00  0.00     0.000 C
ATOM     42  C2  A00 X   3      52.580  73.747  49.3210  0.00  0.00     0.000 C
ATOM     43  C3  A00 X   3      52.530  74.892  50.3650  0.00  0.00     0.000 C
ATOM     44  C4  A00 X   3      53.870  75.215  51.0150  0.00  0.00     0.000 C
ATOM     45  C5  A00 X   3      54.518  73.917  51.5740  0.00  0.00     0.000 C
ATOM     46  O5  A00 X   3      54.534  72.862  50.5590  0.00  0.00     0.000 O
ATOM     47   O  A00 X   3      51.820  76.064  49.9720  0.00  0.00     0.000 O
ATOM     49  HD  A00 X   3      52.468  76.460  50.3870  0.00  0.00     0.000 HD
BRANCH 42 49
ATOM     49   O  A00 X   3      53.312  74.142  48.1400  0.00  0.00     0.000 O
ATOM     50   O  A00 X   3      53.173  75.903  46.5240  0.00  0.00     0.000 OA
ATOM     51   O  A00 X   3      51.178  74.870  47.2600  0.00  0.00     0.000 OA
ATOM     52   O  A00 X   3      52.680  73.608  45.9420  0.00  0.00     0.000 OA
ATOM     53   S  A00 X   3      52.555  74.666  46.8840  0.00  0.00     0.000 S
ENDBRANCH 42 49
BRANCH 45 54
ATOM     54   C  A00 X   3      53.864  73.478  52.8900  0.00  0.00     0.000 C
ATOM     55   O  A00 X   3      52.882  74.053  53.3150  0.00  0.00     0.000 OA
ATOM     56   O  A00 X   3      54.319  72.546  53.5330  0.00  0.00     0.000 OA
ENDBRANCH 45 54
BRANCH 41 57
ATOM     57  O4  A00 X   4      52.398  71.711  50.7140  0.00  0.00     0.000 O
BRANCH 57 61
ATOM     58  C1  A00 X   4      52.067  67.468  51.4380  0.00  0.00     0.000 C
ATOM     59  C2  A00 X   4      53.377  68.189  51.8420  0.00  0.00     0.000 C
ATOM     60  C3  A00 X   4      53.249  69.725  51.8730  0.00  0.00     0.000 C
ATOM     61  C4  A00 X   4      52.570  70.270  50.5980  0.00  0.00     0.000 C
ATOM     62  C5  A00 X   4      51.191  69.571  50.5060  0.00  0.00     0.000 C
ATOM     63  O5  A00 X   4      51.389  68.142  50.3540  0.00  0.00     0.000 O
BRANCH 59 66
ATOM     64   N  A00 X   4      54.441  67.905  50.8620  0.00  0.00     0.000 N
ATOM     66  HD  A00 X   4      54.200  67.731  50.0490  0.00  0.00     0.000 HD
ATOM     66   O  A00 X   4      54.811  65.824  52.0160  0.00  0.00     0.000 OA
ATOM     67   S  A00 X   4      55.517  66.776  51.2180  0.00  0.00     0.000 S
ATOM     68   O  A00 X   4      55.875  66.335  49.9020  0.00  0.00     0.000 OA
ATOM     69   O  A00 X   4      56.520  67.577  51.8630  0.00  0.00     0.000 OA
ENDBRANCH 59 66
BRANCH 62 70
ATOM     70   C  A00 X   4      50.305  70.072  49.3410  0.00  0.00     0.000 C
ATOM     71   O  A00 X   4      50.760  69.584  45.7830  0.00  0.00     0.000 OA
ATOM     72   O  A00 X   4      50.314  71.538  47.0190  0.00  0.00     0.000 OA
ATOM     73   O  A00 X   4      50.723  69.440  48.1210  0.00  0.00     0.000 O
ATOM     74   O  A00 X   4      52.555  70.581  47.0480  0.00  0.00     0.000 OA
ATOM     75   S  A00 X   4      51.150  70.361  46.9260  0.00  0.00     0.000 S
ENDBRANCH 62 70
ENDBRANCH 57 61
ENDBRANCH 41 57
ENDBRANCH 40 44
ENDBRANCH 20 40
ENDBRANCH 19 23
ENDBRANCH 1 19
TORSDOF 14
ENDMDL
MODEL 40
REMARK VINA RESULT:       0.0     42.526     46.625
ROOT
ATOM      1  C1  A00 X   1      37.564  55.302 108.6900  0.00  0.00     0.000 C
ATOM      2  C2  A00 X   1      36.597  55.250 109.9030  0.00  0.00     0.000 C
ATOM      3  C3  A00 X   1      37.227  54.814 111.2670  0.00  0.00     0.000 C
ATOM      4  C4  A00 X   1      38.622  54.144 111.1750  0.00  0.00     0.000 C
ATOM      5  C5  A00 X   1      38.885  53.545 109.7930  0.00  0.00     0.000 C
ATOM      6  O5  A00 X   1      38.854  54.674 108.8920  0.00  0.00     0.000 O
ATOM      7   O  A00 X   1      36.363  53.866 111.8880  0.00  0.00     0.000 O
ATOM      9  HD  A00 X   1      37.174  53.587 112.0050  0.00  0.00     0.000 HD
ATOM      9   O  A00 X   1      39.664  55.061 111.5090  0.00  0.00     0.000 O
ATOM     11  HD  A00 X   1      40.476  54.781 111.6260  0.00  0.00     0.000 HD
ENDROOT
BRANCH 2 11
ATOM     11   O  A00 X   1      36.010  56.557 110.0530  0.00  0.00     0.000 O
ATOM     12   O  A00 X   1      34.594  57.109 111.9120  0.00  0.00     0.000 OA
ATOM     13   O  A00 X   1      33.873  55.408 110.3290  0.00  0.00     0.000 OA
ATOM     14   O  A00 X   1      34.005  57.690 109.6700  0.00  0.00     0.000 OA
ATOM     15   S  A00 X   1      34.525  56.671 110.5410  0.00  0.00     0.000 S
ENDBRANCH 2 11
BRANCH 5 16
ATOM     16   C  A00 X   1      37.937  52.412 109.3880  0.00  0.00     0.000 C
ATOM     17   O  A00 X   1      37.920  52.055 108.2280  0.00  0.00     0.000 OA
ATOM     18   O  A00 X   1      37.209  51.854 110.1850  0.00  0.00     0.000 OA
ENDBRANCH 5 16
BRANCH 1 19
ATOM     19  O4  A00 X   2      36.945  54.855 107.4590  0.00  0.00     0.000 O
BRANCH 19 23
ATOM     20  C1  A00 X   2      38.908  57.801 105.0430  0.00  0.00     0.000 C
ATOM     21  C2  A00 X   2      37.461  58.103 105.5040  0.00  0.00     0.000 C
ATOM     22  C3  A00 X   2      37.060  57.195 106.6850  0.00  0.00     0.000 C
ATOM     23  C4  A00 X   2      37.277  55.708 106.3260  0.00  0.00     0.000 C
ATOM     24  C5  A00 X   2      38.751  55.541 105.8650  0.00  0.00     0.000 C
ATOM     25  O5  A00 X   2      38.978  56.389 104.7090  0.00  0.00     0.000 O
ATOM     26   O  A00 X   2      35.738  57.560 107.1190  0.00  0.00     0.000 O
ATOM     28  HD  A00 X   2      35.411  57.525 106.3180  0.00  0.00     0.000 HD
BRANCH 21 30
ATOM     28   N  A00 X   2      37.247  58.796 104.2300  0.00  0.00     0.000 N
ATOM     30  HD  A00 X   2      36.600  59.032 104.7550  0.00  0.00     0.000 HD
ATOM     30   O  A00 X   2      35.714  60.522 104.5900  0.00  0.00     0.000 OA
ATOM     31   S  A00 X   2      35.790  59.298 103.8750  0.00  0.00     0.000 S
ATOM     32   O  A00 X   2      35.815  59.431 102.4510  0.00  0.00     0.000 OA
ATOM     33   O  A00 X   2      34.880  58.262 104.2620  0.00  0.00     0.000 OA
ENDBRANCH 21 30
BRANCH 24 34
ATOM     34   C  A00 X   2      39.292  54.106 105.6670  0.00  0.00     0.000 C
ATOM     35   O  A00 X   2      37.853  51.683 103.3610  0.00  0.00     0.000 OA
ATOM     36   O  A00 X   2      38.334  53.277 104.9780  0.00  0.00     0.000 O
ATOM     37   O  A00 X   2      38.598  53.835 102.7220  0.00  0.00     0.000 OA
ATOM     38   S  A00 X   2      38.810  52.716 103.5880  0.00  0.00     0.000 S
ATOM     39   O  A00 X   2      40.157  52.265 103.7730  0.00  0.00     0.000 OA
ENDBRANCH 24 34
BRANCH 20 40
ATOM     40  O4  A00 X   3      39.740  58.067 106.1810  0.00  0.00     0.000 O
BRANCH 40 44
ATOM     41  C1  A00 X   3      42.483  56.961 108.2740  0.00  0.00     0.000 C
ATOM     42  C2  A00 X   3      41.652  58.240 108.5150  0.00  0.00     0.000 C
ATOM     43  C3  A00 X   3      41.572  59.101 107.2280  0.00  0.00     0.000 C
ATOM     44  C4  A00 X   3      41.144  58.337 105.9810  0.00  0.00     0.000 C
ATOM     45  C5  A00 X   3      42.028  57.070 105.8040  0.00  0.00     0.000 C
ATOM     46  O5  A00 X   3      42.083  56.294 107.0450  0.00  0.00     0.000 O
ATOM     47   O  A00 X   3      40.900  60.352 107.3560  0.00  0.00     0.000 O
ATOM     49  HD  A00 X   3      40.600  60.144 106.5710  0.00  0.00     0.000 HD
BRANCH 42 49
ATOM     49   O  A00 X   3      40.341  57.818 108.9500  0.00  0.00     0.000 O
ATOM     50   O  A00 X   3      38.268  58.885 109.4920  0.00  0.00     0.000 OA
ATOM     51   O  A00 X   3      40.285  59.867 110.2350  0.00  0.00     0.000 OA
ATOM     52   O  A00 X   3      39.618  57.808 111.1840  0.00  0.00     0.000 OA
ATOM     53   S  A00 X   3      39.569  58.634 110.0270  0.00  0.00     0.000 S
ENDBRANCH 42 49
BRANCH 45 54
ATOM     54   C  A00 X   3      43.414  57.417 105.2480  0.00  0.00     0.000 C
ATOM     55   O  A00 X   3      43.747  58.575 105.0950  0.00  0.00     0.000 OA
ATOM     56   O  A00 X   3      44.205  56.537 104.9470  0.00  0.00     0.000 OA
ENDBRANCH 45 54
BRANCH 41 57
ATOM     57  O4  A00 X   4      43.901  57.221 108.3670  0.00  0.00     0.000 O
BRANCH 57 61
ATOM     58  C1  A00 X   4      47.236  54.870 109.7780  0.00  0.00     0.000 C
ATOM     59  C2  A00 X   4      46.428  54.354 108.5610  0.00  0.00     0.000 C
ATOM     60  C3  A00 X   4      45.513  55.425 107.9330  0.00  0.00     0.000 C
ATOM     61  C4  A00 X   4      44.682  56.169 109.0010  0.00  0.00     0.000 C
ATOM     62  C5  A00 X   4      45.700  56.781 109.9950  0.00  0.00     0.000 C
ATOM     63  O5  A00 X   4      46.438  55.712 110.6410  0.00  0.00     0.000 O
BRANCH 59 66
ATOM     64   N  A00 X   4      45.552  53.280 109.0640  0.00  0.00     0.000 N
ATOM     66  HD  A00 X   4      45.332  53.302 109.9010  0.00  0.00     0.000 HD
ATOM     66   O  A00 X   4      47.414  51.776 108.7980  0.00  0.00     0.000 OA
ATOM     67   S  A00 X   4      45.985  51.763 108.7960  0.00  0.00     0.000 S
ATOM     68   O  A00 X   4      45.372  51.118 109.9200  0.00  0.00     0.000 OA
ATOM     69   O  A00 X   4      45.319  51.527 107.5460  0.00  0.00     0.000 OA
ENDBRANCH 59 66
BRANCH 62 70
ATOM     70   C  A00 X   4      45.059  57.667 111.0900  0.00  0.00     0.000 C
ATOM     71   O  A00 X   4      42.994  56.663 113.8890  0.00  0.00     0.000 OA
ATOM     72   O  A00 X   4      42.679  58.351 112.2780  0.00  0.00     0.000 OA
ATOM     73   O  A00 X   4      44.535  56.828 112.1330  0.00  0.00     0.000 O
ATOM     74   O  A00 X   4      42.314  56.020 111.6670  0.00  0.00     0.000 OA
ATOM     75   S  A00 X   4      43.013  56.959 112.4840  0.00  0.00     0.000 S
ENDBRANCH 62 70
ENDBRANCH 57 61
ENDBRANCH 41 57
ENDBRANCH 40 44
ENDBRANCH 20 40
ENDBRANCH 19 23
ENDBRANCH 1 19
TORSDOF 14
ENDMDL
MODEL 41
REMARK VINA RESULT:       0.0     79.669     84.103
ROOT
ATOM      1  C1  A00 X   1      53.599  53.187  48.6470  0.00  0.00     0.000 C
ATOM      2  C2  A00 X   1      54.305  54.336  47.8770  0.00  0.00     0.000 C
ATOM      3  C3  A00 X   1      55.834  54.146  47.6080  0.00  0.00     0.000 C
ATOM      4  C4  A00 X   1      56.527  53.038  48.4430  0.00  0.00     0.000 C
ATOM      5  C5  A00 X   1      55.759  52.717  49.7250  0.00  0.00     0.000 C
ATOM      6  O5  A00 X   1      54.479  52.220  49.2720  0.00  0.00     0.000 O
ATOM      7   O  A00 X   1      56.507  55.365  47.9140  0.00  0.00     0.000 O
ATOM      9  HD  A00 X   1      56.998  54.719  48.2170  0.00  0.00     0.000 HD
ATOM      9   O  A00 X   1      56.711  51.847  47.6790  0.00  0.00     0.000 O
ATOM     11  HD  A00 X   1      57.202  51.201  47.9820  0.00  0.00     0.000 HD
ENDROOT
BRANCH 2 11
ATOM     11   O  A00 X   1      53.624  54.503  46.6180  0.00  0.00     0.000 O
ATOM     12   O  A00 X   1      54.444  55.988  44.9180  0.00  0.00     0.000 OA
ATOM     13   O  A00 X   1      53.718  56.905  47.0510  0.00  0.00     0.000 OA
ATOM     14   O  A00 X   1      52.139  55.953  45.5490  0.00  0.00     0.000 OA
ATOM     15   S  A00 X   1      53.501  55.941  46.0080  0.00  0.00     0.000 S
ENDBRANCH 2 11
BRANCH 5 16
ATOM     16   C  A00 X   1      55.649  53.874  50.7230  0.00  0.00     0.000 C
ATOM     17   O  A00 X   1      54.882  53.765  51.6570  0.00  0.00     0.000 OA
ATOM     18   O  A00 X   1      56.305  54.891  50.6160  0.00  0.00     0.000 OA
ENDBRANCH 5 16
BRANCH 1 19
ATOM     19  O4  A00 X   2      52.597  53.667  49.5760  0.00  0.00     0.000 O
BRANCH 19 23
ATOM     20  C1  A00 X   2      49.842  50.500  48.7100  0.00  0.00     0.000 C
ATOM     21  C2  A00 X   2      49.619  51.856  47.9970  0.00  0.00     0.000 C
ATOM     22  C3  A00 X   2      50.892  52.726  48.0610  0.00  0.00     0.000 C
ATOM     23  C4  A00 X   2      51.367  52.888  49.5220  0.00  0.00     0.000 C
ATOM     24  C5  A00 X   2      51.535  51.467  50.1270  0.00  0.00     0.000 C
ATOM     25  O5  A00 X   2      50.256  50.783  50.0730  0.00  0.00     0.000 O
ATOM     26   O  A00 X   2      50.658  53.941  47.3280  0.00  0.00     0.000 O
ATOM     28  HD  A00 X   2      49.911  54.102  47.7360  0.00  0.00     0.000 HD
BRANCH 21 30
ATOM     28   N  A00 X   2      48.175  51.618  48.0760  0.00  0.00     0.000 N
ATOM     30  HD  A00 X   2      48.293  52.251  47.4960  0.00  0.00     0.000 HD
ATOM     30   O  A00 X   2      47.172  52.608  46.2120  0.00  0.00     0.000 OA
ATOM     31   S  A00 X   2      47.191  52.769  47.6230  0.00  0.00     0.000 S
ATOM     32   O  A00 X   2      45.964  52.446  48.2840  0.00  0.00     0.000 OA
ATOM     33   O  A00 X   2      47.719  54.001  48.1290  0.00  0.00     0.000 OA
ENDBRANCH 21 30
BRANCH 24 34
ATOM     34   C  A00 X   2      52.221  51.342  51.5070  0.00  0.00     0.000 C
ATOM     35   O  A00 X   2      51.023  52.969  54.5370  0.00  0.00     0.000 OA
ATOM     36   O  A00 X   2      51.749  52.354  52.4190  0.00  0.00     0.000 O
ATOM     37   O  A00 X   2      49.708  51.523  53.2050  0.00  0.00     0.000 OA
ATOM     38   S  A00 X   2      51.018  51.812  53.7020  0.00  0.00     0.000 S
ATOM     39   O  A00 X   2      51.804  50.715  54.1820  0.00  0.00     0.000 OA
ENDBRANCH 24 34
BRANCH 20 40
ATOM     40  O4  A00 X   3      50.917  49.863  48.0050  0.00  0.00     0.000 O
BRANCH 40 44
ATOM     41  C1  A00 X   3      54.014  47.994  48.1930  0.00  0.00     0.000 C
ATOM     42  C2  A00 X   3      53.350  48.466  46.8820  0.00  0.00     0.000 C
ATOM     43  C3  A00 X   3      51.856  48.054  46.8370  0.00  0.00     0.000 C
ATOM     44  C4  A00 X   3      51.058  48.428  48.0790  0.00  0.00     0.000 C
ATOM     45  C5  A00 X   3      51.786  47.915  49.3540  0.00  0.00     0.000 C
ATOM     46  O5  A00 X   3      53.194  48.318  49.3490  0.00  0.00     0.000 O
ATOM     47   O  A00 X   3      51.161  48.363  45.6300  0.00  0.00     0.000 O
ATOM     49  HD  A00 X   3      50.520  48.551  46.1810  0.00  0.00     0.000 HD
BRANCH 42 49
ATOM     49   O  A00 X   3      53.504  49.901  46.8230  0.00  0.00     0.000 O
ATOM     50   O  A00 X   3      52.839  51.655  45.3350  0.00  0.00     0.000 OA
ATOM     51   O  A00 X   3      53.635  49.625  44.4220  0.00  0.00     0.000 OA
ATOM     52   O  A00 X   3      55.157  51.013  45.5800  0.00  0.00     0.000 OA
ATOM     53   S  A00 X   3      53.799  50.605  45.4660  0.00  0.00     0.000 S
ENDBRANCH 42 49
BRANCH 45 54
ATOM     54   C  A00 X   3      51.590  46.407  49.5510  0.00  0.00     0.000 C
ATOM     55   O  A00 X   3      51.103  45.726  48.6720  0.00  0.00     0.000 OA
ATOM     56   O  A00 X   3      51.919  45.866  50.5950  0.00  0.00     0.000 OA
ENDBRANCH 45 54
BRANCH 41 57
ATOM     57  O4  A00 X   4      54.406  46.604  48.1230  0.00  0.00     0.000 O
BRANCH 57 61
ATOM     58  C1  A00 X   4      57.669  44.377  49.8640  0.00  0.00     0.000 C
ATOM     59  C2  A00 X   4      56.642  45.048  50.8100  0.00  0.00     0.000 C
ATOM     60  C3  A00 X   4      55.350  45.496  50.0950  0.00  0.00     0.000 C
ATOM     61  C4  A00 X   4      55.653  46.279  48.8000  0.00  0.00     0.000 C
ATOM     62  C5  A00 X   4      56.514  45.342  47.9160  0.00  0.00     0.000 C
ATOM     63  O5  A00 X   4      57.765  45.063  48.5950  0.00  0.00     0.000 O
BRANCH 59 66
ATOM     64   N  A00 X   4      57.246  46.271  51.3680  0.00  0.00     0.000 N
ATOM     66  HD  A00 X   4      57.859  46.664  50.9000  0.00  0.00     0.000 HD
ATOM     66   O  A00 X   4      58.315  44.871  53.0110  0.00  0.00     0.000 OA
ATOM     67   S  A00 X   4      57.842  46.211  52.8510  0.00  0.00     0.000 S
ATOM     68   O  A00 X   4      58.860  47.217  52.7620  0.00  0.00     0.000 OA
ATOM     69   O  A00 X   4      56.687  46.609  53.6050  0.00  0.00     0.000 OA
ENDBRANCH 59 66
BRANCH 62 70
ATOM     70   C  A00 X   4      56.832  45.912  46.5130  0.00  0.00     0.000 C
ATOM     71   O  A00 X   4      58.954  48.712  45.6390  0.00  0.00     0.000 OA
ATOM     72   O  A00 X   4      56.757  48.186  44.9740  0.00  0.00     0.000 OA
ATOM     73   O  A00 X   4      57.907  46.860  46.6190  0.00  0.00     0.000 O
ATOM     74   O  A00 X   4      57.159  49.073  47.2080  0.00  0.00     0.000 OA
ATOM     75   S  A00 X   4      57.653  48.318  46.1010  0.00  0.00     0.000 S
ENDBRANCH 62 70
ENDBRANCH 57 61
ENDBRANCH 41 57
ENDBRANCH 40 44
ENDBRANCH 20 40
ENDBRANCH 19 23
ENDBRANCH 1 19
TORSDOF 14
ENDMDL
MODEL 42
REMARK VINA RESULT:       0.0     79.855     84.922
ROOT
ATOM      1  C1  A00 X   1      13.138  68.305  39.1180  0.00  0.00     0.000 C
ATOM      2  C2  A00 X   1      12.304  69.580  38.8220  0.00  0.00     0.000 C
ATOM      3  C3  A00 X   1      12.155  70.594  40.0040  0.00  0.00     0.000 C
ATOM      4  C4  A00 X   1      12.531  70.047  41.4050  0.00  0.00     0.000 C
ATOM      5  C5  A00 X   1      12.452  68.522  41.4700  0.00  0.00     0.000 C
ATOM      6  O5  A00 X   1      13.435  68.063  40.5160  0.00  0.00     0.000 O
ATOM      7   O  A00 X   1      10.792  71.007  40.0830  0.00  0.00     0.000 O
ATOM      9  HD  A00 X   1      11.069  70.883  40.8940  0.00  0.00     0.000 HD
ATOM      9   O  A00 X   1      13.832  70.480  41.8020  0.00  0.00     0.000 O
ATOM     11  HD  A00 X   1      14.109  70.357  42.6130  0.00  0.00     0.000 HD
ENDROOT
BRANCH 2 11
ATOM     11   O  A00 X   1      12.912  70.251  37.7010  0.00  0.00     0.000 O
ATOM     12   O  A00 X   1      12.182  72.419  36.9710  0.00  0.00     0.000 OA
ATOM     13   O  A00 X   1      10.648  70.537  36.8290  0.00  0.00     0.000 OA
ATOM     14   O  A00 X   1      12.565  70.637  35.4250  0.00  0.00     0.000 OA
ATOM     15   S  A00 X   1      11.994  71.019  36.6880  0.00  0.00     0.000 S
ENDBRANCH 2 11
BRANCH 5 16
ATOM     16   C  A00 X   1      11.055  67.935  41.2420  0.00  0.00     0.000 C
ATOM     17   O  A00 X   1      10.949  66.739  41.0670  0.00  0.00     0.000 OA
ATOM     18   O  A00 X   1      10.053  68.622  41.2360  0.00  0.00     0.000 OA
ENDBRANCH 5 16
BRANCH 1 19
ATOM     19  O4  A00 X   2      12.600  67.121  38.4800  0.00  0.00     0.000 O
BRANCH 19 23
ATOM     20  C1  A00 X   2      16.453  65.540  37.4730  0.00  0.00     0.000 C
ATOM     21  C2  A00 X   2      15.687  66.310  36.3710  0.00  0.00     0.000 C
ATOM     22  C3  A00 X   2      14.560  67.168  36.9830  0.00  0.00     0.000 C
ATOM     23  C4  A00 X   2      13.633  66.301  37.8630  0.00  0.00     0.000 C
ATOM     24  C5  A00 X   2      14.519  65.570  38.9090  0.00  0.00     0.000 C
ATOM     25  O5  A00 X   2      15.485  64.745  38.2080  0.00  0.00     0.000 O
ATOM     26   O  A00 X   2      13.925  67.915  35.9300  0.00  0.00     0.000 O
ATOM     28  HD  A00 X   2      13.817  67.215  35.4310  0.00  0.00     0.000 HD
BRANCH 21 30
ATOM     28   N  A00 X   2      16.276  65.398  35.3860  0.00  0.00     0.000 N
ATOM     30  HD  A00 X   2      15.957  66.072  34.9440  0.00  0.00     0.000 HD
ATOM     30   O  A00 X   2      16.544  66.567  33.3810  0.00  0.00     0.000 OA
ATOM     31   S  A00 X   2      15.783  65.480  33.8860  0.00  0.00     0.000 S
ATOM     32   O  A00 X   2      16.126  64.200  33.3470  0.00  0.00     0.000 OA
ATOM     33   O  A00 X   2      14.360  65.641  33.9170  0.00  0.00     0.000 OA
ENDBRANCH 21 30
BRANCH 24 34
ATOM     34   C  A00 X   2      13.811  64.815  40.0590  0.00  0.00     0.000 C
ATOM     35   O  A00 X   2      11.463  62.077  39.5610  0.00  0.00     0.000 OA
ATOM     36   O  A00 X   2      12.696  64.044  39.5690  0.00  0.00     0.000 O
ATOM     37   O  A00 X   2      13.668  62.099  38.7060  0.00  0.00     0.000 OA
ATOM     38   S  A00 X   2      12.810  62.490  39.7820  0.00  0.00     0.000 S
ATOM     39   O  A00 X   2      13.292  62.299  41.1170  0.00  0.00     0.000 OA
ENDBRANCH 24 34
BRANCH 20 40
ATOM     40  O4  A00 X   3      17.005  66.544  38.3370  0.00  0.00     0.000 O
BRANCH 40 44
ATOM     41  C1  A00 X   3      17.617  67.659  41.7290  0.00  0.00     0.000 C
ATOM     42  C2  A00 X   3      18.000  68.450  40.4600  0.00  0.00     0.000 C
ATOM     43  C3  A00 X   3      18.794  67.561  39.4690  0.00  0.00     0.000 C
ATOM     44  C4  A00 X   3      18.144  66.218  39.1620  0.00  0.00     0.000 C
ATOM     45  C5  A00 X   3      17.794  65.481  40.4850  0.00  0.00     0.000 C
ATOM     46  O5  A00 X   3      17.054  66.360  41.3930  0.00  0.00     0.000 O
ATOM     47   O  A00 X   3      19.277  68.213  38.2960  0.00  0.00     0.000 O
ATOM     49  HD  A00 X   3      19.051  67.464  37.9230  0.00  0.00     0.000 HD
BRANCH 42 49
ATOM     49   O  A00 X   3      16.770  68.927  39.8710  0.00  0.00     0.000 O
ATOM     50   O  A00 X   3      16.146  70.136  37.9020  0.00  0.00     0.000 OA
ATOM     51   O  A00 X   3      18.063  70.823  39.1030  0.00  0.00     0.000 OA
ATOM     52   O  A00 X   3      15.942  71.112  40.1050  0.00  0.00     0.000 OA
ATOM     53   S  A00 X   3      16.712  70.330  39.2000  0.00  0.00     0.000 S
ENDBRANCH 42 49
BRANCH 45 54
ATOM     54   C  A00 X   3      19.035  64.854  41.1310  0.00  0.00     0.000 C
ATOM     55   O  A00 X   3      20.142  65.069  40.6820  0.00  0.00     0.000 OA
ATOM     56   O  A00 X   3      18.932  64.126  42.1060  0.00  0.00     0.000 OA
ENDBRANCH 45 54
BRANCH 41 57
ATOM     57  O4  A00 X   4      18.712  67.598  42.6700  0.00  0.00     0.000 O
BRANCH 57 61
ATOM     58  C1  A00 X   4      18.878  67.529  46.9840  0.00  0.00     0.000 C
ATOM     59  C2  A00 X   4      18.157  66.370  46.2510  0.00  0.00     0.000 C
ATOM     60  C3  A00 X   4      18.468  66.309  44.7420  0.00  0.00     0.000 C
ATOM     61  C4  A00 X   4      18.328  67.693  44.0720  0.00  0.00     0.000 C
ATOM     62  C5  A00 X   4      19.289  68.643  44.8280  0.00  0.00     0.000 C
ATOM     63  O5  A00 X   4      18.864  68.751  46.2100  0.00  0.00     0.000 O
BRANCH 59 66
ATOM     64   N  A00 X   4      16.691  66.501  46.3280  0.00  0.00     0.000 N
ATOM     66  HD  A00 X   4      16.364  67.300  46.3920  0.00  0.00     0.000 HD
ATOM     66   O  A00 X   4      16.822  65.546  48.5350  0.00  0.00     0.000 OA
ATOM     67   S  A00 X   4      15.912  65.652  47.4380  0.00  0.00     0.000 S
ATOM     68   O  A00 X   4      14.775  66.496  47.6580  0.00  0.00     0.000 OA
ATOM     69   O  A00 X   4      15.625  64.461  46.6890  0.00  0.00     0.000 OA
ENDBRANCH 59 66
BRANCH 62 70
ATOM     70   C  A00 X   4      19.373  70.067  44.2270  0.00  0.00     0.000 C
ATOM     71   O  A00 X   4      16.837  72.649  44.1680  0.00  0.00     0.000 OA
ATOM     72   O  A00 X   4      18.197  71.796  42.4460  0.00  0.00     0.000 OA
ATOM     73   O  A00 X   4      18.230  70.828  44.6480  0.00  0.00     0.000 O
ATOM     74   O  A00 X   4      16.302  70.488  43.2430  0.00  0.00     0.000 OA
ATOM     75   S  A00 X   4      17.314  71.451  43.5380  0.00  0.00     0.000 S
ENDBRANCH 62 70
ENDBRANCH 57 61
ENDBRANCH 41 57
ENDBRANCH 40 44
ENDBRANCH 20 40
ENDBRANCH 19 23
ENDBRANCH 1 19
TORSDOF 14
ENDMDL
MODEL 43
REMARK VINA RESULT:       0.0    130.174    134.908
ROOT
ATOM      1  C1  A00 X   1     108.491  57.368  34.7030  0.00  0.00     0.000 C
ATOM      2  C2  A00 X   1     108.276  58.280  35.9400  0.00  0.00     0.000 C
ATOM      3  C3  A00 X   1     109.079  57.895  37.2260  0.00  0.00     0.000 C
ATOM      4  C4  A00 X   1     109.691  56.471  37.2300  0.00  0.00     0.000 C
ATOM      5  C5  A00 X   1     108.971  55.530  36.2650  0.00  0.00     0.000 C
ATOM      6  O5  A00 X   1     109.175  56.116  34.9600  0.00  0.00     0.000 O
ATOM      7   O  A00 X   1     108.203  57.962  38.3490  0.00  0.00     0.000 O
ATOM      9  HD  A00 X   1     108.691  57.254  38.4480  0.00  0.00     0.000 HD
ATOM      9   O  A00 X   1     111.085  56.501  36.9240  0.00  0.00     0.000 O
ATOM     11  HD  A00 X   1     111.573  55.793  37.0230  0.00  0.00     0.000 HD
ENDROOT
BRANCH 2 11
ATOM     11   O  A00 X   1     108.620  59.626  35.5580  0.00  0.00     0.000 O
ATOM     12   O  A00 X   1     108.330  61.484  37.0510  0.00  0.00     0.000 OA
ATOM     13   O  A00 X   1     106.375  60.253  36.2890  0.00  0.00     0.000 OA
ATOM     14   O  A00 X   1     107.627  61.587  34.7690  0.00  0.00     0.000 OA
ATOM     15   S  A00 X   1     107.666  60.799  35.9710  0.00  0.00     0.000 S
ENDBRANCH 2 11
BRANCH 5 16
ATOM     16   C  A00 X   1     107.498  55.266  36.5950  0.00  0.00     0.000 C
ATOM     17   O  A00 X   1     106.810  54.700  35.7700  0.00  0.00     0.000 OA
ATOM     18   O  A00 X   1     106.998  55.597  37.6520  0.00  0.00     0.000 OA
ENDBRANCH 5 16
BRANCH 1 19
ATOM     19  O4  A00 X   2     107.277  57.160  33.9410  0.00  0.00     0.000 O
BRANCH 19 23
ATOM     20  C1  A00 X   2     109.279  57.205  30.1530  0.00  0.00     0.000 C
ATOM     21  C2  A00 X   2     108.603  58.517  30.6190  0.00  0.00     0.000 C
ATOM     22  C3  A00 X   2     108.317  58.479  32.1350  0.00  0.00     0.000 C
ATOM     23  C4  A00 X   2     107.502  57.219  32.5040  0.00  0.00     0.000 C
ATOM     24  C5  A00 X   2     108.273  55.982  31.9680  0.00  0.00     0.000 C
ATOM     25  O5  A00 X   2     108.411  56.104  30.5290  0.00  0.00     0.000 O
ATOM     26   O  A00 X   2     107.753  59.742  32.5300  0.00  0.00     0.000 O
ATOM     28  HD  A00 X   2     107.158  59.730  31.9010  0.00  0.00     0.000 HD
BRANCH 21 30
ATOM     28   N  A00 X   2     108.277  58.803  29.2190  0.00  0.00     0.000 N
ATOM     30  HD  A00 X   2     108.173  59.543  29.6560  0.00  0.00     0.000 HD
ATOM     30   O  A00 X   2     108.290  61.120  28.9270  0.00  0.00     0.000 OA
ATOM     31   S  A00 X   2     107.360  60.048  28.8920  0.00  0.00     0.000 S
ATOM     32   O  A00 X   2     106.831  59.749  27.5970  0.00  0.00     0.000 OA
ATOM     33   O  A00 X   2     106.309  60.068  29.8650  0.00  0.00     0.000 OA
ENDBRANCH 21 30
BRANCH 24 34
ATOM     34   C  A00 X   2     107.787  54.580  32.4050  0.00  0.00     0.000 C
ATOM     35   O  A00 X   2     106.491  52.064  30.1130  0.00  0.00     0.000 OA
ATOM     36   O  A00 X   2     107.013  53.948  31.3660  0.00  0.00     0.000 O
ATOM     37   O  A00 X   2     108.612  53.086  29.8920  0.00  0.00     0.000 OA
ATOM     38   S  A00 X   2     107.615  52.609  30.8010  0.00  0.00     0.000 S
ATOM     39   O  A00 X   2     108.058  51.854  31.9340  0.00  0.00     0.000 OA
ENDBRANCH 24 34
BRANCH 20 40
ATOM     40  O4  A00 X   3     110.508  57.120  30.8900  0.00  0.00     0.000 O
BRANCH 40 44
ATOM     41  C1  A00 X   3     112.798  55.063  32.8000  0.00  0.00     0.000 C
ATOM     42  C2  A00 X   3     112.985  56.572  32.5310  0.00  0.00     0.000 C
ATOM     43  C3  A00 X   3     112.842  56.889  31.0200  0.00  0.00     0.000 C
ATOM     44  C4  A00 X   3     111.589  56.317  30.3690  0.00  0.00     0.000 C
ATOM     45  C5  A00 X   3     111.474  54.798  30.6790  0.00  0.00     0.000 C
ATOM     46  O5  A00 X   3     111.625  54.545  32.1130  0.00  0.00     0.000 O
ATOM     47   O  A00 X   3     113.082  58.243  30.6430  0.00  0.00     0.000 O
ATOM     49  HD  A00 X   3     112.418  58.093  30.1080  0.00  0.00     0.000 HD
BRANCH 42 49
ATOM     49   O  A00 X   3     111.989  57.267  33.3130  0.00  0.00     0.000 O
ATOM     50   O  A00 X   3     111.303  59.540  33.6180  0.00  0.00     0.000 OA
ATOM     51   O  A00 X   3     113.613  59.053  33.4920  0.00  0.00     0.000 OA
ATOM     52   O  A00 X   3     112.404  58.303  35.3790  0.00  0.00     0.000 OA
ATOM     53   S  A00 X   3     112.332  58.623  33.9960  0.00  0.00     0.000 S
ENDBRANCH 42 49
BRANCH 45 54
ATOM     54   C  A00 X   3     112.431  53.968  29.8160  0.00  0.00     0.000 C
ATOM     55   O  A00 X   3     112.346  52.758  29.7860  0.00  0.00     0.000 OA
ATOM     56   O  A00 X   3     113.297  54.509  29.1450  0.00  0.00     0.000 OA
ENDBRANCH 45 54
BRANCH 41 57
ATOM     57  O4  A00 X   4     114.008  54.319  32.5350  0.00  0.00     0.000 O
BRANCH 57 61
ATOM     58  C1  A00 X   4     115.750  50.804  34.3380  0.00  0.00     0.000 C
ATOM     59  C2  A00 X   4     114.358  50.682  33.6690  0.00  0.00     0.000 C
ATOM     60  C3  A00 X   4     114.005  51.878  32.7610  0.00  0.00     0.000 C
ATOM     61  C4  A00 X   4     114.278  53.227  33.4600  0.00  0.00     0.000 C
ATOM     62  C5  A00 X   4     115.775  53.218  33.8570  0.00  0.00     0.000 C
ATOM     63  O5  A00 X   4     116.010  52.146  34.8060  0.00  0.00     0.000 O
BRANCH 59 66
ATOM     64   N  A00 X   4     113.294  50.640  34.6880  0.00  0.00     0.000 N
ATOM     66  HD  A00 X   4     113.446  51.039  35.4410  0.00  0.00     0.000 HD
ATOM     66   O  A00 X   4     113.776  48.295  34.9510  0.00  0.00     0.000 OA
ATOM     67   S  A00 X   4     112.692  49.215  35.0960  0.00  0.00     0.000 S
ATOM     68   O  A00 X   4     112.286  49.483  36.4450  0.00  0.00     0.000 OA
ATOM     69   O  A00 X   4     111.605  49.123  34.1630  0.00  0.00     0.000 OA
ENDBRANCH 59 66
BRANCH 62 70
ATOM     70   C  A00 X   4     116.272  54.544  34.4790  0.00  0.00     0.000 C
ATOM     71   O  A00 X   4     115.447  55.981  37.6990  0.00  0.00     0.000 OA
ATOM     72   O  A00 X   4     115.452  56.938  35.5470  0.00  0.00     0.000 OA
ATOM     73   O  A00 X   4     115.887  54.593  35.8630  0.00  0.00     0.000 O
ATOM     74   O  A00 X   4     113.650  55.428  36.1890  0.00  0.00     0.000 OA
ATOM     75   S  A00 X   4     115.018  55.809  36.3390  0.00  0.00     0.000 S
ENDBRANCH 62 70
ENDBRANCH 57 61
ENDBRANCH 41 57
ENDBRANCH 40 44
ENDBRANCH 20 40
ENDBRANCH 19 23
ENDBRANCH 1 19
TORSDOF 14
ENDMDL
MODEL 44
REMARK VINA RESULT:       0.0    106.919    111.074
ROOT
ATOM      1  C1  A00 X   1      54.114  61.786  18.2810  0.00  0.00     0.000 C
ATOM      2  C2  A00 X   1      54.355  62.395  16.8750  0.00  0.00     0.000 C
ATOM      3  C3  A00 X   1      55.835  62.395  16.3690  0.00  0.00     0.000 C
ATOM      4  C4  A00 X   1      56.912  62.134  17.4540  0.00  0.00     0.000 C
ATOM      5  C5  A00 X   1      56.406  62.463  18.8590  0.00  0.00     0.000 C
ATOM      6  O5  A00 X   1      55.304  61.553  19.0750  0.00  0.00     0.000 O
ATOM      7   O  A00 X   1      56.127  63.672  15.8070  0.00  0.00     0.000 O
ATOM      9  HD  A00 X   1      56.820  63.432  16.2690  0.00  0.00     0.000 HD
ATOM      9   O  A00 X   1      57.379  60.786  17.4130  0.00  0.00     0.000 O
ATOM     11  HD  A00 X   1      58.071  60.546  17.8740  0.00  0.00     0.000 HD
ENDROOT
BRANCH 2 11
ATOM     11   O  A00 X   1      53.538  61.668  15.9360  0.00  0.00     0.000 O
ATOM     12   O  A00 X   1      53.276  62.384  13.6590  0.00  0.00     0.000 OA
ATOM     13   O  A00 X   1      52.447  63.800  15.4550  0.00  0.00     0.000 OA
ATOM     14   O  A00 X   1      51.406  61.714  14.9870  0.00  0.00     0.000 OA
ATOM     15   S  A00 X   1      52.628  62.470  14.9430  0.00  0.00     0.000 S
ENDBRANCH 2 11
BRANCH 5 16
ATOM     16   C  A00 X   1      56.042  63.933  19.0890  0.00  0.00     0.000 C
ATOM     17   O  A00 X   1      55.473  64.237  20.1180  0.00  0.00     0.000 OA
ATOM     18   O  A00 X   1      56.308  64.804  18.2850  0.00  0.00     0.000 OA
ENDBRANCH 5 16
BRANCH 1 19
ATOM     19  O4  A00 X   2      53.106  62.500  19.0380  0.00  0.00     0.000 O
BRANCH 19 23
ATOM     20  C1  A00 X   2      51.531  58.951  20.8500  0.00  0.00     0.000 C
ATOM     21  C2  A00 X   2      50.758  59.542  19.6460  0.00  0.00     0.000 C
ATOM     22  C3  A00 X   2      51.646  60.520  18.8500  0.00  0.00     0.000 C
ATOM     23  C4  A00 X   2      52.228  61.608  19.7820  0.00  0.00     0.000 C
ATOM     24  C5  A00 X   2      52.957  60.890  20.9500  0.00  0.00     0.000 C
ATOM     25  O5  A00 X   2      52.000  60.061  21.6600  0.00  0.00     0.000 O
ATOM     26   O  A00 X   2      50.909  60.988  17.7080  0.00  0.00     0.000 O
ATOM     28  HD  A00 X   2      50.215  61.201  18.1800  0.00  0.00     0.000 HD
BRANCH 21 30
ATOM     28   N  A00 X   2      49.511  59.104  20.2810  0.00  0.00     0.000 N
ATOM     30  HD  A00 X   2      49.323  59.281  19.4540  0.00  0.00     0.000 HD
ATOM     30   O  A00 X   2      47.985  58.571  18.5930  0.00  0.00     0.000 OA
ATOM     31   S  A00 X   2      48.137  59.533  19.6270  0.00  0.00     0.000 S
ATOM     32   O  A00 X   2      47.200  59.417  20.7020  0.00  0.00     0.000 OA
ATOM     33   O  A00 X   2      48.267  60.902  19.2260  0.00  0.00     0.000 OA
ENDBRANCH 21 30
BRANCH 24 34
ATOM     34   C  A00 X   2      53.824  61.749  21.9010  0.00  0.00     0.000 C
ATOM     35   O  A00 X   2      52.564  64.584  23.8080  0.00  0.00     0.000 OA
ATOM     36   O  A00 X   2      53.165  62.987  22.2340  0.00  0.00     0.000 O
ATOM     37   O  A00 X   2      51.648  62.406  23.9170  0.00  0.00     0.000 OA
ATOM     38   S  A00 X   2      52.838  63.185  23.7590  0.00  0.00     0.000 S
ATOM     39   O  A00 X   2      54.004  62.770  24.4800  0.00  0.00     0.000 OA
ENDBRANCH 24 34
BRANCH 20 40
ATOM     40  O4  A00 X   3      52.655  58.259  20.2870  0.00  0.00     0.000 O
BRANCH 40 44
ATOM     41  C1  A00 X   3      56.203  57.551  20.4730  0.00  0.00     0.000 C
ATOM     42  C2  A00 X   3      55.255  57.017  19.3780  0.00  0.00     0.000 C
ATOM     43  C3  A00 X   3      54.001  56.354  20.0040  0.00  0.00     0.000 C
ATOM     44  C4  A00 X   3      53.288  57.206  21.0470  0.00  0.00     0.000 C
ATOM     45  C5  A00 X   3      54.305  57.702  22.1140  0.00  0.00     0.000 C
ATOM     46  O5  A00 X   3      55.476  58.310  21.4780  0.00  0.00     0.000 O
ATOM     47   O  A00 X   3      53.094  55.746  19.0870  0.00  0.00     0.000 O
ATOM     49  HD  A00 X   3      52.503  56.081  19.6230  0.00  0.00     0.000 HD
BRANCH 42 49
ATOM     49   O  A00 X   3      54.897  58.139  18.5420  0.00  0.00     0.000 O
ATOM     50   O  A00 X   3      53.512  58.499  16.6240  0.00  0.00     0.000 OA
ATOM     51   O  A00 X   3      54.855  56.555  16.7130  0.00  0.00     0.000 OA
ATOM     52   O  A00 X   3      55.921  58.653  16.4920  0.00  0.00     0.000 OA
ATOM     53   S  A00 X   3      54.784  57.967  17.0000  0.00  0.00     0.000 S
ENDBRANCH 42 49
BRANCH 45 54
ATOM     54   C  A00 X   3      54.666  56.594  23.1100  0.00  0.00     0.000 C
ATOM     55   O  A00 X   3      55.376  56.829  24.0670  0.00  0.00     0.000 OA
ATOM     56   O  A00 X   3      54.249  55.456  22.9590  0.00  0.00     0.000 OA
ENDBRANCH 45 54
BRANCH 41 57
ATOM     57  O4  A00 X   4      57.036  56.503  21.0170  0.00  0.00     0.000 O
BRANCH 57 61
ATOM     58  C1  A00 X   4      61.074  56.455  22.5440  0.00  0.00     0.000 C
ATOM     59  C2  A00 X   4      60.025  57.351  23.2500  0.00  0.00     0.000 C
ATOM     60  C3  A00 X   4      58.570  57.019  22.8580  0.00  0.00     0.000 C
ATOM     61  C4  A00 X   4      58.402  56.898  21.3280  0.00  0.00     0.000 C
ATOM     62  C5  A00 X   4      59.395  55.803  20.8660  0.00  0.00     0.000 C
ATOM     63  O5  A00 X   4      60.750  56.235  21.1520  0.00  0.00     0.000 O
BRANCH 59 66
ATOM     64   N  A00 X   4      60.222  58.761  22.8700  0.00  0.00     0.000 N
ATOM     66  HD  A00 X   4      60.575  58.922  22.0960  0.00  0.00     0.000 HD
ATOM     66   O  A00 X   4      61.953  58.865  24.5410  0.00  0.00     0.000 OA
ATOM     67   S  A00 X   4      61.011  59.715  23.8840  0.00  0.00     0.000 S
ATOM     68   O  A00 X   4      61.571  60.662  22.9640  0.00  0.00     0.000 OA
ATOM     69   O  A00 X   4      59.914  60.224  24.6580  0.00  0.00     0.000 OA
ENDBRANCH 59 66
BRANCH 62 70
ATOM     70   C  A00 X   4      59.298  55.455  19.3610  0.00  0.00     0.000 C
ATOM     71   O  A00 X   4      60.240  57.475  16.5080  0.00  0.00     0.000 OA
ATOM     72   O  A00 X   4      58.260  56.281  16.9570  0.00  0.00     0.000 OA
ATOM     73   O  A00 X   4      60.010  56.443  18.5990  0.00  0.00     0.000 O
ATOM     74   O  A00 X   4      58.681  58.390  18.1030  0.00  0.00     0.000 OA
ATOM     75   S  A00 X   4      59.222  57.221  17.4890  0.00  0.00     0.000 S
ENDBRANCH 62 70
ENDBRANCH 57 61
ENDBRANCH 41 57
ENDBRANCH 40 44
ENDBRANCH 20 40
ENDBRANCH 19 23
ENDBRANCH 1 19
TORSDOF 14
ENDMDL
MODEL 45
REMARK VINA RESULT:       0.0    117.246    121.738
ROOT
ATOM      1  C1  A00 X   1      67.751  86.821  28.7460  0.00  0.00     0.000 C
ATOM      2  C2  A00 X   1      66.522  87.004  27.8160  0.00  0.00     0.000 C
ATOM      3  C3  A00 X   1      65.357  87.883  28.3810  0.00  0.00     0.000 C
ATOM      4  C4  A00 X   1      65.403  88.152  29.9080  0.00  0.00     0.000 C
ATOM      5  C5  A00 X   1      66.225  87.102  30.6540  0.00  0.00     0.000 C
ATOM      6  O5  A00 X   1      67.562  87.236  30.1220  0.00  0.00     0.000 O
ATOM      7   O  A00 X   1      64.120  87.223  28.1230  0.00  0.00     0.000 O
ATOM      9  HD  A00 X   1      64.074  87.548  28.9250  0.00  0.00     0.000 HD
ATOM      9   O  A00 X   1      65.911  89.455  30.1930  0.00  0.00     0.000 O
ATOM     11  HD  A00 X   1      65.865  89.780  30.9940  0.00  0.00     0.000 HD
ENDROOT
BRANCH 2 11
ATOM     11   O  A00 X   1      66.989  87.582  26.5810  0.00  0.00     0.000 O
ATOM     12   O  A00 X   1      65.472  88.329  24.8760  0.00  0.00     0.000 OA
ATOM     13   O  A00 X   1      65.548  85.967  25.4490  0.00  0.00     0.000 OA
ATOM     14   O  A00 X   1      67.390  87.001  24.3560  0.00  0.00     0.000 OA
ATOM     15   S  A00 X   1      66.274  87.189  25.2430  0.00  0.00     0.000 S
ENDBRANCH 2 11
BRANCH 5 16
ATOM     16   C  A00 X   1      65.676  85.674  30.5780  0.00  0.00     0.000 C
ATOM     17   O  A00 X   1      66.377  84.760  30.9610  0.00  0.00     0.000 OA
ATOM     18   O  A00 X   1      64.564  85.425  30.1570  0.00  0.00     0.000 OA
ENDBRANCH 5 16
BRANCH 1 19
ATOM     19  O4  A00 X   2      68.320  85.491  28.6680  0.00  0.00     0.000 O
BRANCH 19 23
ATOM     20  C1  A00 X   2      72.369  86.880  28.8820  0.00  0.00     0.000 C
ATOM     21  C2  A00 X   2      71.795  86.564  27.4800  0.00  0.00     0.000 C
ATOM     22  C3  A00 X   2      70.254  86.503  27.5180  0.00  0.00     0.000 C
ATOM     23  C4  A00 X   2      69.775  85.509  28.6000  0.00  0.00     0.000 C
ATOM     24  C5  A00 X   2      70.431  85.921  29.9460  0.00  0.00     0.000 C
ATOM     25  O5  A00 X   2      71.874  85.868  29.7990  0.00  0.00     0.000 O
ATOM     26   O  A00 X   2      69.768  86.276  26.1840  0.00  0.00     0.000 O
ATOM     28  HD  A00 X   2      70.299  85.605  26.0500  0.00  0.00     0.000 HD
BRANCH 21 30
ATOM     28   N  A00 X   2      73.127  86.100  27.0800  0.00  0.00     0.000 N
ATOM     30  HD  A00 X   2      72.674  86.217  26.3520  0.00  0.00     0.000 HD
ATOM     30   O  A00 X   2      73.401  86.548  24.8030  0.00  0.00     0.000 OA
ATOM     31   S  A00 X   2      73.301  85.422  25.6630  0.00  0.00     0.000 S
ATOM     32   O  A00 X   2      74.502  84.657  25.7980  0.00  0.00     0.000 OA
ATOM     33   O  A00 X   2      72.178  84.554  25.4680  0.00  0.00     0.000 OA
ENDBRANCH 21 30
BRANCH 24 34
ATOM     34   C  A00 X   2      69.936  85.227  31.2370  0.00  0.00     0.000 C
ATOM     35   O  A00 X   2      70.020  81.627  31.7780  0.00  0.00     0.000 OA
ATOM     36   O  A00 X   2      69.760  83.811  31.0340  0.00  0.00     0.000 O
ATOM     37   O  A00 X   2      71.917  82.924  31.2190  0.00  0.00     0.000 OA
ATOM     38   S  A00 X   2      70.672  82.887  31.9230  0.00  0.00     0.000 S
ATOM     39   O  A00 X   2      70.640  83.439  33.2440  0.00  0.00     0.000 OA
ENDBRANCH 24 34
BRANCH 20 40
ATOM     40  O4  A00 X   3      71.829  88.159  29.2430  0.00  0.00     0.000 O
BRANCH 40 44
ATOM     41  C1  A00 X   3      70.299  90.228  31.7920  0.00  0.00     0.000 C
ATOM     42  C2  A00 X   3      70.586  90.683  30.3450  0.00  0.00     0.000 C
ATOM     43  C3  A00 X   3      72.056  90.387  29.9520  0.00  0.00     0.000 C
ATOM     44  C4  A00 X   3      72.512  88.961  30.2310  0.00  0.00     0.000 C
ATOM     45  C5  A00 X   3      72.194  88.579  31.7040  0.00  0.00     0.000 C
ATOM     46  O5  A00 X   3      70.800  88.885  32.0340  0.00  0.00     0.000 O
ATOM     47   O  A00 X   3      72.460  90.845  28.6630  0.00  0.00     0.000 O
ATOM     49  HD  A00 X   3      72.888  90.092  28.6540  0.00  0.00     0.000 HD
BRANCH 42 49
ATOM     49   O  A00 X   3      69.659  89.981  29.4890  0.00  0.00     0.000 O
ATOM     50   O  A00 X   3      69.231  89.849  27.1370  0.00  0.00     0.000 OA
ATOM     51   O  A00 X   3      69.700  91.959  28.0960  0.00  0.00     0.000 OA
ATOM     52   O  A00 X   3      67.664  90.895  28.6530  0.00  0.00     0.000 OA
ATOM     53   S  A00 X   3      69.018  90.700  28.2660  0.00  0.00     0.000 S
ENDBRANCH 42 49
BRANCH 45 54
ATOM     54   C  A00 X   3      73.196  89.205  32.6810  0.00  0.00     0.000 C
ATOM     55   O  A00 X   3      73.234  88.850  33.8420  0.00  0.00     0.000 OA
ATOM     56   O  A00 X   3      73.973  90.071  32.3110  0.00  0.00     0.000 OA
ENDBRANCH 45 54
BRANCH 41 57
ATOM     57  O4  A00 X   4      70.747  91.205  32.7580  0.00  0.00     0.000 O
BRANCH 57 61
ATOM     58  C1  A00 X   4      69.272  92.396  36.6370  0.00  0.00     0.000 C
ATOM     59  C2  A00 X   4      69.736  90.931  36.4380  0.00  0.00     0.000 C
ATOM     60  C3  A00 X   4      70.563  90.718  35.1540  0.00  0.00     0.000 C
ATOM     61  C4  A00 X   4      69.889  91.362  33.9240  0.00  0.00     0.000 C
ATOM     62  C5  A00 X   4      69.711  92.864  34.2610  0.00  0.00     0.000 C
ATOM     63  O5  A00 X   4      68.823  92.995  35.4000  0.00  0.00     0.000 O
BRANCH 59 66
ATOM     64   N  A00 X   4      68.561  90.051  36.3050  0.00  0.00     0.000 N
ATOM     66  HD  A00 X   4      67.834  90.399  35.9880  0.00  0.00     0.000 HD
ATOM     66   O  A00 X   4      68.422  90.039  38.7090  0.00  0.00     0.000 OA
ATOM     67   S  A00 X   4      68.089  89.219  37.5870  0.00  0.00     0.000 S
ATOM     68   O  A00 X   4      66.687  89.092  37.3110  0.00  0.00     0.000 OA
ATOM     69   O  A00 X   4      68.838  88.010  37.3950  0.00  0.00     0.000 OA
ENDBRANCH 59 66
BRANCH 62 70
ATOM     70   C  A00 X   4      69.145  93.710  33.0960  0.00  0.00     0.000 C
ATOM     71   O  A00 X   4      65.820  93.651  31.6650  0.00  0.00     0.000 OA
ATOM     72   O  A00 X   4      67.935  93.569  30.6340  0.00  0.00     0.000 OA
ATOM     73   O  A00 X   4      67.721  93.534  33.0300  0.00  0.00     0.000 O
ATOM     74   O  A00 X   4      67.069  91.591  31.7640  0.00  0.00     0.000 OA
ATOM     75   S  A00 X   4      67.107  93.015  31.6830  0.00  0.00     0.000 S
ENDBRANCH 62 70
ENDBRANCH 57 61
ENDBRANCH 41 57
ENDBRANCH 40 44
ENDBRANCH 20 40
ENDBRANCH 19 23
ENDBRANCH 1 19
TORSDOF 14
ENDMDL
MODEL 46
REMARK VINA RESULT:       0.0     58.701     63.652
ROOT
ATOM      1  C1  A00 X   1      61.367  40.020  90.1920  0.00  0.00     0.000 C
ATOM      2  C2  A00 X   1      59.847  40.174  90.4640  0.00  0.00     0.000 C
ATOM      3  C3  A00 X   1      59.431  40.351  91.9620  0.00  0.00     0.000 C
ATOM      4  C4  A00 X   1      60.519  39.987  93.0050  0.00  0.00     0.000 C
ATOM      5  C5  A00 X   1      61.569  39.033  92.4350  0.00  0.00     0.000 C
ATOM      6  O5  A00 X   1      62.190  39.771  91.3590  0.00  0.00     0.000 O
ATOM      7   O  A00 X   1      58.315  39.505  92.2290  0.00  0.00     0.000 O
ATOM      9  HD  A00 X   1      58.846  39.451  92.9120  0.00  0.00     0.000 HD
ATOM      9   O  A00 X   1      61.158  41.155  93.5210  0.00  0.00     0.000 O
ATOM     11  HD  A00 X   1      61.688  41.101  94.2040  0.00  0.00     0.000 HD
ENDROOT
BRANCH 2 11
ATOM     11   O  A00 X   1      59.379  41.309  89.7100  0.00  0.00     0.000 O
ATOM     12   O  A00 X   1      57.149  42.165  89.9550  0.00  0.00     0.000 OA
ATOM     13   O  A00 X   1      57.473  39.920  89.0770  0.00  0.00     0.000 OA
ATOM     14   O  A00 X   1      58.131  41.818  87.8040  0.00  0.00     0.000 OA
ATOM     15   S  A00 X   1      57.926  41.282  89.1220  0.00  0.00     0.000 S
ENDBRANCH 2 11
BRANCH 5 16
ATOM     16   C  A00 X   1      61.035  37.661  92.0110  0.00  0.00     0.000 C
ATOM     17   O  A00 X   1      61.756  36.935  91.3580  0.00  0.00     0.000 OA
ATOM     18   O  A00 X   1      59.923  37.274  92.3090  0.00  0.00     0.000 OA
ENDBRANCH 5 16
BRANCH 1 19
ATOM     19  O4  A00 X   2      61.655  39.076  89.1320  0.00  0.00     0.000 O
BRANCH 19 23
ATOM     20  C1  A00 X   2      64.823  41.437  87.4710  0.00  0.00     0.000 C
ATOM     21  C2  A00 X   2      63.428  41.547  86.8100  0.00  0.00     0.000 C
ATOM     22  C3  A00 X   2      62.330  41.005  87.7490  0.00  0.00     0.000 C
ATOM     23  C4  A00 X   2      62.666  39.567  88.2060  0.00  0.00     0.000 C
ATOM     24  C5  A00 X   2      64.088  39.588  88.8310  0.00  0.00     0.000 C
ATOM     25  O5  A00 X   2      65.033  40.045  87.8280  0.00  0.00     0.000 O
ATOM     26   O  A00 X   2      61.051  41.192  87.1200  0.00  0.00     0.000 O
ATOM     28  HD  A00 X   2      61.307  40.829  86.3760  0.00  0.00     0.000 HD
BRANCH 21 30
ATOM     28   N  A00 X   2      64.096  41.717  85.5160  0.00  0.00     0.000 N
ATOM     30  HD  A00 X   2      63.275  41.969  85.4090  0.00  0.00     0.000 HD
ATOM     30   O  A00 X   2      62.762  43.096  84.1840  0.00  0.00     0.000 OA
ATOM     31   S  A00 X   2      63.214  41.750  84.2050  0.00  0.00     0.000 S
ATOM     32   O  A00 X   2      64.136  41.406  83.1670  0.00  0.00     0.000 OA
ATOM     33   O  A00 X   2      62.215  40.732  84.3410  0.00  0.00     0.000 OA
ENDBRANCH 21 30
BRANCH 24 34
ATOM     34   C  A00 X   2      64.572  38.321  89.5740  0.00  0.00     0.000 C
ATOM     35   O  A00 X   2      67.435  36.320  88.5450  0.00  0.00     0.000 OA
ATOM     36   O  A00 X   2      65.479  37.551  88.7590  0.00  0.00     0.000 O
ATOM     37   O  A00 X   2      67.536  38.641  88.9900  0.00  0.00     0.000 OA
ATOM     38   S  A00 X   2      66.932  37.392  89.3400  0.00  0.00     0.000 S
ATOM     39   O  A00 X   2      66.781  37.095  90.7330  0.00  0.00     0.000 OA
ENDBRANCH 24 34
BRANCH 20 40
ATOM     40  O4  A00 X   3      64.750  42.232  88.6640  0.00  0.00     0.000 O
BRANCH 40 44
ATOM     41  C1  A00 X   3      65.502  42.568  92.1920  0.00  0.00     0.000 C
ATOM     42  C2  A00 X   3      64.744  43.617  91.3500  0.00  0.00     0.000 C
ATOM     43  C3  A00 X   3      65.525  43.959  90.0550  0.00  0.00     0.000 C
ATOM     44  C4  A00 X   3      65.968  42.749  89.2430  0.00  0.00     0.000 C
ATOM     45  C5  A00 X   3      66.726  41.744  90.1560  0.00  0.00     0.000 C
ATOM     46  O5  A00 X   3      65.958  41.458  91.3700  0.00  0.00     0.000 O
ATOM     47   O  A00 X   3      64.960  44.984  89.2390  0.00  0.00     0.000 O
ATOM     49  HD  A00 X   3      65.223  44.463  88.5990  0.00  0.00     0.000 HD
BRANCH 42 49
ATOM     49   O  A00 X   3      63.445  43.061  91.0510  0.00  0.00     0.000 O
ATOM     50   O  A00 X   3      61.520  43.731  89.7960  0.00  0.00     0.000 OA
ATOM     51   O  A00 X   3      62.632  45.339  91.1250  0.00  0.00     0.000 OA
ATOM     52   O  A00 X   3      61.472  43.589  92.2090  0.00  0.00     0.000 OA
ATOM     53   S  A00 X   3      62.183  43.972  91.0390  0.00  0.00     0.000 S
ENDBRANCH 42 49
BRANCH 45 54
ATOM     54   C  A00 X   3      68.158  42.210  90.4450  0.00  0.00     0.000 C
ATOM     55   O  A00 X   3      68.934  41.491  91.0410  0.00  0.00     0.000 OA
ATOM     56   O  A00 X   3      68.543  43.311  90.0820  0.00  0.00     0.000 OA
ENDBRANCH 45 54
BRANCH 41 57
ATOM     57  O4  A00 X   4      66.544  43.175  92.9880  0.00  0.00     0.000 O
BRANCH 57 61
ATOM     58  C1  A00 X   4      68.157  42.283  96.8920  0.00  0.00     0.000 C
ATOM     59  C2  A00 X   4      68.280  41.214  95.7770  0.00  0.00     0.000 C
ATOM     60  C3  A00 X   4      68.005  41.766  94.3630  0.00  0.00     0.000 C
ATOM     61  C4  A00 X   4      66.713  42.611  94.3190  0.00  0.00     0.000 C
ATOM     62  C5  A00 X   4      66.896  43.741  95.3620  0.00  0.00     0.000 C
ATOM     63  O5  A00 X   4      67.024  43.156  96.6830  0.00  0.00     0.000 O
BRANCH 59 66
ATOM     64   N  A00 X   4      67.288  40.142  95.9760  0.00  0.00     0.000 N
ATOM     66  HD  A00 X   4      66.553  40.349  96.3840  0.00  0.00     0.000 HD
ATOM     66   O  A00 X   4      68.807  39.171  97.5740  0.00  0.00     0.000 OA
ATOM     67   S  A00 X   4      67.771  38.783  96.6680  0.00  0.00     0.000 S
ATOM     68   O  A00 X   4      66.546  38.355  97.2790  0.00  0.00     0.000 OA
ATOM     69   O  A00 X   4      68.145  38.027  95.5070  0.00  0.00     0.000 OA
ENDBRANCH 59 66
BRANCH 62 70
ATOM     70   C  A00 X   4      65.738  44.768  95.3900  0.00  0.00     0.000 C
ATOM     71   O  A00 X   4      62.332  44.307  96.5240  0.00  0.00     0.000 OA
ATOM     72   O  A00 X   4      63.172  45.242  94.5340  0.00  0.00     0.000 OA
ATOM     73   O  A00 X   4      64.642  44.228  96.1450  0.00  0.00     0.000 O
ATOM     74   O  A00 X   4      63.193  42.824  94.8290  0.00  0.00     0.000 OA
ATOM     75   S  A00 X   4      63.248  44.115  95.4360  0.00  0.00     0.000 S
ENDBRANCH 62 70
ENDBRANCH 57 61
ENDBRANCH 41 57
ENDBRANCH 40 44
ENDBRANCH 20 40
ENDBRANCH 19 23
ENDBRANCH 1 19
TORSDOF 14
ENDMDL
MODEL 47
REMARK VINA RESULT:       0.0    126.184    131.176
ROOT
ATOM      1  C1  A00 X   1      83.043 101.489  35.8790  0.00  0.00     0.000 C
ATOM      2  C2  A00 X   1      82.294 101.155  34.5610  0.00  0.00     0.000 C
ATOM      3  C3  A00 X   1      82.193  99.638  34.1930  0.00  0.00     0.000 C
ATOM      4  C4  A00 X   1      83.149  98.697  34.9710  0.00  0.00     0.000 C
ATOM      5  C5  A00 X   1      84.359  99.441  35.5350  0.00  0.00     0.000 C
ATOM      6  O5  A00 X   1      83.802 100.400  36.4610  0.00  0.00     0.000 O
ATOM      7   O  A00 X   1      82.506  99.481  32.8110  0.00  0.00     0.000 O
ATOM      9  HD  A00 X   1      82.890  98.831  33.2360  0.00  0.00     0.000 HD
ATOM      9   O  A00 X   1      82.468  98.016  36.0250  0.00  0.00     0.000 O
ATOM     11  HD  A00 X   1      82.851  97.366  36.4490  0.00  0.00     0.000 HD
ENDROOT
BRANCH 2 11
ATOM     11   O  A00 X   1      80.965 101.703  34.6610  0.00  0.00     0.000 O
ATOM     12   O  A00 X   1      79.402 101.583  32.8420  0.00  0.00     0.000 OA
ATOM     13   O  A00 X   1      81.446 102.872  32.5710  0.00  0.00     0.000 OA
ATOM     14   O  A00 X   1      79.749 103.606  34.0670  0.00  0.00     0.000 OA
ATOM     15   S  A00 X   1      80.368 102.473  33.4330  0.00  0.00     0.000 S
ENDBRANCH 2 11
BRANCH 5 16
ATOM     16   C  A00 X   1      85.282 100.067  34.4840  0.00  0.00     0.000 C
ATOM     17   O  A00 X   1      86.150 100.831  34.8540  0.00  0.00     0.000 OA
ATOM     18   O  A00 X   1      85.181  99.822  33.2990  0.00  0.00     0.000 OA
ENDBRANCH 5 16
BRANCH 1 19
ATOM     19  O4  A00 X   2      83.839 102.696  35.7820  0.00  0.00     0.000 O
BRANCH 19 23
ATOM     20  C1  A00 X   2      82.994 103.941  39.7950  0.00  0.00     0.000 C
ATOM     21  C2  A00 X   2      82.157 104.576  38.6580  0.00  0.00     0.000 C
ATOM     22  C3  A00 X   2      82.261 103.740  37.3660  0.00  0.00     0.000 C
ATOM     23  C4  A00 X   2      83.741 103.527  36.9740  0.00  0.00     0.000 C
ATOM     24  C5  A00 X   2      84.471 102.906  38.1960  0.00  0.00     0.000 C
ATOM     25  O5  A00 X   2      84.361 103.819  39.3190  0.00  0.00     0.000 O
ATOM     26   O  A00 X   2      81.415 104.331  36.3640  0.00  0.00     0.000 O
ATOM     28  HD  A00 X   2      81.743 105.124  36.4840  0.00  0.00     0.000 HD
BRANCH 21 30
ATOM     28   N  A00 X   2      82.128 105.823  39.4290  0.00  0.00     0.000 N
ATOM     30  HD  A00 X   2      81.512 105.888  38.8230  0.00  0.00     0.000 HD
ATOM     30   O  A00 X   2      80.110 106.911  38.9750  0.00  0.00     0.000 OA
ATOM     31   S  A00 X   2      81.500 107.112  38.7620  0.00  0.00     0.000 S
ATOM     32   O  A00 X   2      82.075 108.191  39.5040  0.00  0.00     0.000 OA
ATOM     33   O  A00 X   2      81.950 107.147  37.4030  0.00  0.00     0.000 OA
ENDBRANCH 21 30
BRANCH 24 34
ATOM     34   C  A00 X   2      85.912 102.382  37.9920  0.00  0.00     0.000 C
ATOM     35   O  A00 X   2      88.834 103.726  39.6980  0.00  0.00     0.000 OA
ATOM     36   O  A00 X   2      86.885 103.312  38.5080  0.00  0.00     0.000 O
ATOM     37   O  A00 X   2      86.916 102.904  40.8110  0.00  0.00     0.000 OA
ATOM     38   S  A00 X   2      87.780 102.765  39.6790  0.00  0.00     0.000 S
ATOM     39   O  A00 X   2      88.174 101.441  39.3030  0.00  0.00     0.000 OA
ENDBRANCH 24 34
BRANCH 20 40
ATOM     40  O4  A00 X   3      82.439 102.633  40.0010  0.00  0.00     0.000 O
BRANCH 40 44
ATOM     41  C1  A00 X   3      83.012  99.102  40.5710  0.00  0.00     0.000 C
ATOM     42  C2  A00 X   3      81.621  99.755  40.4220  0.00  0.00     0.000 C
ATOM     43  C3  A00 X   3      81.478 100.979  41.3640  0.00  0.00     0.000 C
ATOM     44  C4  A00 X   3      82.622 101.982  41.2760  0.00  0.00     0.000 C
ATOM     45  C5  A00 X   3      83.984 101.251  41.4400  0.00  0.00     0.000 C
ATOM     46  O5  A00 X   3      84.070 100.098  40.5400  0.00  0.00     0.000 O
ATOM     47   O  A00 X   3      80.200 101.611  41.3740  0.00  0.00     0.000 O
ATOM     49  HD  A00 X   3      80.681 102.329  41.4220  0.00  0.00     0.000 HD
BRANCH 42 49
ATOM     49   O  A00 X   3      81.478 100.136  39.0360  0.00  0.00     0.000 O
ATOM     50   O  A00 X   3      79.831 101.256  37.7070  0.00  0.00     0.000 OA
ATOM     51   O  A00 X   3      79.118  99.684  39.3230  0.00  0.00     0.000 OA
ATOM     52   O  A00 X   3      80.294  98.898  37.4300  0.00  0.00     0.000 OA
ATOM     53   S  A00 X   3      80.105  99.993  38.3180  0.00  0.00     0.000 S
ENDBRANCH 42 49
BRANCH 45 54
ATOM     54   C  A00 X   3      84.265 100.895  42.9050  0.00  0.00     0.000 C
ATOM     55   O  A00 X   3      85.349 100.463  43.2390  0.00  0.00     0.000 OA
ATOM     56   O  A00 X   3      83.405 101.040  43.7590  0.00  0.00     0.000 OA
ENDBRANCH 45 54
BRANCH 41 57
ATOM     57  O4  A00 X   4      83.068  98.220  41.7150  0.00  0.00     0.000 O
BRANCH 57 61
ATOM     58  C1  A00 X   4      85.166  94.525  42.4780  0.00  0.00     0.000 C
ATOM     59  C2  A00 X   4      85.994  95.803  42.1920  0.00  0.00     0.000 C
ATOM     60  C3  A00 X   4      85.172  97.104  42.2930  0.00  0.00     0.000 C
ATOM     61  C4  A00 X   4      83.840  97.002  41.5190  0.00  0.00     0.000 C
ATOM     62  C5  A00 X   4      83.084  95.787  42.1110  0.00  0.00     0.000 C
ATOM     63  O5  A00 X   4      83.855  94.582  41.8710  0.00  0.00     0.000 O
BRANCH 59 66
ATOM     64   N  A00 X   4      86.566  95.846  40.8340  0.00  0.00     0.000 N
ATOM     66  HD  A00 X   4      86.128  95.446  40.2030  0.00  0.00     0.000 HD
ATOM     66   O  A00 X   4      88.298  94.372  41.6240  0.00  0.00     0.000 OA
ATOM     67   S  A00 X   4      88.084  95.383  40.6360  0.00  0.00     0.000 S
ATOM     68   O  A00 X   4      88.037  94.920  39.2790  0.00  0.00     0.000 OA
ATOM     69   O  A00 X   4      88.757  96.639  40.8060  0.00  0.00     0.000 OA
ENDBRANCH 59 66
BRANCH 62 70
ATOM     70   C  A00 X   4      81.663  95.584  41.5340  0.00  0.00     0.000 C
ATOM     71   O  A00 X   4      80.702  94.523  38.2090  0.00  0.00     0.000 OA
ATOM     72   O  A00 X   4      79.961  96.337  39.5140  0.00  0.00     0.000 OA
ATOM     73   O  A00 X   4      81.757  94.922  40.2620  0.00  0.00     0.000 O
ATOM     74   O  A00 X   4      82.143  96.443  38.4340  0.00  0.00     0.000 OA
ATOM     75   S  A00 X   4      81.122  95.633  39.0170  0.00  0.00     0.000 S
ENDBRANCH 62 70
ENDBRANCH 57 61
ENDBRANCH 41 57
ENDBRANCH 40 44
ENDBRANCH 20 40
ENDBRANCH 19 23
ENDBRANCH 1 19
TORSDOF 14
ENDMDL
MODEL 48
REMARK VINA RESULT:       0.0     99.611    104.998
ROOT
ATOM      1  C1  A00 X   1      87.804  52.869  49.7790  0.00  0.00     0.000 C
ATOM      2  C2  A00 X   1      88.356  53.895  50.8040  0.00  0.00     0.000 C
ATOM      3  C3  A00 X   1      87.314  54.894  51.4060  0.00  0.00     0.000 C
ATOM      4  C4  A00 X   1      85.963  54.985  50.6500  0.00  0.00     0.000 C
ATOM      5  C5  A00 X   1      86.081  54.524  49.1980  0.00  0.00     0.000 C
ATOM      6  O5  A00 X   1      86.468  53.134  49.2850  0.00  0.00     0.000 O
ATOM      7   O  A00 X   1      87.875  56.204  51.3910  0.00  0.00     0.000 O
ATOM      9  HD  A00 X   1      87.047  56.279  51.1490  0.00  0.00     0.000 HD
ATOM      9   O  A00 X   1      84.943  54.238  51.3130  0.00  0.00     0.000 O
ATOM     11  HD  A00 X   1      84.115  54.312  51.0710  0.00  0.00     0.000 HD
ENDROOT
BRANCH 2 11
ATOM     11   O  A00 X   1      88.970  53.155  51.8770  0.00  0.00     0.000 O
ATOM     12   O  A00 X   1      90.110  54.250  53.6850  0.00  0.00     0.000 OA
ATOM     13   O  A00 X   1      90.988  54.456  51.4260  0.00  0.00     0.000 OA
ATOM     14   O  A00 X   1      91.059  52.367  52.5600  0.00  0.00     0.000 OA
ATOM     15   S  A00 X   1      90.367  53.619  52.4160  0.00  0.00     0.000 S
ENDBRANCH 2 11
BRANCH 5 16
ATOM     16   C  A00 X   1      87.015  55.367  48.3240  0.00  0.00     0.000 C
ATOM     17   O  A00 X   1      87.313  54.952  47.2230  0.00  0.00     0.000 OA
ATOM     18   O  A00 X   1      87.461  56.436  48.6910  0.00  0.00     0.000 OA
ENDBRANCH 5 16
BRANCH 1 19
ATOM     19  O4  A00 X   2      88.727  52.609  48.6920  0.00  0.00     0.000 O
BRANCH 19 23
ATOM     20  C1  A00 X   2      87.736  48.447  48.4430  0.00  0.00     0.000 C
ATOM     21  C2  A00 X   2      89.011  48.832  49.2320  0.00  0.00     0.000 C
ATOM     22  C3  A00 X   2      88.999  50.331  49.5990  0.00  0.00     0.000 C
ATOM     23  C4  A00 X   2      88.789  51.198  48.3370  0.00  0.00     0.000 C
ATOM     24  C5  A00 X   2      87.497  50.703  47.6310  0.00  0.00     0.000 C
ATOM     25  O5  A00 X   2      87.666  49.306  47.2740  0.00  0.00     0.000 O
ATOM     26   O  A00 X   2      90.165  50.622  50.3870  0.00  0.00     0.000 O
ATOM     28  HD  A00 X   2      90.702  50.242  49.8240  0.00  0.00     0.000 HD
BRANCH 21 30
ATOM     28   N  A00 X   2      89.632  47.590  48.7600  0.00  0.00     0.000 N
ATOM     30  HD  A00 X   2      90.114  47.876  49.4210  0.00  0.00     0.000 HD
ATOM     30   O  A00 X   2      91.109  46.843  50.4090  0.00  0.00     0.000 OA
ATOM     31   S  A00 X   2      91.160  47.337  49.0790  0.00  0.00     0.000 S
ATOM     32   O  A00 X   2      91.557  46.380  48.0930  0.00  0.00     0.000 OA
ATOM     33   O  A00 X   2      91.846  48.578  48.8730  0.00  0.00     0.000 OA
ENDBRANCH 21 30
BRANCH 24 34
ATOM     34   C  A00 X   2      86.936  51.553  46.4660  0.00  0.00     0.000 C
ATOM     35   O  A00 X   2      86.662  50.379  43.0300  0.00  0.00     0.000 OA
ATOM     36   O  A00 X   2      87.273  50.976  45.1890  0.00  0.00     0.000 O
ATOM     37   O  A00 X   2      85.700  49.272  44.8860  0.00  0.00     0.000 OA
ATOM     38   S  A00 X   2      86.048  50.534  44.3080  0.00  0.00     0.000 S
ATOM     39   O  A00 X   2      85.085  51.591  44.3940  0.00  0.00     0.000 OA
ENDBRANCH 24 34
BRANCH 20 40
ATOM     40  O4  A00 X   3      86.637  48.736  49.3180  0.00  0.00     0.000 O
BRANCH 40 44
ATOM     41  C1  A00 X   3      83.316  50.127  49.7260  0.00  0.00     0.000 C
ATOM     42  C2  A00 X   3      84.164  49.524  50.8670  0.00  0.00     0.000 C
ATOM     43  C3  A00 X   3      84.692  48.118  50.4830  0.00  0.00     0.000 C
ATOM     44  C4  A00 X   3      85.381  48.049  49.1260  0.00  0.00     0.000 C
ATOM     45  C5  A00 X   3      84.466  48.668  48.0320  0.00  0.00     0.000 C
ATOM     46  O5  A00 X   3      83.983  49.989  48.4410  0.00  0.00     0.000 O
ATOM     47   O  A00 X   3      85.418  47.426  51.4970  0.00  0.00     0.000 O
ATOM     49  HD  A00 X   3      85.908  47.186  50.8250  0.00  0.00     0.000 HD
BRANCH 42 49
ATOM     49   O  A00 X   3      85.249  50.444  51.1200  0.00  0.00     0.000 O
ATOM     50   O  A00 X   3      87.161  50.515  52.5590  0.00  0.00     0.000 OA
ATOM     51   O  A00 X   3      85.110  49.719  53.4250  0.00  0.00     0.000 OA
ATOM     52   O  A00 X   3      85.286  52.010  52.8700  0.00  0.00     0.000 OA
ATOM     53   S  A00 X   3      85.743  50.696  52.5740  0.00  0.00     0.000 S
ENDBRANCH 42 49
BRANCH 45 54
ATOM     54   C  A00 X   3      83.338  47.712  47.6280  0.00  0.00     0.000 C
ATOM     55   O  A00 X   3      82.674  47.924  46.6340  0.00  0.00     0.000 OA
ATOM     56   O  A00 X   3      83.086  46.723  48.2990  0.00  0.00     0.000 OA
ENDBRANCH 45 54
BRANCH 41 57
ATOM     57  O4  A00 X   4      81.963  49.621  49.7430  0.00  0.00     0.000 O
BRANCH 57 61
ATOM     58  C1  A00 X   4      78.161  51.366  48.6760  0.00  0.00     0.000 C
ATOM     59  C2  A00 X   4      79.245  51.223  47.5790  0.00  0.00     0.000 C
ATOM     60  C3  A00 X   4      80.398  50.278  47.9730  0.00  0.00     0.000 C
ATOM     61  C4  A00 X   4      80.936  50.590  49.3860  0.00  0.00     0.000 C
ATOM     62  C5  A00 X   4      79.729  50.471  50.3490  0.00  0.00     0.000 C
ATOM     63  O5  A00 X   4      78.738  51.470  49.9980  0.00  0.00     0.000 O
BRANCH 59 66
ATOM     64   N  A00 X   4      79.885  52.522  47.3050  0.00  0.00     0.000 N
ATOM     66  HD  A00 X   4      79.912  53.098  47.9500  0.00  0.00     0.000 HD
ATOM     66   O  A00 X   4      78.003  53.038  45.8930  0.00  0.00     0.000 OA
ATOM     67   S  A00 X   4      79.389  53.357  46.0330  0.00  0.00     0.000 S
ATOM     68   O  A00 X   4      79.674  54.692  46.4740  0.00  0.00     0.000 OA
ATOM     69   O  A00 X   4      80.295  52.861  45.0360  0.00  0.00     0.000 OA
ENDBRANCH 59 66
BRANCH 62 70
ATOM     70   C  A00 X   4      80.092  50.643  51.8430  0.00  0.00     0.000 C
ATOM     71   O  A00 X   4      81.159  53.634  53.5810  0.00  0.00     0.000 OA
ATOM     72   O  A00 X   4      82.068  51.462  53.5650  0.00  0.00     0.000 OA
ATOM     73   O  A00 X   4      80.217  52.042  52.1430  0.00  0.00     0.000 O
ATOM     74   O  A00 X   4      82.404  52.921  51.6430  0.00  0.00     0.000 OA
ATOM     75   S  A00 X   4      81.576  52.545  52.7430  0.00  0.00     0.000 S
ENDBRANCH 62 70
ENDBRANCH 57 61
ENDBRANCH 41 57
ENDBRANCH 40 44
ENDBRANCH 20 40
ENDBRANCH 19 23
ENDBRANCH 1 19
TORSDOF 14
ENDMDL
MODEL 49
REMARK VINA RESULT:       0.0     55.634     59.581
ROOT
ATOM      1  C1  A00 X   1      44.153  72.007 109.9550  0.00  0.00     0.000 C
ATOM      2  C2  A00 X   1      45.606  71.996 110.4990  0.00  0.00     0.000 C
ATOM      3  C3  A00 X   1      45.939  73.062 111.5940  0.00  0.00     0.000 C
ATOM      4  C4  A00 X   1      44.913  74.217 111.7360  0.00  0.00     0.000 C
ATOM      5  C5  A00 X   1      44.084  74.411 110.4660  0.00  0.00     0.000 C
ATOM      6  O5  A00 X   1      43.362  73.170 110.3060  0.00  0.00     0.000 O
ATOM      7   O  A00 X   1      47.190  73.669 111.2770  0.00  0.00     0.000 O
ATOM      9  HD  A00 X   1      46.661  74.300 111.5470  0.00  0.00     0.000 HD
ATOM      9   O  A00 X   1      44.047  74.011 112.8510  0.00  0.00     0.000 O
ATOM     11  HD  A00 X   1      43.518  74.642 113.1200  0.00  0.00     0.000 HD
ENDROOT
BRANCH 2 11
ATOM     11   O  A00 X   1      45.866  70.682 111.0300  0.00  0.00     0.000 O
ATOM     12   O  A00 X   1      48.025  70.057 111.8760  0.00  0.00     0.000 OA
ATOM     13   O  A00 X   1      47.784  70.609 109.5190  0.00  0.00     0.000 OA
ATOM     14   O  A00 X   1      46.795  68.634 110.4020  0.00  0.00     0.000 OA
ATOM     15   S  A00 X   1      47.222  69.978 110.6820  0.00  0.00     0.000 S
ENDBRANCH 2 11
BRANCH 5 16
ATOM     16   C  A00 X   1      44.885  74.820 109.2260  0.00  0.00     0.000 C
ATOM     17   O  A00 X   1      44.331  74.805 108.1460  0.00  0.00     0.000 OA
ATOM     18   O  A00 X   1      46.049  75.164 109.2850  0.00  0.00     0.000 OA
ENDBRANCH 5 16
BRANCH 1 19
ATOM     19  O4  A00 X   2      44.083  71.729 108.5350  0.00  0.00     0.000 O
BRANCH 19 23
ATOM     20  C1  A00 X   2      40.455  69.469 108.8470  0.00  0.00     0.000 C
ATOM     21  C2  A00 X   2      41.785  68.680 108.7860  0.00  0.00     0.000 C
ATOM     22  C3  A00 X   2      42.983  69.597 109.1110  0.00  0.00     0.000 C
ATOM     23  C4  A00 X   2      42.981  70.840 108.1930  0.00  0.00     0.000 C
ATOM     24  C5  A00 X   2      41.595  71.528 108.3300  0.00  0.00     0.000 C
ATOM     25  O5  A00 X   2      40.565  70.588 107.9280  0.00  0.00     0.000 O
ATOM     26   O  A00 X   2      44.184  68.806 109.1100  0.00  0.00     0.000 O
ATOM     28  HD  A00 X   2      44.010  68.452 108.3380  0.00  0.00     0.000 HD
BRANCH 21 30
ATOM     28   N  A00 X   2      41.086  67.633 108.0350  0.00  0.00     0.000 N
ATOM     30  HD  A00 X   2      41.830  67.288 108.3140  0.00  0.00     0.000 HD
ATOM     30   O  A00 X   2      42.069  65.580 108.5620  0.00  0.00     0.000 OA
ATOM     31   S  A00 X   2      41.929  66.436 107.4380  0.00  0.00     0.000 S
ATOM     32   O  A00 X   2      41.099  65.927 106.3910  0.00  0.00     0.000 OA
ATOM     33   O  A00 X   2      43.130  66.995 106.8930  0.00  0.00     0.000 OA
ENDBRANCH 21 30
BRANCH 24 34
ATOM     34   C  A00 X   2      41.411  72.925 107.6900  0.00  0.00     0.000 C
ATOM     35   O  A00 X   2      39.049  73.650 105.0160  0.00  0.00     0.000 OA
ATOM     36   O  A00 X   2      40.687  72.839 106.4470  0.00  0.00     0.000 O
ATOM     37   O  A00 X   2      38.443  72.687 107.0900  0.00  0.00     0.000 OA
ATOM     38   S  A00 X   2      39.313  73.603 106.4170  0.00  0.00     0.000 S
ATOM     39   O  A00 X   2      39.543  74.874 107.0340  0.00  0.00     0.000 OA
ENDBRANCH 24 34
BRANCH 20 40
ATOM     40  O4  A00 X   3      40.356  69.960 110.1910  0.00  0.00     0.000 O
BRANCH 40 44
ATOM     41  C1  A00 X   3      39.548  72.700 112.4200  0.00  0.00     0.000 C
ATOM     42  C2  A00 X   3      40.067  71.319 112.8750  0.00  0.00     0.000 C
ATOM     43  C3  A00 X   3      39.231  70.176 112.2420  0.00  0.00     0.000 C
ATOM     44  C4  A00 X   3      39.057  70.280 110.7330  0.00  0.00     0.000 C
ATOM     45  C5  A00 X   3      38.529  71.693 110.3540  0.00  0.00     0.000 C
ATOM     46  O5  A00 X   3      39.340  72.739 110.9810  0.00  0.00     0.000 O
ATOM     47   O  A00 X   3      39.566  68.854 112.6610  0.00  0.00     0.000 O
ATOM     49  HD  A00 X   3      39.420  68.674 111.8270  0.00  0.00     0.000 HD
BRANCH 42 49
ATOM     49   O  A00 X   3      41.454  71.237 112.4830  0.00  0.00     0.000 O
ATOM     50   O  A00 X   3      43.195  69.598 112.6010  0.00  0.00     0.000 OA
ATOM     51   O  A00 X   3      41.765  69.879 114.4620  0.00  0.00     0.000 OA
ATOM     52   O  A00 X   3      43.269  71.621 113.9230  0.00  0.00     0.000 OA
ATOM     53   S  A00 X   3      42.494  70.544 113.4110  0.00  0.00     0.000 S
ENDBRANCH 42 49
BRANCH 45 54
ATOM     54   C  A00 X   3      37.030  71.836 110.6460  0.00  0.00     0.000 C
ATOM     55   O  A00 X   3      36.417  72.812 110.2670  0.00  0.00     0.000 OA
ATOM     56   O  A00 X   3      36.428  70.972 111.2640  0.00  0.00     0.000 OA
ENDBRANCH 45 54
BRANCH 41 57
ATOM     57  O4  A00 X   4      38.401  73.120 113.1910  0.00  0.00     0.000 O
BRANCH 57 61
ATOM     58  C1  A00 X   4      37.010  76.985 114.5230  0.00  0.00     0.000 C
ATOM     59  C2  A00 X   4      37.121  76.721 113.0010  0.00  0.00     0.000 C
ATOM     60  C3  A00 X   4      37.274  75.228 112.6450  0.00  0.00     0.000 C
ATOM     61  C4  A00 X   4      38.355  74.541 113.5070  0.00  0.00     0.000 C
ATOM     62  C5  A00 X   4      37.932  74.749 114.9820  0.00  0.00     0.000 C
ATOM     63  O5  A00 X   4      37.931  76.168 115.2830  0.00  0.00     0.000 O
BRANCH 59 66
ATOM     64   N  A00 X   4      38.321  77.378 112.4520  0.00  0.00     0.000 N
ATOM     66  HD  A00 X   4      38.992  77.495 112.9860  0.00  0.00     0.000 HD
ATOM     66   O  A00 X   4      37.042  79.418 112.3680  0.00  0.00     0.000 OA
ATOM     67   S  A00 X   4      38.141  78.784 111.7090  0.00  0.00     0.000 S
ATOM     68   O  A00 X   4      39.427  79.370 111.9510  0.00  0.00     0.000 OA
ATOM     69   O  A00 X   4      37.944  78.334 110.3600  0.00  0.00     0.000 OA
ENDBRANCH 59 66
BRANCH 62 70
ATOM     70   C  A00 X   4      38.842  74.030 116.0070  0.00  0.00     0.000 C
ATOM     71   O  A00 X   4      42.265  74.787 116.9130  0.00  0.00     0.000 OA
ATOM     72   O  A00 X   4      41.250  72.747 116.3190  0.00  0.00     0.000 OA
ATOM     73   O  A00 X   4      40.026  74.815 116.2230  0.00  0.00     0.000 O
ATOM     74   O  A00 X   4      41.748  74.392 114.5910  0.00  0.00     0.000 OA
ATOM     75   S  A00 X   4      41.415  74.137 115.9560  0.00  0.00     0.000 S
ENDBRANCH 62 70
ENDBRANCH 57 61
ENDBRANCH 41 57
ENDBRANCH 40 44
ENDBRANCH 20 40
ENDBRANCH 19 23
ENDBRANCH 1 19
TORSDOF 14
ENDMDL
MODEL 50
REMARK VINA RESULT:       0.0     53.127     57.114
ROOT
ATOM      1  C1  A00 X   1      43.133  69.036 109.2660  0.00  0.00     0.000 C
ATOM      2  C2  A00 X   1      44.585  68.676 109.6790  0.00  0.00     0.000 C
ATOM      3  C3  A00 X   1      45.204  69.534 110.8320  0.00  0.00     0.000 C
ATOM      4  C4  A00 X   1      44.453  70.850 111.1630  0.00  0.00     0.000 C
ATOM      5  C5  A00 X   1      43.601  71.339 109.9920  0.00  0.00     0.000 C
ATOM      6  O5  A00 X   1      42.627  70.291 109.7850  0.00  0.00     0.000 O
ATOM      7   O  A00 X   1      46.530  69.906 110.4630  0.00  0.00     0.000 O
ATOM      9  HD  A00 X   1      46.164  70.599 110.8320  0.00  0.00     0.000 HD
ATOM      9   O  A00 X   1      43.639  70.707 112.3260  0.00  0.00     0.000 O
ATOM     11  HD  A00 X   1      43.272  71.400 112.6950  0.00  0.00     0.000 HD
ENDROOT
BRANCH 2 11
ATOM     11   O  A00 X   1      44.599  67.289 110.0670  0.00  0.00     0.000 O
ATOM     12   O  A00 X   1      46.631  66.158 110.6660  0.00  0.00     0.000 OA
ATOM     13   O  A00 X   1      46.356  66.989 108.3960  0.00  0.00     0.000 OA
ATOM     14   O  A00 X   1      45.037  65.173 109.1830  0.00  0.00     0.000 OA
ATOM     15   S  A00 X   1      45.753  66.367 109.5430  0.00  0.00     0.000 S
ENDBRANCH 2 11
BRANCH 5 16
ATOM     16   C  A00 X   1      44.386  71.705 108.7280  0.00  0.00     0.000 C
ATOM     17   O  A00 X   1      43.771  71.914 107.7030  0.00  0.00     0.000 OA
ATOM     18   O  A00 X   1      45.597  71.800 108.7170  0.00  0.00     0.000 OA
ENDBRANCH 5 16
BRANCH 1 19
ATOM     19  O4  A00 X   2      42.912  68.928 107.8380  0.00  0.00     0.000 O
BRANCH 19 23
ATOM     20  C1  A00 X   2      38.922  67.423 108.2600  0.00  0.00     0.000 C
ATOM     21  C2  A00 X   2      40.052  66.394 108.0160  0.00  0.00     0.000 C
ATOM     22  C3  A00 X   2      41.433  67.012 108.3160  0.00  0.00     0.000 C
ATOM     23  C4  A00 X   2      41.629  68.319 107.5150  0.00  0.00     0.000 C
ATOM     24  C5  A00 X   2      40.429  69.254 107.8310  0.00  0.00     0.000 C
ATOM     25  O5  A00 X   2      39.202  68.587 107.4380  0.00  0.00     0.000 O
ATOM     26   O  A00 X   2      42.439  66.000 108.1410  0.00  0.00     0.000 O
ATOM     28  HD  A00 X   2      42.145  65.771 107.3590  0.00  0.00     0.000 HD
BRANCH 21 30
ATOM     28   N  A00 X   2      39.101  65.593 107.2380  0.00  0.00     0.000 N
ATOM     30  HD  A00 X   2      39.773  65.078 107.4200  0.00  0.00     0.000 HD
ATOM     30   O  A00 X   2      39.668  63.341 107.4950  0.00  0.00     0.000 OA
ATOM     31   S  A00 X   2      39.635  64.320 106.4670  0.00  0.00     0.000 S
ATOM     32   O  A00 X   2      38.649  64.100 105.4540  0.00  0.00     0.000 OA
ATOM     33   O  A00 X   2      40.887  64.679 105.8720  0.00  0.00     0.000 OA
ENDBRANCH 21 30
BRANCH 24 34
ATOM     34   C  A00 X   2      40.499  70.717 107.3360  0.00  0.00     0.000 C
ATOM     35   O  A00 X   2      38.169  72.178 104.9500  0.00  0.00     0.000 OA
ATOM     36   O  A00 X   2      39.692  70.909 106.1570  0.00  0.00     0.000 O
ATOM     37   O  A00 X   2      37.514  71.145 106.9740  0.00  0.00     0.000 OA
ATOM     38   S  A00 X   2      38.509  71.933 106.3130  0.00  0.00     0.000 S
ATOM     39   O  A00 X   2      39.039  73.061 107.0190  0.00  0.00     0.000 OA
ENDBRANCH 24 34
BRANCH 20 40
ATOM     40  O4  A00 X   3      39.017  67.781 109.6460  0.00  0.00     0.000 O
BRANCH 40 44
ATOM     41  C1  A00 X   3      38.947  70.380 112.1700  0.00  0.00     0.000 C
ATOM     42  C2  A00 X   3      39.195  68.883 112.4550  0.00  0.00     0.000 C
ATOM     43  C3  A00 X   3      38.100  68.004 111.7980  0.00  0.00     0.000 C
ATOM     44  C4  A00 X   3      37.851  68.298 110.3240  0.00  0.00     0.000 C
ATOM     45  C5  A00 X   3      37.606  69.819 110.1190  0.00  0.00     0.000 C
ATOM     46  O5  A00 X   3      38.657  70.610 110.7630  0.00  0.00     0.000 O
ATOM     47   O  A00 X   3      38.178  66.606 112.0680  0.00  0.00     0.000 O
ATOM     49  HD  A00 X   3      37.943  66.546 111.2360  0.00  0.00     0.000 HD
BRANCH 42 49
ATOM     49   O  A00 X   3      40.507  68.565 111.9390  0.00  0.00     0.000 O
ATOM     50   O  A00 X   3      41.870  66.606 111.7610  0.00  0.00     0.000 OA
ATOM     51   O  A00 X   3      40.657  66.974 113.7560  0.00  0.00     0.000 OA
ATOM     52   O  A00 X   3      42.452  68.424 113.2460  0.00  0.00     0.000 OA
ATOM     53   S  A00 X   3      41.438  67.584 112.7090  0.00  0.00     0.000 S
ENDBRANCH 42 49
BRANCH 45 54
ATOM     54   C  A00 X   3      36.193  70.230 110.5500  0.00  0.00     0.000 C
ATOM     55   O  A00 X   3      35.772  71.344 110.3130  0.00  0.00     0.000 OA
ATOM     56   O  A00 X   3      35.466  69.445 111.1390  0.00  0.00     0.000 OA
ENDBRANCH 45 54
BRANCH 41 57
ATOM     57  O4  A00 X   4      37.966  70.940 113.0710  0.00  0.00     0.000 O
BRANCH 57 61
ATOM     58  C1  A00 X   4      37.504  74.844 114.8550  0.00  0.00     0.000 C
ATOM     59  C2  A00 X   4      37.456  74.724 113.3110  0.00  0.00     0.000 C
ATOM     60  C3  A00 X   4      37.270  73.276 112.8130  0.00  0.00     0.000 C
ATOM     61  C4  A00 X   4      38.238  72.300 113.5140  0.00  0.00     0.000 C
ATOM     62  C5  A00 X   4      37.967  72.433 115.0330  0.00  0.00     0.000 C
ATOM     63  O5  A00 X   4      38.281  73.784 115.4570  0.00  0.00     0.000 O
BRANCH 59 66
ATOM     64   N  A00 X   4      38.727  75.180 112.7210  0.00  0.00     0.000 N
ATOM     66  HD  A00 X   4      39.442  75.103 113.2030  0.00  0.00     0.000 HD
ATOM     66   O  A00 X   4      37.899  77.432 112.9290  0.00  0.00     0.000 OA
ATOM     67   S  A00 X   4      38.796  76.663 112.1240  0.00  0.00     0.000 S
ATOM     68   O  A00 X   4      40.189  76.950 112.3050  0.00  0.00     0.000 OA
ATOM     69   O  A00 X   4      38.421  76.405 110.7630  0.00  0.00     0.000 OA
ENDBRANCH 59 66
BRANCH 62 70
ATOM     70   C  A00 X   4      38.773  71.443 115.9080  0.00  0.00     0.000 C
ATOM     71   O  A00 X   4      42.331  71.398 116.5790  0.00  0.00     0.000 OA
ATOM     72   O  A00 X   4      40.876  69.677 115.8960  0.00  0.00     0.000 OA
ATOM     73   O  A00 X   4      40.106  71.947 116.0900  0.00  0.00     0.000 O
ATOM     74   O  A00 X   4      41.590  71.359 114.2850  0.00  0.00     0.000 OA
ATOM     75   S  A00 X   4      41.302  71.035 115.6450  0.00  0.00     0.000 S
ENDBRANCH 62 70
ENDBRANCH 57 61
ENDBRANCH 41 57
ENDBRANCH 40 44
ENDBRANCH 20 40
ENDBRANCH 19 23
ENDBRANCH 1 19
TORSDOF 14
ENDMDL
MODEL 51
REMARK VINA RESULT:       0.0     64.981     70.044
ROOT
ATOM      1  C1  A00 X   1      42.468   9.238  58.9300  0.00  0.00     0.000 C
ATOM      2  C2  A00 X   1      41.327   8.279  59.3610  0.00  0.00     0.000 C
ATOM      3  C3  A00 X   1      40.192   8.045  58.3100  0.00  0.00     0.000 C
ATOM      4  C4  A00 X   1      40.146   9.060  57.1390  0.00  0.00     0.000 C
ATOM      5  C5  A00 X   1      40.832  10.380  57.4920  0.00  0.00     0.000 C
ATOM      6  O5  A00 X   1      42.211  10.022  57.7390  0.00  0.00     0.000 O
ATOM      7   O  A00 X   1      38.931   8.132  58.9710  0.00  0.00     0.000 O
ATOM      9  HD  A00 X   1      38.851   8.543  58.2130  0.00  0.00     0.000 HD
ATOM      9   O  A00 X   1      40.726   8.517  55.9540  0.00  0.00     0.000 O
ATOM     11  HD  A00 X   1      40.646   8.927  55.1960  0.00  0.00     0.000 HD
ENDROOT
BRANCH 2 11
ATOM     11   O  A00 X   1      41.923   7.011  59.6970  0.00  0.00     0.000 O
ATOM     12   O  A00 X   1      40.646   5.223  60.6670  0.00  0.00     0.000 OA
ATOM     13   O  A00 X   1      40.931   7.294  61.9110  0.00  0.00     0.000 OA
ATOM     14   O  A00 X   1      42.784   5.852  61.5320  0.00  0.00     0.000 OA
ATOM     15   S  A00 X   1      41.514   6.312  61.0390  0.00  0.00     0.000 S
ENDBRANCH 2 11
BRANCH 5 16
ATOM     16   C  A00 X   1      40.186  11.159  58.6420  0.00  0.00     0.000 C
ATOM     17   O  A00 X   1      40.777  12.116  59.0990  0.00  0.00     0.000 OA
ATOM     18   O  A00 X   1      39.104  10.859  59.1050  0.00  0.00     0.000 OA
ENDBRANCH 5 16
BRANCH 1 19
ATOM     19  O4  A00 X   2      42.942  10.070  60.0170  0.00  0.00     0.000 O
BRANCH 19 23
ATOM     20  C1  A00 X   2      47.024   9.968  58.7170  0.00  0.00     0.000 C
ATOM     21  C2  A00 X   2      46.610   8.995  59.8480  0.00  0.00     0.000 C
ATOM     22  C3  A00 X   2      45.076   8.837  59.9020  0.00  0.00     0.000 C
ATOM     23  C4  A00 X   2      44.391  10.218  60.0170  0.00  0.00     0.000 C
ATOM     24  C5  A00 X   2      44.901  11.099  58.8440  0.00  0.00     0.000 C
ATOM     25  O5  A00 X   2      46.342  11.229  58.9500  0.00  0.00     0.000 O
ATOM     26   O  A00 X   2      44.747   7.875  60.9190  0.00  0.00     0.000 O
ATOM     28  HD  A00 X   2      45.239   8.264  61.5170  0.00  0.00     0.000 HD
BRANCH 21 30
ATOM     28   N  A00 X   2      47.945   9.166  60.4310  0.00  0.00     0.000 N
ATOM     30  HD  A00 X   2      47.596   8.465  60.8020  0.00  0.00     0.000 HD
ATOM     30   O  A00 X   2      48.535   7.170  61.4920  0.00  0.00     0.000 OA
ATOM     31   S  A00 X   2      48.245   8.516  61.8400  0.00  0.00     0.000 S
ATOM     32   O  A00 X   2      49.361   9.267  62.3280  0.00  0.00     0.000 OA
ATOM     33   O  A00 X   2      47.095   8.741  62.6640  0.00  0.00     0.000 OA
ENDBRANCH 21 30
BRANCH 24 34
ATOM     34   C  A00 X   2      44.196  12.454  58.5960  0.00  0.00     0.000 C
ATOM     35   O  A00 X   2      45.856  15.688  58.8110  0.00  0.00     0.000 OA
ATOM     36   O  A00 X   2      44.987  13.553  59.0900  0.00  0.00     0.000 O
ATOM     37   O  A00 X   2      46.583  13.919  57.4190  0.00  0.00     0.000 OA
ATOM     38   S  A00 X   2      45.457  14.585  58.0000  0.00  0.00     0.000 S
ATOM     39   O  A00 X   2      44.324  14.829  57.1590  0.00  0.00     0.000 OA
ENDBRANCH 24 34
BRANCH 20 40
ATOM     40  O4  A00 X   3      46.541   9.378  57.5020  0.00  0.00     0.000 O
BRANCH 40 44
ATOM     41  C1  A00 X   3      44.925   9.799  54.2870  0.00  0.00     0.000 C
ATOM     42  C2  A00 X   3      45.403   8.448  54.8610  0.00  0.00     0.000 C
ATOM     43  C3  A00 X   3      46.877   8.536  55.3340  0.00  0.00     0.000 C
ATOM     44  C4  A00 X   3      47.178   9.715  56.2510  0.00  0.00     0.000 C
ATOM     45  C5  A00 X   3      46.674  11.035  55.6030  0.00  0.00     0.000 C
ATOM     46  O5  A00 X   3      45.284  10.903  55.1630  0.00  0.00     0.000 O
ATOM     47   O  A00 X   3      47.453   7.319  55.8050  0.00  0.00     0.000 O
ATOM     49  HD  A00 X   3      47.815   7.848  56.3880  0.00  0.00     0.000 HD
BRANCH 42 49
ATOM     49   O  A00 X   3      44.517   8.115  55.9530  0.00  0.00     0.000 O
ATOM     50   O  A00 X   3      44.329   6.346  57.5540  0.00  0.00     0.000 OA
ATOM     51   O  A00 X   3      44.863   5.806  55.3150  0.00  0.00     0.000 OA
ATOM     52   O  A00 X   3      42.701   6.635  55.7900  0.00  0.00     0.000 OA
ATOM     53   S  A00 X   3      44.069   6.642  56.1810  0.00  0.00     0.000 S
ENDBRANCH 42 49
BRANCH 45 54
ATOM     54   C  A00 X   3      47.615  11.518  54.4930  0.00  0.00     0.000 C
ATOM     55   O  A00 X   3      47.517  12.642  54.0450  0.00  0.00     0.000 OA
ATOM     56   O  A00 X   3      48.478  10.783  54.0410  0.00  0.00     0.000 OA
ENDBRANCH 45 54
BRANCH 41 57
ATOM     57  O4  A00 X   4      45.348   9.976  52.9160  0.00  0.00     0.000 O
BRANCH 57 61
ATOM     58  C1  A00 X   4      43.596  12.017  49.5400  0.00  0.00     0.000 C
ATOM     59  C2  A00 X   4      43.974  12.846  50.7920  0.00  0.00     0.000 C
ATOM     60  C3  A00 X   4      44.903  12.096  51.7680  0.00  0.00     0.000 C
ATOM     61  C4  A00 X   4      44.396  10.668  52.0600  0.00  0.00     0.000 C
ATOM     62  C5  A00 X   4      44.291   9.954  50.6890  0.00  0.00     0.000 C
ATOM     63  O5  A00 X   4      43.309  10.638  49.8680  0.00  0.00     0.000 O
BRANCH 59 66
ATOM     64   N  A00 X   4      42.778  13.184  51.5830  0.00  0.00     0.000 N
ATOM     66  HD  A00 X   4      42.105  12.640  51.5440  0.00  0.00     0.000 HD
ATOM     66   O  A00 X   4      42.393  14.994  50.0430  0.00  0.00     0.000 OA
ATOM     67   S  A00 X   4      42.136  14.638  51.4030  0.00  0.00     0.000 S
ATOM     68   O  A00 X   4      40.766  14.357  51.7190  0.00  0.00     0.000 OA
ATOM     69   O  A00 X   4      42.841  15.355  52.4280  0.00  0.00     0.000 OA
ENDBRANCH 59 66
BRANCH 62 70
ATOM     70   C  A00 X   4      43.898   8.460  50.7820  0.00  0.00     0.000 C
ATOM     71   O  A00 X   4      40.734   7.013  51.7810  0.00  0.00     0.000 OA
ATOM     72   O  A00 X   4      42.931   6.522  52.4710  0.00  0.00     0.000 OA
ATOM     73   O  A00 X   4      42.479   8.354  50.9790  0.00  0.00     0.000 O
ATOM     74   O  A00 X   4      41.832   8.536  53.2930  0.00  0.00     0.000 OA
ATOM     75   S  A00 X   4      41.970   7.578  52.2440  0.00  0.00     0.000 S
ENDBRANCH 62 70
ENDBRANCH 57 61
ENDBRANCH 41 57
ENDBRANCH 40 44
ENDBRANCH 20 40
ENDBRANCH 19 23
ENDBRANCH 1 19
TORSDOF 14
ENDMDL
MODEL 52
REMARK VINA RESULT:       0.0     82.127     85.491
ROOT
ATOM      1  C1  A00 X   1      35.838  30.757  33.8280  0.00  0.00     0.000 C
ATOM      2  C2  A00 X   1      34.329  30.754  34.1900  0.00  0.00     0.000 C
ATOM      3  C3  A00 X   1      33.575  29.399  33.9840  0.00  0.00     0.000 C
ATOM      4  C4  A00 X   1      34.313  28.349  33.1140  0.00  0.00     0.000 C
ATOM      5  C5  A00 X   1      35.347  28.991  32.1890  0.00  0.00     0.000 C
ATOM      6  O5  A00 X   1      36.304  29.607  33.0800  0.00  0.00     0.000 O
ATOM      7   O  A00 X   1      32.333  29.661  33.3350  0.00  0.00     0.000 O
ATOM      9  HD  A00 X   1      32.664  28.947  32.9740  0.00  0.00     0.000 HD
ATOM      9   O  A00 X   1      34.940  27.352  33.9200  0.00  0.00     0.000 O
ATOM     11  HD  A00 X   1      35.271  26.638  33.5580  0.00  0.00     0.000 HD
ENDROOT
BRANCH 2 11
ATOM     11   O  A00 X   1      34.208  31.154  35.5690  0.00  0.00     0.000 O
ATOM     12   O  A00 X   1      32.108  31.086  36.7320  0.00  0.00     0.000 OA
ATOM     13   O  A00 X   1      32.374  32.593  34.8410  0.00  0.00     0.000 OA
ATOM     14   O  A00 X   1      33.557  32.982  36.8680  0.00  0.00     0.000 OA
ATOM     15   S  A00 X   1      32.960  31.995  36.0090  0.00  0.00     0.000 S
ENDBRANCH 2 11
BRANCH 5 16
ATOM     16   C  A00 X   1      34.774  29.953  31.1440  0.00  0.00     0.000 C
ATOM     17   O  A00 X   1      35.542  30.646  30.5090  0.00  0.00     0.000 OA
ATOM     18   O  A00 X   1      33.582  30.042  30.9250  0.00  0.00     0.000 OA
ENDBRANCH 5 16
BRANCH 1 19
ATOM     19  O4  A00 X   2      36.265  31.997  33.2120  0.00  0.00     0.000 O
BRANCH 19 23
ATOM     20  C1  A00 X   2      40.035  32.069  35.2480  0.00  0.00     0.000 C
ATOM     21  C2  A00 X   2      38.885  32.917  35.8430  0.00  0.00     0.000 C
ATOM     22  C3  A00 X   2      37.521  32.464  35.2830  0.00  0.00     0.000 C
ATOM     23  C4  A00 X   2      37.536  32.474  33.7380  0.00  0.00     0.000 C
ATOM     24  C5  A00 X   2      38.738  31.608  33.2700  0.00  0.00     0.000 C
ATOM     25  O5  A00 X   2      39.961  32.180  33.8020  0.00  0.00     0.000 O
ATOM     26   O  A00 X   2      36.484  33.233  35.9160  0.00  0.00     0.000 O
ATOM     28  HD  A00 X   2      36.874  33.988  35.7510  0.00  0.00     0.000 HD
BRANCH 21 30
ATOM     28   N  A00 X   2      39.883  33.909  36.2560  0.00  0.00     0.000 N
ATOM     30  HD  A00 X   2      39.157  34.087  36.6930  0.00  0.00     0.000 HD
ATOM     30   O  A00 X   2      39.129  34.925  38.2200  0.00  0.00     0.000 OA
ATOM     31   S  A00 X   2      39.383  35.278  36.8690  0.00  0.00     0.000 S
ATOM     32   O  A00 X   2      40.491  36.161  36.6730  0.00  0.00     0.000 OA
ATOM     33   O  A00 X   2      38.261  35.707  36.0880  0.00  0.00     0.000 OA
ENDBRANCH 21 30
BRANCH 24 34
ATOM     34   C  A00 X   2      38.844  31.266  31.7650  0.00  0.00     0.000 C
ATOM     35   O  A00 X   2      41.618  32.275  29.6330  0.00  0.00     0.000 OA
ATOM     36   O  A00 X   2      39.841  32.079  31.1130  0.00  0.00     0.000 O
ATOM     37   O  A00 X   2      41.870  31.038  31.6330  0.00  0.00     0.000 OA
ATOM     38   S  A00 X   2      41.047  31.287  30.4890  0.00  0.00     0.000 S
ATOM     39   O  A00 X   2      40.485  30.155  29.8170  0.00  0.00     0.000 OA
ENDBRANCH 24 34
BRANCH 20 40
ATOM     40  O4  A00 X   3      39.761  30.716  35.6400  0.00  0.00     0.000 O
BRANCH 40 44
ATOM     41  C1  A00 X   3      39.622  27.208  34.7450  0.00  0.00     0.000 C
ATOM     42  C2  A00 X   3      39.245  27.779  36.1290  0.00  0.00     0.000 C
ATOM     43  C3  A00 X   3      40.368  28.697  36.6760  0.00  0.00     0.000 C
ATOM     44  C4  A00 X   3      40.845  29.765  35.7000  0.00  0.00     0.000 C
ATOM     45  C5  A00 X   3      41.210  29.113  34.3360  0.00  0.00     0.000 C
ATOM     46  O5  A00 X   3      40.127  28.248  33.8630  0.00  0.00     0.000 O
ATOM     47   O  A00 X   3      40.166  29.213  37.9900  0.00  0.00     0.000 O
ATOM     49  HD  A00 X   3      40.515  29.925  37.6430  0.00  0.00     0.000 HD
BRANCH 42 49
ATOM     49   O  A00 X   3      38.005  28.502  35.9650  0.00  0.00     0.000 O
ATOM     50   O  A00 X   3      36.561  29.804  37.3610  0.00  0.00     0.000 OA
ATOM     51   O  A00 X   3      37.492  27.810  38.2270  0.00  0.00     0.000 OA
ATOM     52   O  A00 X   3      35.885  27.647  36.5010  0.00  0.00     0.000 OA
ATOM     53   S  A00 X   3      36.912  28.449  37.0720  0.00  0.00     0.000 S
ENDBRANCH 42 49
BRANCH 45 54
ATOM     54   C  A00 X   3      42.568  28.404  34.3910  0.00  0.00     0.000 C
ATOM     55   O  A00 X   3      43.164  28.289  35.4420  0.00  0.00     0.000 OA
ATOM     56   O  A00 X   3      43.075  27.944  33.3800  0.00  0.00     0.000 OA
ENDBRANCH 45 54
BRANCH 41 57
ATOM     57  O4  A00 X   4      40.495  26.062  34.8610  0.00  0.00     0.000 O
BRANCH 57 61
ATOM     58  C1  A00 X   4      40.931  22.454  32.5300  0.00  0.00     0.000 C
ATOM     59  C2  A00 X   4      41.199  23.817  31.8440  0.00  0.00     0.000 C
ATOM     60  C3  A00 X   4      41.365  24.983  32.8380  0.00  0.00     0.000 C
ATOM     61  C4  A00 X   4      40.246  24.996  33.9010  0.00  0.00     0.000 C
ATOM     62  C5  A00 X   4      40.298  23.617  34.6050  0.00  0.00     0.000 C
ATOM     63  O5  A00 X   4      40.009  22.576  33.6370  0.00  0.00     0.000 O
BRANCH 59 66
ATOM     64   N  A00 X   4      40.076  24.217  30.9760  0.00  0.00     0.000 N
ATOM     66  HD  A00 X   4      39.286  23.936  31.1890  0.00  0.00     0.000 HD
ATOM     66   O  A00 X   4      40.985  22.753  29.2940  0.00  0.00     0.000 OA
ATOM     67   S  A00 X   4      40.198  23.941  29.4050  0.00  0.00     0.000 S
ATOM     68   O  A00 X   4      38.813  23.798  29.0600  0.00  0.00     0.000 OA
ATOM     69   O  A00 X   4      40.786  25.177  28.9750  0.00  0.00     0.000 OA
ENDBRANCH 59 66
BRANCH 62 70
ATOM     70   C  A00 X   4      39.312  23.474  35.7890  0.00  0.00     0.000 C
ATOM     71   O  A00 X   4      35.698  23.275  35.7110  0.00  0.00     0.000 OA
ATOM     72   O  A00 X   4      37.133  24.615  37.0110  0.00  0.00     0.000 OA
ATOM     73   O  A00 X   4      37.999  23.186  35.2820  0.00  0.00     0.000 O
ATOM     74   O  A00 X   4      36.771  25.164  34.6650  0.00  0.00     0.000 OA
ATOM     75   S  A00 X   4      36.831  24.156  35.6730  0.00  0.00     0.000 S
ENDBRANCH 62 70
ENDBRANCH 57 61
ENDBRANCH 41 57
ENDBRANCH 40 44
ENDBRANCH 20 40
ENDBRANCH 19 23
ENDBRANCH 1 19
TORSDOF 14
ENDMDL
MODEL 53
REMARK VINA RESULT:       0.0     73.765     78.417
ROOT
ATOM      1  C1  A00 X   1      67.516  68.137 100.3980  0.00  0.00     0.000 C
ATOM      2  C2  A00 X   1      68.383  67.172 101.2480  0.00  0.00     0.000 C
ATOM      3  C3  A00 X   1      69.803  66.842 100.6810  0.00  0.00     0.000 C
ATOM      4  C4  A00 X   1      70.030  67.211  99.1920  0.00  0.00     0.000 C
ATOM      5  C5  A00 X   1      68.716  67.313  98.4160  0.00  0.00     0.000 C
ATOM      6  O5  A00 X   1      67.996  68.391  99.0540  0.00  0.00     0.000 O
ATOM      7   O  A00 X   1      70.024  65.438 100.7880  0.00  0.00     0.000 O
ATOM      9  HD  A00 X   1      70.332  65.686 100.0180  0.00  0.00     0.000 HD
ATOM      9   O  A00 X   1      70.763  68.429  99.0610  0.00  0.00     0.000 O
ATOM     11  HD  A00 X   1      71.070  68.677  98.2910  0.00  0.00     0.000 HD
ENDROOT
BRANCH 2 11
ATOM     11   O  A00 X   1      68.525  67.750 102.5600  0.00  0.00     0.000 O
ATOM     12   O  A00 X   1      69.996  66.812 104.2100  0.00  0.00     0.000 OA
ATOM     13   O  A00 X   1      68.091  65.512 103.4360  0.00  0.00     0.000 OA
ATOM     14   O  A00 X   1      67.762  67.468 104.7490  0.00  0.00     0.000 OA
ATOM     15   S  A00 X   1      68.614  66.799 103.8030  0.00  0.00     0.000 S
ENDBRANCH 2 11
BRANCH 5 16
ATOM     16   C  A00 X   1      67.915  66.010  98.3250  0.00  0.00     0.000 C
ATOM     17   O  A00 X   1      66.775  66.057  97.9110  0.00  0.00     0.000 OA
ATOM     18   O  A00 X   1      68.381  64.934  98.6430  0.00  0.00     0.000 OA
ENDBRANCH 5 16
BRANCH 1 19
ATOM     19  O4  A00 X   2      66.112  67.778 100.3980  0.00  0.00     0.000 O
BRANCH 19 23
ATOM     20  C1  A00 X   2      64.755  71.838 100.5960  0.00  0.00     0.000 C
ATOM     21  C2  A00 X   2      64.831  71.045 101.9230  0.00  0.00     0.000 C
ATOM     22  C3  A00 X   2      65.721  69.794 101.7650  0.00  0.00     0.000 C
ATOM     23  C4  A00 X   2      65.241  68.931 100.5760  0.00  0.00     0.000 C
ATOM     24  C5  A00 X   2      65.190  69.842  99.3190  0.00  0.00     0.000 C
ATOM     25  O5  A00 X   2      64.268  70.934  99.5700  0.00  0.00     0.000 O
ATOM     26   O  A00 X   2      65.815  69.131 103.0370  0.00  0.00     0.000 O
ATOM     28  HD  A00 X   2      64.957  69.132 103.1580  0.00  0.00     0.000 HD
BRANCH 21 30
ATOM     28   N  A00 X   2      63.647  71.776 102.3840  0.00  0.00     0.000 N
ATOM     30  HD  A00 X   2      64.004  71.410 103.0840  0.00  0.00     0.000 HD
ATOM     30   O  A00 X   2      63.799  72.018 104.7030  0.00  0.00     0.000 OA
ATOM     31   S  A00 X   2      62.979  71.353 103.7530  0.00  0.00     0.000 S
ATOM     32   O  A00 X   2      61.645  71.857 103.6490  0.00  0.00     0.000 OA
ATOM     33   O  A00 X   2      62.969  69.921 103.7950  0.00  0.00     0.000 OA
ENDBRANCH 21 30
BRANCH 24 34
ATOM     34   C  A00 X   2      64.960  69.170  97.9450  0.00  0.00     0.000 C
ATOM     35   O  A00 X   2      62.078  69.812  95.8150  0.00  0.00     0.000 OA
ATOM     36   O  A00 X   2      63.598  69.336  97.5030  0.00  0.00     0.000 O
ATOM     37   O  A00 X   2      63.535  71.497  96.6110  0.00  0.00     0.000 OA
ATOM     38   S  A00 X   2      63.421  70.142  96.1650  0.00  0.00     0.000 S
ATOM     39   O  A00 X   2      64.420  69.654  95.2620  0.00  0.00     0.000 OA
ENDBRANCH 24 34
BRANCH 20 40
ATOM     40  O4  A00 X   3      66.105  72.222 100.2960  0.00  0.00     0.000 O
BRANCH 40 44
ATOM     41  C1  A00 X   3      68.745  72.568  97.8400  0.00  0.00     0.000 C
ATOM     42  C2  A00 X   3      68.887  72.910  99.3390  0.00  0.00     0.000 C
ATOM     43  C3  A00 X   3      67.737  73.839  99.8080  0.00  0.00     0.000 C
ATOM     44  C4  A00 X   3      66.341  73.356  99.4350  0.00  0.00     0.000 C
ATOM     45  C5  A00 X   3      66.277  73.038  97.9150  0.00  0.00     0.000 C
ATOM     46  O5  A00 X   3      67.385  72.168  97.5150  0.00  0.00     0.000 O
ATOM     47   O  A00 X   3      67.814  74.292 101.1580  0.00  0.00     0.000 O
ATOM     49  HD  A00 X   3      66.957  74.167 101.1300  0.00  0.00     0.000 HD
BRANCH 42 49
ATOM     49   O  A00 X   3      68.883  71.659 100.0610  0.00  0.00     0.000 O
ATOM     50   O  A00 X   3      68.975  70.983 102.3560  0.00  0.00     0.000 OA
ATOM     51   O  A00 X   3      70.372  72.746 101.6280  0.00  0.00     0.000 OA
ATOM     52   O  A00 X   3      70.809  70.562 100.8360  0.00  0.00     0.000 OA
ATOM     53   S  A00 X   3      69.808  71.461 101.2970  0.00  0.00     0.000 S
ENDBRANCH 42 49
BRANCH 45 54
ATOM     54   C  A00 X   3      66.177  74.315  97.0710  0.00  0.00     0.000 C
ATOM     55   O  A00 X   3      65.907  74.256  95.8890  0.00  0.00     0.000 OA
ATOM     56   O  A00 X   3      66.370  75.412  97.5720  0.00  0.00     0.000 OA
ENDBRANCH 45 54
BRANCH 41 57
ATOM     57  O4  A00 X   4      69.263  73.623  97.0000  0.00  0.00     0.000 O
BRANCH 57 61
ATOM     58  C1  A00 X   4      71.213  73.626  93.1480  0.00  0.00     0.000 C
ATOM     59  C2  A00 X   4      69.763  73.090  93.2440  0.00  0.00     0.000 C
ATOM     60  C3  A00 X   4      69.055  73.466  94.5620  0.00  0.00     0.000 C
ATOM     61  C4  A00 X   4      69.942  73.175  95.7920  0.00  0.00     0.000 C
ATOM     62  C5  A00 X   4      71.251  73.976  95.5840  0.00  0.00     0.000 C
ATOM     63  O5  A00 X   4      71.927  73.486  94.3980  0.00  0.00     0.000 O
BRANCH 59 66
ATOM     64   N  A00 X   4      69.761  71.617  93.2040  0.00  0.00     0.000 N
ATOM     66  HD  A00 X   4      70.466  71.208  93.4980  0.00  0.00     0.000 HD
ATOM     66   O  A00 X   4      69.915  71.783  90.8060  0.00  0.00     0.000 OA
ATOM     67   S  A00 X   4      69.423  70.898  91.8150  0.00  0.00     0.000 S
ATOM     68   O  A00 X   4      70.154  69.675  91.9730  0.00  0.00     0.000 OA
ATOM     69   O  A00 X   4      68.001  70.754  91.9450  0.00  0.00     0.000 OA
ENDBRANCH 59 66
BRANCH 62 70
ATOM     70   C  A00 X   4      72.235  73.899  96.7760  0.00  0.00     0.000 C
ATOM     71   O  A00 X   4      74.160  71.063  97.9420  0.00  0.00     0.000 OA
ATOM     72   O  A00 X   4      72.785  72.572  99.1170  0.00  0.00     0.000 OA
ATOM     73   O  A00 X   4      72.955  72.657  96.7190  0.00  0.00     0.000 O
ATOM     74   O  A00 X   4      71.767  70.831  97.7480  0.00  0.00     0.000 OA
ATOM     75   S  A00 X   4      72.875  71.705  97.9630  0.00  0.00     0.000 S
ENDBRANCH 62 70
ENDBRANCH 57 61
ENDBRANCH 41 57
ENDBRANCH 40 44
ENDBRANCH 20 40
ENDBRANCH 19 23
ENDBRANCH 1 19
TORSDOF 14
ENDMDL
MODEL 54
REMARK VINA RESULT:       0.0    126.686    131.543
ROOT
ATOM      1  C1  A00 X   1      82.712 101.126  34.7820  0.00  0.00     0.000 C
ATOM      2  C2  A00 X   1      81.670 101.113  33.6310  0.00  0.00     0.000 C
ATOM      3  C3  A00 X   1      81.304  99.707  33.0510  0.00  0.00     0.000 C
ATOM      4  C4  A00 X   1      82.273  98.556  33.4260  0.00  0.00     0.000 C
ATOM      5  C5  A00 X   1      83.658  99.072  33.8150  0.00  0.00     0.000 C
ATOM      6  O5  A00 X   1      83.431  99.884  34.9890  0.00  0.00     0.000 O
ATOM      7   O  A00 X   1      81.301  99.787  31.6270  0.00  0.00     0.000 O
ATOM      9  HD  A00 X   1      81.679  99.037  31.8410  0.00  0.00     0.000 HD
ATOM      9   O  A00 X   1      81.744  97.751  34.4790  0.00  0.00     0.000 O
ATOM     11  HD  A00 X   1      82.121  97.002  34.6920  0.00  0.00     0.000 HD
ENDROOT
BRANCH 2 11
ATOM     11   O  A00 X   1      80.471 101.746  34.1190  0.00  0.00     0.000 O
ATOM     12   O  A00 X   1      78.568 102.122  32.7030  0.00  0.00     0.000 OA
ATOM     13   O  A00 X   1      80.663 103.253  32.2050  0.00  0.00     0.000 OA
ATOM     14   O  A00 X   1      79.415 103.828  34.1470  0.00  0.00     0.000 OA
ATOM     15   S  A00 X   1      79.741 102.791  33.2060  0.00  0.00     0.000 S
ENDBRANCH 2 11
BRANCH 5 16
ATOM     16   C  A00 X   1      84.415  99.802  32.7010  0.00  0.00     0.000 C
ATOM     17   O  A00 X   1      85.420 100.419  32.9890  0.00  0.00     0.000 OA
ATOM     18   O  A00 X   1      84.049  99.780  31.5430  0.00  0.00     0.000 OA
ENDBRANCH 5 16
BRANCH 1 19
ATOM     19  O4  A00 X   2      83.617 102.254  34.7070  0.00  0.00     0.000 O
BRANCH 19 23
ATOM     20  C1  A00 X   2      83.775 102.798  38.9550  0.00  0.00     0.000 C
ATOM     21  C2  A00 X   2      82.811 103.706  38.1540  0.00  0.00     0.000 C
ATOM     22  C3  A00 X   2      82.542 103.120  36.7520  0.00  0.00     0.000 C
ATOM     23  C4  A00 X   2      83.871 102.854  36.0100  0.00  0.00     0.000 C
ATOM     24  C5  A00 X   2      84.750 101.953  36.9200  0.00  0.00     0.000 C
ATOM     25  O5  A00 X   2      84.989 102.646  38.1730  0.00  0.00     0.000 O
ATOM     26   O  A00 X   2      81.591 103.960  36.0760  0.00  0.00     0.000 O
ATOM     28  HD  A00 X   2      82.034 104.685  36.2470  0.00  0.00     0.000 HD
BRANCH 21 30
ATOM     28   N  A00 X   2      83.102 104.791  39.0960  0.00  0.00     0.000 N
ATOM     30  HD  A00 X   2      82.384 105.017  38.6660  0.00  0.00     0.000 HD
ATOM     30   O  A00 X   2      81.186 106.113  39.2970  0.00  0.00     0.000 OA
ATOM     31   S  A00 X   2      82.512 106.228  38.8020  0.00  0.00     0.000 S
ATOM     32   O  A00 X   2      83.361 107.102  39.5510  0.00  0.00     0.000 OA
ATOM     33   O  A00 X   2      82.663 106.470  37.3980  0.00  0.00     0.000 OA
ENDBRANCH 21 30
BRANCH 24 34
ATOM     34   C  A00 X   2      86.041 101.350  36.3160  0.00  0.00     0.000 C
ATOM     35   O  A00 X   2      89.394 102.061  37.5430  0.00  0.00     0.000 OA
ATOM     36   O  A00 X   2      87.210 102.069  36.7580  0.00  0.00     0.000 O
ATOM     37   O  A00 X   2      87.645 101.214  38.8910  0.00  0.00     0.000 OA
ATOM     38   S  A00 X   2      88.242 101.223  37.5910  0.00  0.00     0.000 S
ATOM     39   O  A00 X   2      88.376  99.968  36.9140  0.00  0.00     0.000 OA
ENDBRANCH 24 34
BRANCH 20 40
ATOM     40  O4  A00 X   3      83.112 101.529  39.0640  0.00  0.00     0.000 O
BRANCH 40 44
ATOM     41  C1  A00 X   3      83.320  97.915  38.9350  0.00  0.00     0.000 C
ATOM     42  C2  A00 X   3      82.025  98.713  39.1960  0.00  0.00     0.000 C
ATOM     43  C3  A00 X   3      82.232  99.754  40.3260  0.00  0.00     0.000 C
ATOM     44  C4  A00 X   3      83.457 100.643  40.1510  0.00  0.00     0.000 C
ATOM     45  C5  A00 X   3      84.717  99.770  39.8970  0.00  0.00     0.000 C
ATOM     46  O5  A00 X   3      84.473  98.796  38.8310  0.00  0.00     0.000 O
ATOM     47   O  A00 X   3      81.075 100.492  40.7130  0.00  0.00     0.000 O
ATOM     49  HD  A00 X   3      81.646 101.141  40.7680  0.00  0.00     0.000 HD
BRANCH 42 49
ATOM     49   O  A00 X   3      81.662  99.350  37.9510  0.00  0.00     0.000 O
ATOM     50   O  A00 X   3      79.942 100.837  37.2030  0.00  0.00     0.000 OA
ATOM     51   O  A00 X   3      79.367  99.071  38.6660  0.00  0.00     0.000 OA
ATOM     52   O  A00 X   3      80.038  98.537  36.4630  0.00  0.00     0.000 OA
ATOM     53   S  A00 X   3      80.167  99.465  37.5330  0.00  0.00     0.000 S
ENDBRANCH 42 49
BRANCH 45 54
ATOM     54   C  A00 X   3      85.234  99.130  41.1920  0.00  0.00     0.000 C
ATOM     55   O  A00 X   3      84.598  99.218  42.2220  0.00  0.00     0.000 OA
ATOM     56   O  A00 X   3      86.294  98.523  41.2100  0.00  0.00     0.000 OA
ENDBRANCH 45 54
BRANCH 41 57
ATOM     57  O4  A00 X   4      83.486  96.840  39.8860  0.00  0.00     0.000 O
BRANCH 57 61
ATOM     58  C1  A00 X   4      85.217  92.896  39.5920  0.00  0.00     0.000 C
ATOM     59  C2  A00 X   4      86.125  94.125  39.3380  0.00  0.00     0.000 C
ATOM     60  C3  A00 X   4      85.508  95.455  39.8160  0.00  0.00     0.000 C
ATOM     61  C4  A00 X   4      84.048  95.612  39.3400  0.00  0.00     0.000 C
ATOM     62  C5  A00 X   4      83.277  94.383  39.8830  0.00  0.00     0.000 C
ATOM     63  O5  A00 X   4      83.830  93.177  39.2960  0.00  0.00     0.000 O
BRANCH 59 66
ATOM     64   N  A00 X   4      86.444  94.384  37.9230  0.00  0.00     0.000 N
ATOM     66  HD  A00 X   4      85.851  94.162  37.3320  0.00  0.00     0.000 HD
ATOM     66   O  A00 X   4      88.077  92.620  38.0710  0.00  0.00     0.000 OA
ATOM     67   S  A00 X   4      87.825  93.824  37.3430  0.00  0.00     0.000 S
ATOM     68   O  A00 X   4      87.474  93.648  35.9630  0.00  0.00     0.000 OA
ATOM     69   O  A00 X   4      88.680  94.949  37.5930  0.00  0.00     0.000 OA
ENDBRANCH 59 66
BRANCH 62 70
ATOM     70   C  A00 X   4      81.756  94.415  39.5990  0.00  0.00     0.000 C
ATOM     71   O  A00 X   4      80.039  94.087  36.4290  0.00  0.00     0.000 OA
ATOM     72   O  A00 X   4      79.796  95.678  38.1480  0.00  0.00     0.000 OA
ATOM     73   O  A00 X   4      81.517  94.000  38.2450  0.00  0.00     0.000 O
ATOM     74   O  A00 X   4      81.720  95.801  36.6570  0.00  0.00     0.000 OA
ATOM     75   S  A00 X   4      80.742  94.985  37.3020  0.00  0.00     0.000 S
ENDBRANCH 62 70
ENDBRANCH 57 61
ENDBRANCH 41 57
ENDBRANCH 40 44
ENDBRANCH 20 40
ENDBRANCH 19 23
ENDBRANCH 1 19
TORSDOF 14
ENDMDL
MODEL 55
REMARK VINA RESULT:       0.0     38.273     42.176
ROOT
ATOM      1  C1  A00 X   1      37.413  51.479 112.8650  0.00  0.00     0.000 C
ATOM      2  C2  A00 X   1      36.659  52.183 114.0250  0.00  0.00     0.000 C
ATOM      3  C3  A00 X   1      36.719  51.471 115.4160  0.00  0.00     0.000 C
ATOM      4  C4  A00 X   1      37.195  49.996 115.3920  0.00  0.00     0.000 C
ATOM      5  C5  A00 X   1      36.998  49.348 114.0220  0.00  0.00     0.000 C
ATOM      6  O5  A00 X   1      37.835  50.118 113.1290  0.00  0.00     0.000 O
ATOM      7   O  A00 X   1      35.411  51.465 115.9830  0.00  0.00     0.000 O
ATOM      9  HD  A00 X   1      35.760  50.689 116.1400  0.00  0.00     0.000 HD
ATOM      9   O  A00 X   1      38.561  49.882 115.7880  0.00  0.00     0.000 O
ATOM     11  HD  A00 X   1      38.911  49.105 115.9450  0.00  0.00     0.000 HD
ENDROOT
BRANCH 2 11
ATOM     11   O  A00 X   1      37.199  53.513 114.1550  0.00  0.00     0.000 O
ATOM     12   O  A00 X   1      36.287  55.108 115.7010  0.00  0.00     0.000 OA
ATOM     13   O  A00 X   1      34.910  54.314 113.8600  0.00  0.00     0.000 OA
ATOM     14   O  A00 X   1      36.798  55.700 113.4420  0.00  0.00     0.000 OA
ATOM     15   S  A00 X   1      36.211  54.719 114.3160  0.00  0.00     0.000 S
ENDBRANCH 2 11
BRANCH 5 16
ATOM     16   C  A00 X   1      35.542  49.242 113.5580  0.00  0.00     0.000 C
ATOM     17   O  A00 X   1      35.320  48.908 112.4120  0.00  0.00     0.000 OA
ATOM     18   O  A00 X   1      34.605  49.473 114.2950  0.00  0.00     0.000 OA
ENDBRANCH 5 16
BRANCH 1 19
ATOM     19  O4  A00 X   2      36.715  51.579 111.5990  0.00  0.00     0.000 O
BRANCH 19 23
ATOM     20  C1  A00 X   2      40.311  51.993 109.3050  0.00  0.00     0.000 C
ATOM     21  C2  A00 X   2      39.539  53.286 109.6630  0.00  0.00     0.000 C
ATOM     22  C3  A00 X   2      38.550  53.033 110.8190  0.00  0.00     0.000 C
ATOM     23  C4  A00 X   2      37.615  51.849 110.4860  0.00  0.00     0.000 C
ATOM     24  C5  A00 X   2      38.505  50.627 110.1290  0.00  0.00     0.000 C
ATOM     25  O5  A00 X   2      39.332  50.969 108.9860  0.00  0.00     0.000 O
ATOM     26   O  A00 X   2      37.909  54.275 111.1590  0.00  0.00     0.000 O
ATOM     28  HD  A00 X   2      37.696  54.448 110.3370  0.00  0.00     0.000 HD
BRANCH 21 30
ATOM     28   N  A00 X   2      39.949  53.843 108.3690  0.00  0.00     0.000 N
ATOM     30  HD  A00 X   2      39.670  54.506 108.8510  0.00  0.00     0.000 HD
ATOM     30   O  A00 X   2      40.182  56.154 108.6140  0.00  0.00     0.000 OA
ATOM     31   S  A00 X   2      39.351  55.235 107.9200  0.00  0.00     0.000 S
ATOM     32   O  A00 X   2      39.512  55.230 106.4990  0.00  0.00     0.000 OA
ATOM     33   O  A00 X   2      37.961  55.231 108.2630  0.00  0.00     0.000 OA
ENDBRANCH 21 30
BRANCH 24 34
ATOM     34   C  A00 X   2      37.820  49.249 109.9790  0.00  0.00     0.000 C
ATOM     35   O  A00 X   2      37.679  47.368 106.8650  0.00  0.00     0.000 OA
ATOM     36   O  A00 X   2      37.611  48.917 108.5920  0.00  0.00     0.000 O
ATOM     37   O  A00 X   2      39.686  48.118 107.8660  0.00  0.00     0.000 OA
ATOM     38   S  A00 X   2      38.360  47.629 108.0900  0.00  0.00     0.000 S
ATOM     39   O  A00 X   2      38.183  46.635 109.1060  0.00  0.00     0.000 OA
ENDBRANCH 24 34
BRANCH 20 40
ATOM     40  O4  A00 X   3      41.021  51.624 110.4960  0.00  0.00     0.000 O
BRANCH 40 44
ATOM     41  C1  A00 X   3      42.058  49.005 112.7740  0.00  0.00     0.000 C
ATOM     42  C2  A00 X   3      42.383  50.504 112.9500  0.00  0.00     0.000 C
ATOM     43  C3  A00 X   3      42.995  51.095 111.6550  0.00  0.00     0.000 C
ATOM     44  C4  A00 X   3      42.203  50.801 110.3880  0.00  0.00     0.000 C
ATOM     45  C5  A00 X   3      41.920  49.276 110.2790  0.00  0.00     0.000 C
ATOM     46  O5  A00 X   3      41.353  48.759 111.5260  0.00  0.00     0.000 O
ATOM     47   O  A00 X   3      43.416  52.456 111.7290  0.00  0.00     0.000 O
ATOM     49  HD  A00 X   3      43.090  52.483 110.9270  0.00  0.00     0.000 HD
BRANCH 42 49
ATOM     49   O  A00 X   3      41.148  51.166 113.3000  0.00  0.00     0.000 O
ATOM     50   O  A00 X   3      40.443  53.418 113.7040  0.00  0.00     0.000 OA
ATOM     51   O  A00 X   3      42.521  52.699 114.5740  0.00  0.00     0.000 OA
ATOM     52   O  A00 X   3      40.540  51.783 115.4830  0.00  0.00     0.000 OA
ATOM     53   S  A00 X   3      41.147  52.339 114.3230  0.00  0.00     0.000 S
ENDBRANCH 42 49
BRANCH 45 54
ATOM     54   C  A00 X   3      43.159  48.501 109.8130  0.00  0.00     0.000 C
ATOM     55   O  A00 X   3      43.084  47.320 109.5410  0.00  0.00     0.000 OA
ATOM     56   O  A00 X   3      44.241  49.057 109.7080  0.00  0.00     0.000 OA
ENDBRANCH 45 54
BRANCH 41 57
ATOM     57  O4  A00 X   4      43.230  48.180 112.9590  0.00  0.00     0.000 O
BRANCH 57 61
ATOM     58  C1  A00 X   4      43.811  44.216 114.5700  0.00  0.00     0.000 C
ATOM     59  C2  A00 X   4      42.924  44.382 113.3110  0.00  0.00     0.000 C
ATOM     60  C3  A00 X   4      43.080  45.755 112.6260  0.00  0.00     0.000 C
ATOM     61  C4  A00 X   4      42.995  46.915 113.6410  0.00  0.00     0.000 C
ATOM     62  C5  A00 X   4      44.105  46.657 114.6900  0.00  0.00     0.000 C
ATOM     63  O5  A00 X   4      43.828  45.413 115.3820  0.00  0.00     0.000 O
BRANCH 59 66
ATOM     64   N  A00 X   4      41.497  44.284 113.6650  0.00  0.00     0.000 N
ATOM     66  HD  A00 X   4      41.266  44.520 114.4660  0.00  0.00     0.000 HD
ATOM     66   O  A00 X   4      41.752  41.890 113.6140  0.00  0.00     0.000 OA
ATOM     67   S  A00 X   4      40.750  42.891 113.4210  0.00  0.00     0.000 S
ATOM     68   O  A00 X   4      39.740  42.957 114.4360  0.00  0.00     0.000 OA
ATOM     69   O  A00 X   4      40.259  43.097 112.0880  0.00  0.00     0.000 OA
ENDBRANCH 59 66
BRANCH 62 70
ATOM     70   C  A00 X   4      44.253  47.782 115.7430  0.00  0.00     0.000 C
ATOM     71   O  A00 X   4      41.984  48.694 118.4130  0.00  0.00     0.000 OA
ATOM     72   O  A00 X   4      43.047  50.020 116.7830  0.00  0.00     0.000 OA
ATOM     73   O  A00 X   4      43.244  47.623 116.7530  0.00  0.00     0.000 O
ATOM     74   O  A00 X   4      41.142  48.636 116.1550  0.00  0.00     0.000 OA
ATOM     75   S  A00 X   4      42.268  48.823 117.0120  0.00  0.00     0.000 S
ENDBRANCH 62 70
ENDBRANCH 57 61
ENDBRANCH 41 57
ENDBRANCH 40 44
ENDBRANCH 20 40
ENDBRANCH 19 23
ENDBRANCH 1 19
TORSDOF 14
ENDMDL
MODEL 56
REMARK VINA RESULT:       0.0     84.849     88.523
ROOT
ATOM      1  C1  A00 X   1      38.828  33.153  31.3870  0.00  0.00     0.000 C
ATOM      2  C2  A00 X   1      37.290  33.112  31.1870  0.00  0.00     0.000 C
ATOM      3  C3  A00 X   1      36.716  31.814  30.5310  0.00  0.00     0.000 C
ATOM      4  C4  A00 X   1      37.757  30.901  29.8340  0.00  0.00     0.000 C
ATOM      5  C5  A00 X   1      39.022  31.664  29.4400  0.00  0.00     0.000 C
ATOM      6  O5  A00 X   1      39.577  32.125  30.6910  0.00  0.00     0.000 O
ATOM      7   O  A00 X   1      35.770  32.186  29.5310  0.00  0.00     0.000 O
ATOM      9  HD  A00 X   1      36.238  31.532  29.2090  0.00  0.00     0.000 HD
ATOM      9   O  A00 X   1      38.103  29.784  30.6530  0.00  0.00     0.000 O
ATOM     11  HD  A00 X   1      38.571  29.130  30.3310  0.00  0.00     0.000 HD
ENDROOT
BRANCH 2 11
ATOM     11   O  A00 X   1      36.675  33.297  32.4770  0.00  0.00     0.000 O
ATOM     12   O  A00 X   1      34.305  33.078  32.7980  0.00  0.00     0.000 OA
ATOM     13   O  A00 X   1      35.154  34.854  31.3680  0.00  0.00     0.000 OA
ATOM     14   O  A00 X   1      35.532  34.913  33.7160  0.00  0.00     0.000 OA
ATOM     15   S  A00 X   1      35.318  34.077  32.5660  0.00  0.00     0.000 S
ENDBRANCH 2 11
BRANCH 5 16
ATOM     16   C  A00 X   1      38.811  32.781  28.4130  0.00  0.00     0.000 C
ATOM     17   O  A00 X   1      39.718  33.561  28.2080  0.00  0.00     0.000 OA
ATOM     18   O  A00 X   1      37.773  32.910  27.7950  0.00  0.00     0.000 OA
ENDBRANCH 5 16
BRANCH 1 19
ATOM     19  O4  A00 X   2      39.391  34.467  31.1510  0.00  0.00     0.000 O
BRANCH 19 23
ATOM     20  C1  A00 X   2      42.196  34.186  34.3790  0.00  0.00     0.000 C
ATOM     21  C2  A00 X   2      40.870  34.940  34.6470  0.00  0.00     0.000 C
ATOM     22  C3  A00 X   2      39.814  34.591  33.5790  0.00  0.00     0.000 C
ATOM     23  C4  A00 X   2      40.371  34.844  32.1600  0.00  0.00     0.000 C
ATOM     24  C5  A00 X   2      41.701  34.053  32.0240  0.00  0.00     0.000 C
ATOM     25  O5  A00 X   2      42.630  34.525  33.0350  0.00  0.00     0.000 O
ATOM     26   O  A00 X   2      38.585  35.260  33.9090  0.00  0.00     0.000 O
ATOM     28  HD  A00 X   2      38.971  36.029  34.0090  0.00  0.00     0.000 HD
BRANCH 21 30
ATOM     28   N  A00 X   2      41.607  35.855  35.5250  0.00  0.00     0.000 N
ATOM     30  HD  A00 X   2      40.766  35.960  35.7020  0.00  0.00     0.000 HD
ATOM     30   O  A00 X   2      40.166  36.546  37.2290  0.00  0.00     0.000 OA
ATOM     31   S  A00 X   2      40.851  37.109  36.1200  0.00  0.00     0.000 S
ATOM     32   O  A00 X   2      41.907  38.012  36.4570  0.00  0.00     0.000 OA
ATOM     33   O  A00 X   2      40.046  37.656  35.0690  0.00  0.00     0.000 OA
ENDBRANCH 21 30
BRANCH 24 34
ATOM     34   C  A00 X   2      42.346  33.952  30.6220  0.00  0.00     0.000 C
ATOM     35   O  A00 X   2      43.291  36.828  28.5980  0.00  0.00     0.000 OA
ATOM     36   O  A00 X   2      42.282  35.213  29.9250  0.00  0.00     0.000 O
ATOM     37   O  A00 X   2      44.059  36.454  30.8030  0.00  0.00     0.000 OA
ATOM     38   S  A00 X   2      43.673  35.851  29.5640  0.00  0.00     0.000 S
ATOM     39   O  A00 X   2      44.489  34.787  29.0620  0.00  0.00     0.000 OA
ENDBRANCH 24 34
BRANCH 20 40
ATOM     40  O4  A00 X   3      41.867  32.791  34.4400  0.00  0.00     0.000 O
BRANCH 40 44
ATOM     41  C1  A00 X   3      42.228  29.482  33.0110  0.00  0.00     0.000 C
ATOM     42  C2  A00 X   3      41.360  29.819  34.2420  0.00  0.00     0.000 C
ATOM     43  C3  A00 X   3      42.171  30.622  35.2910  0.00  0.00     0.000 C
ATOM     44  C4  A00 X   3      42.907  31.832  34.7300  0.00  0.00     0.000 C
ATOM     45  C5  A00 X   3      43.761  31.413  33.5000  0.00  0.00     0.000 C
ATOM     46  O5  A00 X   3      42.958  30.649  32.5430  0.00  0.00     0.000 O
ATOM     47   O  A00 X   3      41.494  30.915  36.5110  0.00  0.00     0.000 O
ATOM     49  HD  A00 X   3      41.907  31.672  36.4280  0.00  0.00     0.000 HD
BRANCH 42 49
ATOM     49   O  A00 X   3      40.223  30.571  33.7650  0.00  0.00     0.000 O
ATOM     50   O  A00 X   3      38.320  31.642  34.7450  0.00  0.00     0.000 OA
ATOM     51   O  A00 X   3      38.984  29.526  35.5620  0.00  0.00     0.000 OA
ATOM     52   O  A00 X   3      38.093  29.661  33.3770  0.00  0.00     0.000 OA
ATOM     53   S  A00 X   3      38.815  30.349  34.3910  0.00  0.00     0.000 S
ENDBRANCH 42 49
BRANCH 45 54
ATOM     54   C  A00 X   3      45.047  30.692  33.9210  0.00  0.00     0.000 C
ATOM     55   O  A00 X   3      45.893  30.405  33.0990  0.00  0.00     0.000 OA
ATOM     56   O  A00 X   3      45.242  30.392  35.0890  0.00  0.00     0.000 OA
ENDBRANCH 45 54
BRANCH 41 57
ATOM     57  O4  A00 X   4      43.061  28.324  33.2450  0.00  0.00     0.000 O
BRANCH 57 61
ATOM     58  C1  A00 X   4      44.466  25.146  30.6820  0.00  0.00     0.000 C
ATOM     59  C2  A00 X   4      44.891  26.601  30.3610  0.00  0.00     0.000 C
ATOM     60  C3  A00 X   4      44.640  27.586  31.5210  0.00  0.00     0.000 C
ATOM     61  C4  A00 X   4      43.218  27.434  32.1030  0.00  0.00     0.000 C
ATOM     62  C5  A00 X   4      43.086  25.958  32.5520  0.00  0.00     0.000 C
ATOM     63  O5  A00 X   4      43.208  25.094  31.3930  0.00  0.00     0.000 O
BRANCH 59 66
ATOM     64   N  A00 X   4      44.237  27.279  29.2270  0.00  0.00     0.000 N
ATOM     66  HD  A00 X   4      43.410  27.080  29.0650  0.00  0.00     0.000 HD
ATOM     66   O  A00 X   4      45.642  25.976  27.7680  0.00  0.00     0.000 OA
ATOM     67   S  A00 X   4      44.956  27.230  27.7990  0.00  0.00     0.000 S
ATOM     68   O  A00 X   4      43.818  27.332  26.9330  0.00  0.00     0.000 OA
ATOM     69   O  A00 X   4      45.748  28.425  27.8730  0.00  0.00     0.000 OA
ENDBRANCH 59 66
BRANCH 62 70
ATOM     70   C  A00 X   4      41.755  25.632  33.2700  0.00  0.00     0.000 C
ATOM     71   O  A00 X   4      38.415  25.476  31.8800  0.00  0.00     0.000 OA
ATOM     72   O  A00 X   4      39.230  26.575  33.7970  0.00  0.00     0.000 OA
ATOM     73   O  A00 X   4      40.722  25.440  32.2900  0.00  0.00     0.000 O
ATOM     74   O  A00 X   4      39.691  27.502  31.5910  0.00  0.00     0.000 OA
ATOM     75   S  A00 X   4      39.443  26.343  32.3860  0.00  0.00     0.000 S
ENDBRANCH 62 70
ENDBRANCH 57 61
ENDBRANCH 41 57
ENDBRANCH 40 44
ENDBRANCH 20 40
ENDBRANCH 19 23
ENDBRANCH 1 19
TORSDOF 14
ENDMDL
MODEL 57
REMARK VINA RESULT:       0.0     78.181     83.022
ROOT
ATOM      1  C1  A00 X   1      53.347  56.101  53.3720  0.00  0.00     0.000 C
ATOM      2  C2  A00 X   1      52.786  55.857  51.9450  0.00  0.00     0.000 C
ATOM      3  C3  A00 X   1      52.192  57.108  51.2170  0.00  0.00     0.000 C
ATOM      4  C4  A00 X   1      51.899  58.332  52.1230  0.00  0.00     0.000 C
ATOM      5  C5  A00 X   1      51.725  57.937  53.5890  0.00  0.00     0.000 C
ATOM      6  O5  A00 X   1      53.000  57.374  53.9720  0.00  0.00     0.000 O
ATOM      7   O  A00 X   1      50.951  56.742  50.6180  0.00  0.00     0.000 O
ATOM      9  HD  A00 X   1      50.844  57.528  50.9670  0.00  0.00     0.000 HD
ATOM      9   O  A00 X   1      52.921  59.322  52.0080  0.00  0.00     0.000 O
ATOM     11  HD  A00 X   1      52.815  60.107  52.3570  0.00  0.00     0.000 HD
ENDROOT
BRANCH 2 11
ATOM     11   O  A00 X   1      53.850  55.309  51.1430  0.00  0.00     0.000 O
ATOM     12   O  A00 X   1      53.618  54.983  48.7760  0.00  0.00     0.000 OA
ATOM     13   O  A00 X   1      52.199  53.721  50.2960  0.00  0.00     0.000 OA
ATOM     14   O  A00 X   1      54.536  53.291  50.1920  0.00  0.00     0.000 OA
ATOM     15   S  A00 X   1      53.498  54.271  50.0230  0.00  0.00     0.000 S
ENDBRANCH 2 11
BRANCH 5 16
ATOM     16   C  A00 X   1      50.536  57.013  53.8740  0.00  0.00     0.000 C
ATOM     17   O  A00 X   1      50.455  56.491  54.9670  0.00  0.00     0.000 OA
ATOM     18   O  A00 X   1      49.672  56.791  53.0500  0.00  0.00     0.000 OA
ENDBRANCH 5 16
BRANCH 1 19
ATOM     19  O4  A00 X   2      53.079  55.001  54.2750  0.00  0.00     0.000 O
BRANCH 19 23
ATOM     20  C1  A00 X   2      56.905  55.238  56.1910  0.00  0.00     0.000 C
ATOM     21  C2  A00 X   2      56.733  54.188  55.0670  0.00  0.00     0.000 C
ATOM     22  C3  A00 X   2      55.495  54.506  54.2030  0.00  0.00     0.000 C
ATOM     23  C4  A00 X   2      54.236  54.651  55.0870  0.00  0.00     0.000 C
ATOM     24  C5  A00 X   2      54.543  55.712  56.1790  0.00  0.00     0.000 C
ATOM     25  O5  A00 X   2      55.676  55.260  56.9650  0.00  0.00     0.000 O
ATOM     26   O  A00 X   2      55.418  53.546  53.1350  0.00  0.00     0.000 O
ATOM     28  HD  A00 X   2      55.503  52.870  53.6700  0.00  0.00     0.000 HD
BRANCH 21 30
ATOM     28   N  A00 X   2      57.640  53.305  55.8070  0.00  0.00     0.000 N
ATOM     30  HD  A00 X   2      57.582  52.988  55.0030  0.00  0.00     0.000 HD
ATOM     30   O  A00 X   2      58.815  52.008  54.2600  0.00  0.00     0.000 OA
ATOM     31   S  A00 X   2      57.852  51.828  55.2880  0.00  0.00     0.000 S
ATOM     32   O  A00 X   2      58.324  51.127  56.4420  0.00  0.00     0.000 OA
ATOM     33   O  A00 X   2      56.568  51.329  54.8940  0.00  0.00     0.000 OA
ENDBRANCH 21 30
BRANCH 24 34
ATOM     34   C  A00 X   2      53.370  56.211  57.0560  0.00  0.00     0.000 C
ATOM     35   O  A00 X   2      53.203  55.799  60.6690  0.00  0.00     0.000 OA
ATOM     36   O  A00 X   2      53.402  55.608  58.3650  0.00  0.00     0.000 O
ATOM     37   O  A00 X   2      54.993  56.855  59.5410  0.00  0.00     0.000 OA
ATOM     38   S  A00 X   2      53.583  56.612  59.5610  0.00  0.00     0.000 S
ATOM     39   O  A00 X   2      52.714  57.719  59.2960  0.00  0.00     0.000 OA
ENDBRANCH 24 34
BRANCH 20 40
ATOM     40  O4  A00 X   3      57.075  56.497  55.5230  0.00  0.00     0.000 O
BRANCH 40 44
ATOM     41  C1  A00 X   3      56.276  60.025  55.3350  0.00  0.00     0.000 C
ATOM     42  C2  A00 X   3      57.190  59.276  54.3420  0.00  0.00     0.000 C
ATOM     43  C3  A00 X   3      58.279  58.467  55.0920  0.00  0.00     0.000 C
ATOM     44  C4  A00 X   3      57.750  57.574  56.2070  0.00  0.00     0.000 C
ATOM     45  C5  A00 X   3      56.846  58.399  57.1650  0.00  0.00     0.000 C
ATOM     46  O5  A00 X   3      55.840  59.153  56.4150  0.00  0.00     0.000 O
ATOM     47   O  A00 X   3      59.237  57.802  54.2700  0.00  0.00     0.000 O
ATOM     49  HD  A00 X   3      59.150  57.180  54.8670  0.00  0.00     0.000 HD
BRANCH 42 49
ATOM     49   O  A00 X   3      56.341  58.413  53.5540  0.00  0.00     0.000 O
ATOM     50   O  A00 X   3      56.649  56.797  51.8150  0.00  0.00     0.000 OA
ATOM     51   O  A00 X   3      57.901  58.802  51.7450  0.00  0.00     0.000 OA
ATOM     52   O  A00 X   3      55.566  58.918  51.3950  0.00  0.00     0.000 OA
ATOM     53   S  A00 X   3      56.619  58.209  52.0360  0.00  0.00     0.000 S
ENDBRANCH 42 49
BRANCH 45 54
ATOM     54   C  A00 X   3      57.674  59.274  58.1130  0.00  0.00     0.000 C
ATOM     55   O  A00 X   3      58.870  59.406  57.9490  0.00  0.00     0.000 OA
ATOM     56   O  A00 X   3      57.147  59.854  59.0500  0.00  0.00     0.000 OA
ENDBRANCH 45 54
BRANCH 41 57
ATOM     57  O4  A00 X   4      56.876  61.261  55.7850  0.00  0.00     0.000 O
BRANCH 57 61
ATOM     58  C1  A00 X   4      55.230  65.094  56.8970  0.00  0.00     0.000 C
ATOM     59  C2  A00 X   4      54.840  63.849  57.7320  0.00  0.00     0.000 C
ATOM     60  C3  A00 X   4      55.748  62.629  57.4780  0.00  0.00     0.000 C
ATOM     61  C4  A00 X   4      55.947  62.367  55.9700  0.00  0.00     0.000 C
ATOM     62  C5  A00 X   4      56.540  63.669  55.3760  0.00  0.00     0.000 C
ATOM     63  O5  A00 X   4      55.583  64.747  55.5380  0.00  0.00     0.000 O
BRANCH 59 66
ATOM     64   N  A00 X   4      53.479  63.403  57.3840  0.00  0.00     0.000 N
ATOM     66  HD  A00 X   4      53.195  63.572  56.5830  0.00  0.00     0.000 HD
ATOM     66   O  A00 X   4      52.648  65.105  58.8710  0.00  0.00     0.000 OA
ATOM     67   S  A00 X   4      52.273  63.830  58.3430  0.00  0.00     0.000 S
ATOM     68   O  A00 X   4      51.189  63.845  57.4050  0.00  0.00     0.000 OA
ATOM     69   O  A00 X   4      52.256  62.712  59.2430  0.00  0.00     0.000 OA
ENDBRANCH 59 66
BRANCH 62 70
ATOM     70   C  A00 X   4      56.916  63.567  53.8790  0.00  0.00     0.000 C
ATOM     71   O  A00 X   4      54.725  63.280  51.0110  0.00  0.00     0.000 OA
ATOM     72   O  A00 X   4      56.628  62.034  51.6180  0.00  0.00     0.000 OA
ATOM     73   O  A00 X   4      55.732  63.721  53.0800  0.00  0.00     0.000 O
ATOM     74   O  A00 X   4      54.521  61.659  52.7840  0.00  0.00     0.000 OA
ATOM     75   S  A00 X   4      55.367  62.569  52.0810  0.00  0.00     0.000 S
ENDBRANCH 62 70
ENDBRANCH 57 61
ENDBRANCH 41 57
ENDBRANCH 40 44
ENDBRANCH 20 40
ENDBRANCH 19 23
ENDBRANCH 1 19
TORSDOF 14
ENDMDL
MODEL 58
REMARK VINA RESULT:       0.0     73.693     78.149
ROOT
ATOM      1  C1  A00 X   1      81.478  53.648 109.4350  0.00  0.00     0.000 C
ATOM      2  C2  A00 X   1      82.565  53.252 110.4690  0.00  0.00     0.000 C
ATOM      3  C3  A00 X   1      82.056  52.529 111.7590  0.00  0.00     0.000 C
ATOM      4  C4  A00 X   1      80.530  52.622 112.0210  0.00  0.00     0.000 C
ATOM      5  C5  A00 X   1      79.896  53.818 111.3110  0.00  0.00     0.000 C
ATOM      6  O5  A00 X   1      80.109  53.565 109.9040  0.00  0.00     0.000 O
ATOM      7   O  A00 X   1      82.697  53.109 112.8930  0.00  0.00     0.000 O
ATOM      9  HD  A00 X   1      81.868  52.980 113.1070  0.00  0.00     0.000 HD
ATOM      9   O  A00 X   1      79.860  51.422 111.6360  0.00  0.00     0.000 O
ATOM     11  HD  A00 X   1      79.031  51.293 111.8500  0.00  0.00     0.000 HD
ENDROOT
BRANCH 2 11
ATOM     11   O  A00 X   1      83.518  52.403 109.8010  0.00  0.00     0.000 O
ATOM     12   O  A00 X   1      85.498  51.604 110.9000  0.00  0.00     0.000 OA
ATOM     13   O  A00 X   1      85.225  53.992 110.5270  0.00  0.00     0.000 OA
ATOM     14   O  A00 X   1      85.570  52.518 108.6920  0.00  0.00     0.000 OA
ATOM     15   S  A00 X   1      85.048  52.657 110.0250  0.00  0.00     0.000 S
ENDBRANCH 2 11
BRANCH 5 16
ATOM     16   C  A00 X   1      80.403  55.189 111.7700  0.00  0.00     0.000 C
ATOM     17   O  A00 X   1      80.095  56.169 111.1250  0.00  0.00     0.000 OA
ATOM     18   O  A00 X   1      81.095  55.329 112.7590  0.00  0.00     0.000 OA
ENDBRANCH 5 16
BRANCH 1 19
ATOM     19  O4  A00 X   2      81.743  54.924 108.8020  0.00  0.00     0.000 O
BRANCH 19 23
ATOM     20  C1  A00 X   2      80.267  53.675 104.9780  0.00  0.00     0.000 C
ATOM     21  C2  A00 X   2      81.799  53.642 105.1980  0.00  0.00     0.000 C
ATOM     22  C3  A00 X   2      82.139  53.691 106.7020  0.00  0.00     0.000 C
ATOM     23  C4  A00 X   2      81.462  54.908 107.3730  0.00  0.00     0.000 C
ATOM     24  C5  A00 X   2      79.942  54.835 107.0650  0.00  0.00     0.000 C
ATOM     25  O5  A00 X   2      79.754  54.870 105.6260  0.00  0.00     0.000 O
ATOM     26   O  A00 X   2      83.565  53.589 106.8560  0.00  0.00     0.000 O
ATOM     28  HD  A00 X   2      83.722  54.216 106.2800  0.00  0.00     0.000 HD
BRANCH 21 30
ATOM     28   N  A00 X   2      81.971  54.014 103.7900  0.00  0.00     0.000 N
ATOM     30  HD  A00 X   2      82.737  53.721 104.0680  0.00  0.00     0.000 HD
ATOM     30   O  A00 X   2      83.951  53.042 103.0190  0.00  0.00     0.000 OA
ATOM     31   S  A00 X   2      83.426  54.338 103.2640  0.00  0.00     0.000 S
ATOM     32   O  A00 X   2      83.194  55.127 102.0940  0.00  0.00     0.000 OA
ATOM     33   O  A00 X   2      84.075  55.122 104.2720  0.00  0.00     0.000 OA
ENDBRANCH 21 30
BRANCH 24 34
ATOM     34   C  A00 X   2      79.002  55.810 107.8130  0.00  0.00     0.000 C
ATOM     35   O  A00 X   2      79.310  59.436 107.6940  0.00  0.00     0.000 OA
ATOM     36   O  A00 X   2      79.565  57.136 107.8730  0.00  0.00     0.000 O
ATOM     37   O  A00 X   2      79.088  58.065 105.7800  0.00  0.00     0.000 OA
ATOM     38   S  A00 X   2      78.726  58.253 107.1510  0.00  0.00     0.000 S
ATOM     39   O  A00 X   2      77.359  58.031 107.5130  0.00  0.00     0.000 OA
ENDBRANCH 24 34
BRANCH 20 40
ATOM     40  O4  A00 X   3      79.754  52.512 105.6430  0.00  0.00     0.000 O
BRANCH 40 44
ATOM     41  C1  A00 X   3      77.214  51.070 107.7860  0.00  0.00     0.000 C
ATOM     42  C2  A00 X   3      78.418  50.297 107.2060  0.00  0.00     0.000 C
ATOM     43  C3  A00 X   3      78.527  50.508 105.6740  0.00  0.00     0.000 C
ATOM     44  C4  A00 X   3      78.483  51.965 105.2300  0.00  0.00     0.000 C
ATOM     45  C5  A00 X   3      77.244  52.672 105.8490  0.00  0.00     0.000 C
ATOM     46  O5  A00 X   3      77.176  52.438 107.2930  0.00  0.00     0.000 O
ATOM     47   O  A00 X   3      79.555  49.770 105.0150  0.00  0.00     0.000 O
ATOM     49  HD  A00 X   3      79.637  50.505 104.5630  0.00  0.00     0.000 HD
BRANCH 42 49
ATOM     49   O  A00 X   3      79.598  50.775 107.8900  0.00  0.00     0.000 O
ATOM     50   O  A00 X   3      81.951  50.352 107.7860  0.00  0.00     0.000 OA
ATOM     51   O  A00 X   3      80.456  48.527 107.6380  0.00  0.00     0.000 OA
ATOM     52   O  A00 X   3      80.626  49.679 109.6940  0.00  0.00     0.000 OA
ATOM     53   S  A00 X   3      80.735  49.787 108.2800  0.00  0.00     0.000 S
ENDBRANCH 42 49
BRANCH 45 54
ATOM     54   C  A00 X   3      75.951  52.298 105.1150  0.00  0.00     0.000 C
ATOM     55   O  A00 X   3      74.938  52.946 105.2770  0.00  0.00     0.000 OA
ATOM     56   O  A00 X   3      75.917  51.340 104.3580  0.00  0.00     0.000 OA
ENDBRANCH 45 54
BRANCH 41 57
ATOM     57  O4  A00 X   4      75.977  50.346 107.6050  0.00  0.00     0.000 O
BRANCH 57 61
ATOM     58  C1  A00 X   4      72.342  50.113 109.9220  0.00  0.00     0.000 C
ATOM     59  C2  A00 X   4      72.769  51.487 109.3480  0.00  0.00     0.000 C
ATOM     60  C3  A00 X   4      73.857  51.388 108.2600  0.00  0.00     0.000 C
ATOM     61  C4  A00 X   4      75.021  50.472 108.6950  0.00  0.00     0.000 C
ATOM     62  C5  A00 X   4      74.393  49.094 109.0200  0.00  0.00     0.000 C
ATOM     63  O5  A00 X   4      73.474  49.238 110.1330  0.00  0.00     0.000 O
BRANCH 59 66
ATOM     64   N  A00 X   4      73.351  52.298 110.4330  0.00  0.00     0.000 N
ATOM     66  HD  A00 X   4      73.719  51.876 111.0940  0.00  0.00     0.000 HD
ATOM     66   O  A00 X   4      71.104  52.895 111.0580  0.00  0.00     0.000 OA
ATOM     67   S  A00 X   4      72.434  53.413 111.1210  0.00  0.00     0.000 S
ATOM     68   O  A00 X   4      73.019  53.457 112.4300  0.00  0.00     0.000 OA
ATOM     69   O  A00 X   4      72.752  54.545 110.2970  0.00  0.00     0.000 OA
ENDBRANCH 59 66
BRANCH 62 70
ATOM     70   C  A00 X   4      75.425  47.997 109.3740  0.00  0.00     0.000 C
ATOM     71   O  A00 X   4      77.526  47.731 112.3110  0.00  0.00     0.000 OA
ATOM     72   O  A00 X   4      78.057  47.553 110.0240  0.00  0.00     0.000 OA
ATOM     73   O  A00 X   4      75.842  48.160 110.7390  0.00  0.00     0.000 O
ATOM     74   O  A00 X   4      77.635  49.748 110.9940  0.00  0.00     0.000 OA
ATOM     75   S  A00 X   4      77.373  48.345 111.0220  0.00  0.00     0.000 S
ENDBRANCH 62 70
ENDBRANCH 57 61
ENDBRANCH 41 57
ENDBRANCH 40 44
ENDBRANCH 20 40
ENDBRANCH 19 23
ENDBRANCH 1 19
TORSDOF 14
ENDMDL
MODEL 59
REMARK VINA RESULT:       0.0    107.200    111.694
ROOT
ATOM      1  C1  A00 X   1      93.001  50.958  44.8240  0.00  0.00     0.000 C
ATOM      2  C2  A00 X   1      94.206  51.937  44.8040  0.00  0.00     0.000 C
ATOM      3  C3  A00 X   1      94.195  53.018  43.6740  0.00  0.00     0.000 C
ATOM      4  C4  A00 X   1      93.202  52.760  42.5110  0.00  0.00     0.000 C
ATOM      5  C5  A00 X   1      92.824  51.284  42.3920  0.00  0.00     0.000 C
ATOM      6  O5  A00 X   1      92.164  50.972  43.6400  0.00  0.00     0.000 O
ATOM      7   O  A00 X   1      95.494  53.082  43.0900  0.00  0.00     0.000 O
ATOM      9  HD  A00 X   1      94.921  53.133  42.4430  0.00  0.00     0.000 HD
ATOM      9   O  A00 X   1      92.022  53.551  42.6480  0.00  0.00     0.000 O
ATOM     11  HD  A00 X   1      91.449  53.601  42.0010  0.00  0.00     0.000 HD
ENDROOT
BRANCH 2 11
ATOM     11   O  A00 X   1      94.256  52.596  46.0840  0.00  0.00     0.000 O
ATOM     12   O  A00 X   1      96.007  54.138  46.6510  0.00  0.00     0.000 OA
ATOM     13   O  A00 X   1      96.562  51.806  46.2390  0.00  0.00     0.000 OA
ATOM     14   O  A00 X   1      95.306  52.425  48.1620  0.00  0.00     0.000 OA
ATOM     15   S  A00 X   1      95.640  52.753  46.8030  0.00  0.00     0.000 S
ENDBRANCH 2 11
BRANCH 5 16
ATOM     16   C  A00 X   1      93.985  50.341  42.0610  0.00  0.00     0.000 C
ATOM     17   O  A00 X   1      93.805  49.144  42.1460  0.00  0.00     0.000 OA
ATOM     18   O  A00 X   1      95.075  50.749  41.7110  0.00  0.00     0.000 OA
ENDBRANCH 5 16
BRANCH 1 19
ATOM     19  O4  A00 X   2      93.380  49.608  45.1870  0.00  0.00     0.000 O
BRANCH 19 23
ATOM     20  C1  A00 X   2      89.797  48.880  47.4220  0.00  0.00     0.000 C
ATOM     21  C2  A00 X   2      91.063  49.285  48.2140  0.00  0.00     0.000 C
ATOM     22  C3  A00 X   2      92.115  49.921  47.2820  0.00  0.00     0.000 C
ATOM     23  C4  A00 X   2      92.425  48.985  46.0930  0.00  0.00     0.000 C
ATOM     24  C5  A00 X   2      91.080  48.640  45.3970  0.00  0.00     0.000 C
ATOM     25  O5  A00 X   2      90.212  47.984  46.3570  0.00  0.00     0.000 O
ATOM     26   O  A00 X   2      93.240  50.341  48.0730  0.00  0.00     0.000 O
ATOM     28  HD  A00 X   2      93.311  49.575  48.4700  0.00  0.00     0.000 HD
BRANCH 21 30
ATOM     28   N  A00 X   2      90.618  48.408  49.3020  0.00  0.00     0.000 N
ATOM     30  HD  A00 X   2      91.229  48.926  49.6320  0.00  0.00     0.000 HD
ATOM     30   O  A00 X   2      91.345  49.329  51.3220  0.00  0.00     0.000 OA
ATOM     31   S  A00 X   2      91.583  48.174  50.5310  0.00  0.00     0.000 S
ATOM     32   O  A00 X   2      91.117  46.946  51.0980  0.00  0.00     0.000 OA
ATOM     33   O  A00 X   2      92.906  48.008  50.0050  0.00  0.00     0.000 OA
ENDBRANCH 21 30
BRANCH 24 34
ATOM     34   C  A00 X   2      91.134  47.901  44.0390  0.00  0.00     0.000 C
ATOM     35   O  A00 X   2      92.725  44.665  43.5380  0.00  0.00     0.000 OA
ATOM     36   O  A00 X   2      92.112  46.842  44.0580  0.00  0.00     0.000 O
ATOM     37   O  A00 X   2      91.029  45.070  45.1360  0.00  0.00     0.000 OA
ATOM     38   S  A00 X   2      91.538  45.395  43.8380  0.00  0.00     0.000 S
ATOM     39   O  A00 X   2      90.597  45.492  42.7620  0.00  0.00     0.000 OA
ENDBRANCH 24 34
BRANCH 20 40
ATOM     40  O4  A00 X   3      89.289  50.097  46.8550  0.00  0.00     0.000 O
BRANCH 40 44
ATOM     41  C1  A00 X   3      87.881  51.791  43.9790  0.00  0.00     0.000 C
ATOM     42  C2  A00 X   3      88.199  52.467  45.3300  0.00  0.00     0.000 C
ATOM     43  C3  A00 X   3      87.580  51.671  46.5080  0.00  0.00     0.000 C
ATOM     44  C4  A00 X   3      87.892  50.180  46.4990  0.00  0.00     0.000 C
ATOM     45  C5  A00 X   3      87.542  49.572  45.1110  0.00  0.00     0.000 C
ATOM     46  O5  A00 X   3      88.137  50.360  44.0300  0.00  0.00     0.000 O
ATOM     47   O  A00 X   3      87.737  52.252  47.8020  0.00  0.00     0.000 O
ATOM     49  HD  A00 X   3      87.857  51.426  48.0340  0.00  0.00     0.000 HD
BRANCH 42 49
ATOM     49   O  A00 X   3      89.638  52.538  45.4390  0.00  0.00     0.000 O
ATOM     50   O  A00 X   3      91.216  53.297  47.0720  0.00  0.00     0.000 OA
ATOM     51   O  A00 X   3      89.279  54.592  46.6690  0.00  0.00     0.000 OA
ATOM     52   O  A00 X   3      90.915  54.452  44.9690  0.00  0.00     0.000 OA
ATOM     53   S  A00 X   3      90.317  53.787  46.0740  0.00  0.00     0.000 S
ENDBRANCH 42 49
BRANCH 45 54
ATOM     54   C  A00 X   3      86.031  49.367  44.9470  0.00  0.00     0.000 C
ATOM     55   O  A00 X   3      85.590  48.748  44.0000  0.00  0.00     0.000 OA
ATOM     56   O  A00 X   3      85.246  49.823  45.7640  0.00  0.00     0.000 OA
ENDBRANCH 45 54
BRANCH 41 57
ATOM     57  O4  A00 X   4      86.558  52.134  43.5080  0.00  0.00     0.000 O
BRANCH 57 61
ATOM     58  C1  A00 X   4      84.906  52.731  39.5650  0.00  0.00     0.000 C
ATOM     59  C2  A00 X   4      85.485  51.340  39.9230  0.00  0.00     0.000 C
ATOM     60  C3  A00 X   4      85.709  51.138  41.4360  0.00  0.00     0.000 C
ATOM     61  C4  A00 X   4      86.447  52.336  42.0710  0.00  0.00     0.000 C
ATOM     62  C5  A00 X   4      85.585  53.587  41.7700  0.00  0.00     0.000 C
ATOM     63  O5  A00 X   4      85.521  53.789  40.3350  0.00  0.00     0.000 O
BRANCH 59 66
ATOM     64   N  A00 X   4      86.811  51.178  39.2990  0.00  0.00     0.000 N
ATOM     66  HD  A00 X   4      87.272  51.895  39.1490  0.00  0.00     0.000 HD
ATOM     66   O  A00 X   4      85.670  50.559  37.2710  0.00  0.00     0.000 OA
ATOM     67   S  A00 X   4      86.912  50.336  37.9430  0.00  0.00     0.000 S
ATOM     68   O  A00 X   4      88.058  50.953  37.3410  0.00  0.00     0.000 OA
ATOM     69   O  A00 X   4      87.160  49.027  38.4760  0.00  0.00     0.000 OA
ENDBRANCH 59 66
BRANCH 62 70
ATOM     70   C  A00 X   4      86.109  54.888  42.4260  0.00  0.00     0.000 C
ATOM     71   O  A00 X   4      89.094  56.777  41.6320  0.00  0.00     0.000 OA
ATOM     72   O  A00 X   4      88.264  56.017  43.7010  0.00  0.00     0.000 OA
ATOM     73   O  A00 X   4      87.186  55.417  41.6360  0.00  0.00     0.000 O
ATOM     74   O  A00 X   4      89.320  54.438  42.1750  0.00  0.00     0.000 OA
ATOM     75   S  A00 X   4      88.570  55.641  42.3380  0.00  0.00     0.000 S
ENDBRANCH 62 70
ENDBRANCH 57 61
ENDBRANCH 41 57
ENDBRANCH 40 44
ENDBRANCH 20 40
ENDBRANCH 19 23
ENDBRANCH 1 19
TORSDOF 14
ENDMDL
MODEL 60
REMARK VINA RESULT:       0.0     70.662     76.675
ROOT
ATOM      1  C1  A00 X   1      52.086  54.458  58.6280  0.00  0.00     0.000 C
ATOM      2  C2  A00 X   1      51.792  53.217  57.7440  0.00  0.00     0.000 C
ATOM      3  C3  A00 X   1      50.361  52.601  57.8770  0.00  0.00     0.000 C
ATOM      4  C4  A00 X   1      49.548  53.060  59.1160  0.00  0.00     0.000 C
ATOM      5  C5  A00 X   1      50.449  53.577  60.2380  0.00  0.00     0.000 C
ATOM      6  O5  A00 X   1      51.117  54.726  59.6720  0.00  0.00     0.000 O
ATOM      7   O  A00 X   1      50.480  51.183  57.9740  0.00  0.00     0.000 O
ATOM      9  HD  A00 X   1      49.874  51.428  58.5430  0.00  0.00     0.000 HD
ATOM      9   O  A00 X   1      48.588  54.057  58.7700  0.00  0.00     0.000 O
ATOM     11  HD  A00 X   1      47.983  54.302  59.3390  0.00  0.00     0.000 HD
ENDROOT
BRANCH 2 11
ATOM     11   O  A00 X   1      52.015  53.594  56.3710  0.00  0.00     0.000 O
ATOM     12   O  A00 X   1      51.857  52.006  54.5760  0.00  0.00     0.000 OA
ATOM     13   O  A00 X   1      53.586  51.726  56.2640  0.00  0.00     0.000 OA
ATOM     14   O  A00 X   1      53.679  53.544  54.7340  0.00  0.00     0.000 OA
ATOM     15   S  A00 X   1      52.827  52.627  55.4420  0.00  0.00     0.000 S
ENDBRANCH 2 11
BRANCH 5 16
ATOM     16   C  A00 X   1      51.409  52.539  60.8280  0.00  0.00     0.000 C
ATOM     17   O  A00 X   1      52.286  52.918  61.5770  0.00  0.00     0.000 OA
ATOM     18   O  A00 X   1      51.320  51.353  60.5790  0.00  0.00     0.000 OA
ENDBRANCH 5 16
BRANCH 1 19
ATOM     19  O4  A00 X   2      53.438  54.471  59.1470  0.00  0.00     0.000 O
BRANCH 19 23
ATOM     20  C1  A00 X   2      53.865  58.719  58.7780  0.00  0.00     0.000 C
ATOM     21  C2  A00 X   2      54.466  57.840  57.6540  0.00  0.00     0.000 C
ATOM     22  C3  A00 X   2      53.872  56.416  57.6930  0.00  0.00     0.000 C
ATOM     23  C4  A00 X   2      54.043  55.795  59.0980  0.00  0.00     0.000 C
ATOM     24  C5  A00 X   2      53.420  56.774  60.1300  0.00  0.00     0.000 C
ATOM     25  O5  A00 X   2      54.112  58.047  60.0420  0.00  0.00     0.000 O
ATOM     26   O  A00 X   2      54.409  55.663  56.5930  0.00  0.00     0.000 O
ATOM     28  HD  A00 X   2      55.227  55.877  56.7790  0.00  0.00     0.000 HD
BRANCH 21 30
ATOM     28   N  A00 X   2      55.552  58.816  57.5210  0.00  0.00     0.000 N
ATOM     30  HD  A00 X   2      55.570  58.323  56.8100  0.00  0.00     0.000 HD
ATOM     30   O  A00 X   2      56.232  58.848  55.2860  0.00  0.00     0.000 OA
ATOM     31   S  A00 X   2      56.757  58.482  56.5540  0.00  0.00     0.000 S
ATOM     32   O  A00 X   2      57.816  59.316  57.0330  0.00  0.00     0.000 OA
ATOM     33   O  A00 X   2      57.086  57.101  56.7480  0.00  0.00     0.000 OA
ENDBRANCH 21 30
BRANCH 24 34
ATOM     34   C  A00 X   2      53.255  56.284  61.5870  0.00  0.00     0.000 C
ATOM     35   O  A00 X   2      56.006  55.136  63.6790  0.00  0.00     0.000 OA
ATOM     36   O  A00 X   2      54.426  55.571  62.0350  0.00  0.00     0.000 O
ATOM     37   O  A00 X   2      55.940  57.253  62.6270  0.00  0.00     0.000 OA
ATOM     38   S  A00 X   2      55.178  56.218  63.2560  0.00  0.00     0.000 S
ATOM     39   O  A00 X   2      54.168  56.612  64.1910  0.00  0.00     0.000 OA
ENDBRANCH 24 34
BRANCH 20 40
ATOM     40  O4  A00 X   3      52.453  58.760  58.5240  0.00  0.00     0.000 O
BRANCH 40 44
ATOM     41  C1  A00 X   3      49.090  58.583  59.8590  0.00  0.00     0.000 C
ATOM     42  C2  A00 X   3      49.435  58.754  58.3640  0.00  0.00     0.000 C
ATOM     43  C3  A00 X   3      50.441  59.916  58.1560  0.00  0.00     0.000 C
ATOM     44  C4  A00 X   3      51.673  59.855  59.0510  0.00  0.00     0.000 C
ATOM     45  C5  A00 X   3      51.244  59.688  60.5360  0.00  0.00     0.000 C
ATOM     46  O5  A00 X   3      50.288  58.589  60.6840  0.00  0.00     0.000 O
ATOM     47   O  A00 X   3      50.767  60.223  56.8020  0.00  0.00     0.000 O
ATOM     49  HD  A00 X   3      51.558  60.334  57.1360  0.00  0.00     0.000 HD
BRANCH 42 49
ATOM     49   O  A00 X   3      49.980  57.497  57.9090  0.00  0.00     0.000 O
ATOM     50   O  A00 X   3      50.884  56.638  55.8650  0.00  0.00     0.000 OA
ATOM     51   O  A00 X   3      48.964  58.015  55.7750  0.00  0.00     0.000 OA
ATOM     52   O  A00 X   3      48.764  55.865  56.7370  0.00  0.00     0.000 OA
ATOM     53   S  A00 X   3      49.638  56.959  56.4890  0.00  0.00     0.000 S
ENDBRANCH 42 49
BRANCH 45 54
ATOM     54   C  A00 X   3      50.743  61.008  61.1340  0.00  0.00     0.000 C
ATOM     55   O  A00 X   3      50.599  61.129  62.3330  0.00  0.00     0.000 OA
ATOM     56   O  A00 X   3      50.477  61.959  60.4150  0.00  0.00     0.000 OA
ENDBRANCH 45 54
BRANCH 41 57
ATOM     57  O4  A00 X   4      48.080  59.526  60.2850  0.00  0.00     0.000 O
BRANCH 57 61
ATOM     58  C1  A00 X   4      44.907  59.313  63.2050  0.00  0.00     0.000 C
ATOM     59  C2  A00 X   4      46.371  59.160  63.6890  0.00  0.00     0.000 C
ATOM     60  C3  A00 X   4      47.413  59.606  62.6430  0.00  0.00     0.000 C
ATOM     61  C4  A00 X   4      47.120  59.009  61.2500  0.00  0.00     0.000 C
ATOM     62  C5  A00 X   4      45.687  59.462  60.8750  0.00  0.00     0.000 C
ATOM     63  O5  A00 X   4      44.746  58.904  61.8280  0.00  0.00     0.000 O
BRANCH 59 66
ATOM     64   N  A00 X   4      46.684  57.747  63.9690  0.00  0.00     0.000 N
ATOM     66  HD  A00 X   4      46.248  57.146  63.5240  0.00  0.00     0.000 HD
ATOM     66   O  A00 X   4      45.622  58.040  66.1100  0.00  0.00     0.000 OA
ATOM     67   S  A00 X   4      46.635  57.247  65.4870  0.00  0.00     0.000 S
ATOM     68   O  A00 X   4      46.305  55.865  65.2940  0.00  0.00     0.000 OA
ATOM     69   O  A00 X   4      47.998  57.478  65.8740  0.00  0.00     0.000 OA
ENDBRANCH 59 66
BRANCH 62 70
ATOM     70   C  A00 X   4      45.246  59.049  59.4500  0.00  0.00     0.000 C
ATOM     71   O  A00 X   4      44.516  55.739  58.1790  0.00  0.00     0.000 OA
ATOM     72   O  A00 X   4      45.879  57.451  57.3080  0.00  0.00     0.000 OA
ATOM     73   O  A00 X   4      44.830  57.674  59.4610  0.00  0.00     0.000 O
ATOM     74   O  A00 X   4      46.663  56.132  59.2020  0.00  0.00     0.000 OA
ATOM     75   S  A00 X   4      45.555  56.680  58.4890  0.00  0.00     0.000 S
ENDBRANCH 62 70
ENDBRANCH 57 61
ENDBRANCH 41 57
ENDBRANCH 40 44
ENDBRANCH 20 40
ENDBRANCH 19 23
ENDBRANCH 1 19
TORSDOF 14
ENDMDL
MODEL 61
REMARK VINA RESULT:       0.0     88.443     93.324
ROOT
ATOM      1  C1  A00 X   1      95.751  38.682 103.1220  0.00  0.00     0.000 C
ATOM      2  C2  A00 X   1      95.481  38.078 104.5260  0.00  0.00     0.000 C
ATOM      3  C3  A00 X   1      96.744  37.746 105.3860  0.00  0.00     0.000 C
ATOM      4  C4  A00 X   1      98.088  37.710 104.6140  0.00  0.00     0.000 C
ATOM      5  C5  A00 X   1      97.888  37.466 103.1180  0.00  0.00     0.000 C
ATOM      6  O5  A00 X   1      97.122  38.602 102.6600  0.00  0.00     0.000 O
ATOM      7   O  A00 X   1      96.576  36.454 105.9660  0.00  0.00     0.000 O
ATOM      9  HD  A00 X   1      97.399  36.510 105.7000  0.00  0.00     0.000 HD
ATOM      9   O  A00 X   1      98.835  38.911 104.8100  0.00  0.00     0.000 O
ATOM     11  HD  A00 X   1      99.657  38.966 104.5440  0.00  0.00     0.000 HD
ENDROOT
BRANCH 2 11
ATOM     11   O  A00 X   1      94.651  39.007 105.2510  0.00  0.00     0.000 O
ATOM     12   O  A00 X   1      94.157  38.717 107.5830  0.00  0.00     0.000 OA
ATOM     13   O  A00 X   1      93.366  37.063 105.9840  0.00  0.00     0.000 OA
ATOM     14   O  A00 X   1      92.453  39.259 105.9970  0.00  0.00     0.000 OA
ATOM     15   S  A00 X   1      93.607  38.449 106.2780  0.00  0.00     0.000 S
ENDBRANCH 2 11
BRANCH 5 16
ATOM     16   C  A00 X   1      97.256  36.116 102.7610  0.00  0.00     0.000 C
ATOM     17   O  A00 X   1      96.877  35.935 101.6220  0.00  0.00     0.000 OA
ATOM     18   O  A00 X   1      97.128  35.222 103.5730  0.00  0.00     0.000 OA
ENDBRANCH 5 16
BRANCH 1 19
ATOM     19  O4  A00 X   2      94.825  38.202 102.1170  0.00  0.00     0.000 O
BRANCH 19 23
ATOM     20  C1  A00 X   2      94.463  42.012 100.1900  0.00  0.00     0.000 C
ATOM     21  C2  A00 X   2      93.357  41.613 101.1970  0.00  0.00     0.000 C
ATOM     22  C3  A00 X   2      93.832  40.460 102.1060  0.00  0.00     0.000 C
ATOM     23  C4  A00 X   2      94.330  39.268 101.2580  0.00  0.00     0.000 C
ATOM     24  C5  A00 X   2      95.415  39.801 100.2820  0.00  0.00     0.000 C
ATOM     25  O5  A00 X   2      94.824  40.823  99.4380  0.00  0.00     0.000 O
ATOM     26   O  A00 X   2      92.800  40.173 103.0650  0.00  0.00     0.000 O
ATOM     28  HD  A00 X   2      92.183  40.121 102.4600  0.00  0.00     0.000 HD
BRANCH 21 30
ATOM     28   N  A00 X   2      92.388  42.321 100.3550  0.00  0.00     0.000 N
ATOM     30  HD  A00 X   2      92.007  42.192 101.1210  0.00  0.00     0.000 HD
ATOM     30   O  A00 X   2      90.717  43.186 101.7390  0.00  0.00     0.000 OA
ATOM     31   S  A00 X   2      90.852  42.215 100.7120  0.00  0.00     0.000 S
ATOM     32   O  A00 X   2      90.196  42.539  99.4830  0.00  0.00     0.000 OA
ATOM     33   O  A00 X   2      90.594  40.852 101.0690  0.00  0.00     0.000 OA
ENDBRANCH 21 30
BRANCH 24 34
ATOM     34   C  A00 X   2      96.239  38.767  99.4790  0.00  0.00     0.000 C
ATOM     35   O  A00 X   2      96.211  38.511  95.8470  0.00  0.00     0.000 OA
ATOM     36   O  A00 X   2      95.768  38.664  98.1210  0.00  0.00     0.000 O
ATOM     37   O  A00 X   2      96.738  40.491  97.0290  0.00  0.00     0.000 OA
ATOM     38   S  A00 X   2      96.814  39.062  97.0160  0.00  0.00     0.000 S
ATOM     39   O  A00 X   2      98.056  38.460  97.3990  0.00  0.00     0.000 OA
ENDBRANCH 24 34
BRANCH 20 40
ATOM     40  O4  A00 X   3      95.579  42.434 100.9870  0.00  0.00     0.000 O
BRANCH 40 44
ATOM     41  C1  A00 X   3      99.156  42.342 101.5510  0.00  0.00     0.000 C
ATOM     42  C2  A00 X   3      98.143  43.086 102.4470  0.00  0.00     0.000 C
ATOM     43  C3  A00 X   3      97.220  44.000 101.6000  0.00  0.00     0.000 C
ATOM     44  C4  A00 X   3      96.569  43.311 100.4070  0.00  0.00     0.000 C
ATOM     45  C5  A00 X   3      97.650  42.591  99.5540  0.00  0.00     0.000 C
ATOM     46  O5  A00 X   3      98.504  41.749 100.3940  0.00  0.00     0.000 O
ATOM     47   O  A00 X   3      96.298  44.804 102.3330  0.00  0.00     0.000 O
ATOM     49  HD  A00 X   3      95.771  44.600 101.6770  0.00  0.00     0.000 HD
BRANCH 42 49
ATOM     49   O  A00 X   3      97.385  42.080 103.1550  0.00  0.00     0.000 O
ATOM     50   O  A00 X   3      95.575  42.058 104.7210  0.00  0.00     0.000 OA
ATOM     51   O  A00 X   3      97.285  43.671 104.9760  0.00  0.00     0.000 OA
ATOM     52   O  A00 X   3      97.812  41.400 105.3610  0.00  0.00     0.000 OA
ATOM     53   S  A00 X   3      96.981  42.302 104.6420  0.00  0.00     0.000 S
ENDBRANCH 42 49
BRANCH 45 54
ATOM     54   C  A00 X   3      98.442  43.579  98.6890  0.00  0.00     0.000 C
ATOM     55   O  A00 X   3      98.322  44.776  98.8500  0.00  0.00     0.000 OA
ATOM     56   O  A00 X   3      99.204  43.180  97.8220  0.00  0.00     0.000 OA
ENDBRANCH 45 54
BRANCH 41 57
ATOM     57  O4  A00 X   4     100.291  43.174 101.2230  0.00  0.00     0.000 O
BRANCH 57 61
ATOM     58  C1  A00 X   4     104.475  42.322 100.5820  0.00  0.00     0.000 C
ATOM     59  C2  A00 X   4     103.433  41.675  99.6360  0.00  0.00     0.000 C
ATOM     60  C3  A00 X   4     102.035  42.321  99.7260  0.00  0.00     0.000 C
ATOM     61  C4  A00 X   4     101.574  42.486 101.1900  0.00  0.00     0.000 C
ATOM     62  C5  A00 X   4     102.658  43.339 101.8950  0.00  0.00     0.000 C
ATOM     63  O5  A00 X   4     103.916  42.617 101.8830  0.00  0.00     0.000 O
BRANCH 59 66
ATOM     64   N  A00 X   4     103.028  40.258  99.5890  0.00  0.00     0.000 N
ATOM     66  HD  A00 X   4     102.932  39.845 100.3440  0.00  0.00     0.000 HD
ATOM     66   O  A00 X   4     105.218  39.765  98.7180  0.00  0.00     0.000 OA
ATOM     67   S  A00 X   4     103.883  39.256  98.6820  0.00  0.00     0.000 S
ATOM     68   O  A00 X   4     103.673  38.025  99.3880  0.00  0.00     0.000 OA
ATOM     69   O  A00 X   4     103.161  39.355  97.4460  0.00  0.00     0.000 OA
ENDBRANCH 59 66
BRANCH 62 70
ATOM     70   C  A00 X   4     102.318  43.709 103.3580  0.00  0.00     0.000 C
ATOM     71   O  A00 X   4     102.184  41.553 106.2640  0.00  0.00     0.000 OA
ATOM     72   O  A00 X   4     100.642  43.140 105.4590  0.00  0.00     0.000 OA
ATOM     73   O  A00 X   4     102.627  42.597 104.2140  0.00  0.00     0.000 O
ATOM     74   O  A00 X   4     100.842  40.983 104.3430  0.00  0.00     0.000 OA
ATOM     75   S  A00 X   4     101.475  42.013 105.1030  0.00  0.00     0.000 S
ENDBRANCH 62 70
ENDBRANCH 57 61
ENDBRANCH 41 57
ENDBRANCH 40 44
ENDBRANCH 20 40
ENDBRANCH 19 23
ENDBRANCH 1 19
TORSDOF 14
ENDMDL
MODEL 62
REMARK VINA RESULT:       0.0     14.855     19.776
ROOT
ATOM      1  C1  A00 X   1      17.327  36.354  99.6450  0.00  0.00     0.000 C
ATOM      2  C2  A00 X   1      17.921  35.411  98.5650  0.00  0.00     0.000 C
ATOM      3  C3  A00 X   1      18.849  34.265  99.0890  0.00  0.00     0.000 C
ATOM      4  C4  A00 X   1      19.352  34.426 100.5470  0.00  0.00     0.000 C
ATOM      5  C5  A00 X   1      19.315  35.882 101.0120  0.00  0.00     0.000 C
ATOM      6  O5  A00 X   1      17.918  36.247 100.9640  0.00  0.00     0.000 O
ATOM      7   O  A00 X   1      20.010  34.203  98.2640  0.00  0.00     0.000 O
ATOM      9  HD  A00 X   1      20.272  34.099  99.0830  0.00  0.00     0.000 HD
ATOM      9   O  A00 X   1      18.605  33.612 101.4500  0.00  0.00     0.000 O
ATOM     11  HD  A00 X   1      18.868  33.507 102.2690  0.00  0.00     0.000 HD
ENDROOT
BRANCH 2 11
ATOM     11   O  A00 X   1      16.822  34.829  97.8380  0.00  0.00     0.000 O
ATOM     12   O  A00 X   1      17.150  33.081  96.2240  0.00  0.00     0.000 OA
ATOM     13   O  A00 X   1      18.114  35.277  95.8140  0.00  0.00     0.000 OA
ATOM     14   O  A00 X   1      15.756  34.968  95.7650  0.00  0.00     0.000 OA
ATOM     15   S  A00 X   1      17.005  34.512  96.3140  0.00  0.00     0.000 S
ENDBRANCH 2 11
BRANCH 5 16
ATOM     16   C  A00 X   1      20.226  36.835 100.2320  0.00  0.00     0.000 C
ATOM     17   O  A00 X   1      21.118  36.364  99.5560  0.00  0.00     0.000 OA
ATOM     18   O  A00 X   1      20.083  38.041 100.2590  0.00  0.00     0.000 OA
ENDBRANCH 5 16
BRANCH 1 19
ATOM     19  O4  A00 X   2      17.256  37.734  99.2080  0.00  0.00     0.000 O
BRANCH 19 23
ATOM     20  C1  A00 X   2      13.423  38.419 100.9960  0.00  0.00     0.000 C
ATOM     21  C2  A00 X   2      13.459  38.113  99.4790  0.00  0.00     0.000 C
ATOM     22  C3  A00 X   2      14.806  37.475  99.0790  0.00  0.00     0.000 C
ATOM     23  C4  A00 X   2      15.985  38.361  99.5410  0.00  0.00     0.000 C
ATOM     24  C5  A00 X   2      15.824  38.609 101.0660  0.00  0.00     0.000 C
ATOM     25  O5  A00 X   2      14.556  39.275 101.3000  0.00  0.00     0.000 O
ATOM     26   O  A00 X   2      14.764  37.148  97.6800  0.00  0.00     0.000 O
ATOM     28  HD  A00 X   2      14.489  37.937  97.4520  0.00  0.00     0.000 HD
BRANCH 21 30
ATOM     28   N  A00 X   2      12.325  39.026  99.3050  0.00  0.00     0.000 N
ATOM     30  HD  A00 X   2      12.380  38.553  98.5820  0.00  0.00     0.000 HD
ATOM     30   O  A00 X   2      11.030  38.246  97.5240  0.00  0.00     0.000 OA
ATOM     31   S  A00 X   2      11.843  39.366  97.8390  0.00  0.00     0.000 S
ATOM     32   O  A00 X   2      11.138  40.601  97.9920  0.00  0.00     0.000 OA
ATOM     33   O  A00 X   2      13.018  39.561  97.0420  0.00  0.00     0.000 OA
ENDBRANCH 21 30
BRANCH 24 34
ATOM     34   C  A00 X   2      16.997  39.277 101.8210  0.00  0.00     0.000 C
ATOM     35   O  A00 X   2      18.376  42.538 100.9740  0.00  0.00     0.000 OA
ATOM     36   O  A00 X   2      17.552  40.370 101.0630  0.00  0.00     0.000 O
ATOM     37   O  A00 X   2      16.095  42.155 101.4660  0.00  0.00     0.000 OA
ATOM     38   S  A00 X   2      17.447  41.782 101.7480  0.00  0.00     0.000 S
ATOM     39   O  A00 X   2      17.812  41.594 103.1200  0.00  0.00     0.000 OA
ENDBRANCH 24 34
BRANCH 20 40
ATOM     40  O4  A00 X   3      13.589  37.153 101.6510  0.00  0.00     0.000 O
BRANCH 40 44
ATOM     41  C1  A00 X   3      15.263  35.280 104.2610  0.00  0.00     0.000 C
ATOM     42  C2  A00 X   3      14.265  34.679 103.2480  0.00  0.00     0.000 C
ATOM     43  C3  A00 X   3      12.955  35.506 103.2020  0.00  0.00     0.000 C
ATOM     44  C4  A00 X   3      13.158  37.005 103.0210  0.00  0.00     0.000 C
ATOM     45  C5  A00 X   3      14.169  37.536 104.0770  0.00  0.00     0.000 C
ATOM     46  O5  A00 X   3      15.385  36.720 104.0940  0.00  0.00     0.000 O
ATOM     47   O  A00 X   3      11.923  34.992 102.3620  0.00  0.00     0.000 O
ATOM     49  HD  A00 X   3      11.806  35.832 102.1820  0.00  0.00     0.000 HD
BRANCH 42 49
ATOM     49   O  A00 X   3      14.925  34.662 101.9640  0.00  0.00     0.000 O
ATOM     50   O  A00 X   3      14.353  34.014  99.7310  0.00  0.00     0.000 OA
ATOM     51   O  A00 X   3      13.669  32.639 101.5280  0.00  0.00     0.000 OA
ATOM     52   O  A00 X   3      15.976  32.780 101.0310  0.00  0.00     0.000 OA
ATOM     53   S  A00 X   3      14.727  33.460 100.9940  0.00  0.00     0.000 S
ENDBRANCH 42 49
BRANCH 45 54
ATOM     54   C  A00 X   3      13.521  37.681 105.4590  0.00  0.00     0.000 C
ATOM     55   O  A00 X   3      14.126  38.202 106.3740  0.00  0.00     0.000 OA
ATOM     56   O  A00 X   3      12.388  37.275 105.6650  0.00  0.00     0.000 OA
ENDBRANCH 45 54
BRANCH 41 57
ATOM     57  O4  A00 X   4      14.963  34.870 105.6140  0.00  0.00     0.000 O
BRANCH 57 61
ATOM     58  C1  A00 X   4      17.435  34.103 109.0690  0.00  0.00     0.000 C
ATOM     59  C2  A00 X   4      17.436  35.526 108.4590  0.00  0.00     0.000 C
ATOM     60  C3  A00 X   4      16.271  35.776 107.4800  0.00  0.00     0.000 C
ATOM     61  C4  A00 X   4      16.124  34.627 106.4590  0.00  0.00     0.000 C
ATOM     62  C5  A00 X   4      15.925  33.332 107.2850  0.00  0.00     0.000 C
ATOM     63  O5  A00 X   4      17.108  33.092 108.0880  0.00  0.00     0.000 O
BRANCH 59 66
ATOM     64   N  A00 X   4      18.655  35.776 107.6680  0.00  0.00     0.000 N
ATOM     66  HD  A00 X   4      19.036  35.094 107.2950  0.00  0.00     0.000 HD
ATOM     66   O  A00 X   4      19.784  36.247 109.7420  0.00  0.00     0.000 OA
ATOM     67   S  A00 X   4      19.851  36.585 108.3550  0.00  0.00     0.000 S
ATOM     68   O  A00 X   4      20.972  36.046 107.6420  0.00  0.00     0.000 OA
ATOM     69   O  A00 X   4      19.501  37.925 107.9750  0.00  0.00     0.000 OA
ENDBRANCH 59 66
BRANCH 62 70
ATOM     70   C  A00 X   4      15.647  32.073 106.4300  0.00  0.00     0.000 C
ATOM     71   O  A00 X   4      17.899  30.301 104.2170  0.00  0.00     0.000 OA
ATOM     72   O  A00 X   4      15.701  31.072 103.8730  0.00  0.00     0.000 OA
ATOM     73   O  A00 X   4      16.887  31.573 105.9040  0.00  0.00     0.000 O
ATOM     74   O  A00 X   4      17.550  32.659 103.8580  0.00  0.00     0.000 OA
ATOM     75   S  A00 X   4      17.019  31.428 104.3480  0.00  0.00     0.000 S
ENDBRANCH 62 70
ENDBRANCH 57 61
ENDBRANCH 41 57
ENDBRANCH 40 44
ENDBRANCH 20 40
ENDBRANCH 19 23
ENDBRANCH 1 19
TORSDOF 14
ENDMDL
MODEL 63
REMARK VINA RESULT:       0.0    100.021    105.562
ROOT
ATOM      1  C1  A00 X   1      76.225  78.882  55.4190  0.00  0.00     0.000 C
ATOM      2  C2  A00 X   1      76.024  79.653  54.0870  0.00  0.00     0.000 C
ATOM      3  C3  A00 X   1      77.229  80.533  53.6140  0.00  0.00     0.000 C
ATOM      4  C4  A00 X   1      78.310  80.819  54.6880  0.00  0.00     0.000 C
ATOM      5  C5  A00 X   1      77.766  80.670  56.1090  0.00  0.00     0.000 C
ATOM      6  O5  A00 X   1      77.373  79.282  56.2080  0.00  0.00     0.000 O
ATOM      7   O  A00 X   1      76.732  81.801  53.1930  0.00  0.00     0.000 O
ATOM      9  HD  A00 X   1      77.458  81.947  53.6410  0.00  0.00     0.000 HD
ATOM      9   O  A00 X   1      79.450  79.977  54.5180  0.00  0.00     0.000 O
ATOM     11  HD  A00 X   1      80.177  80.124  54.9660  0.00  0.00     0.000 HD
ENDROOT
BRANCH 2 11
ATOM     11   O  A00 X   1      75.718  78.688  53.0620  0.00  0.00     0.000 O
ATOM     12   O  A00 X   1      75.174  79.347  50.8180  0.00  0.00     0.000 OA
ATOM     13   O  A00 X   1      73.697  79.994  52.6390  0.00  0.00     0.000 OA
ATOM     14   O  A00 X   1      73.886  77.712  51.9930  0.00  0.00     0.000 OA
ATOM     15   S  A00 X   1      74.547  78.987  52.0640  0.00  0.00     0.000 S
ENDBRANCH 2 11
BRANCH 5 16
ATOM     16   C  A00 X   1      76.650  81.651  56.4820  0.00  0.00     0.000 C
ATOM     17   O  A00 X   1      76.034  81.467  57.5110  0.00  0.00     0.000 OA
ATOM     18   O  A00 X   1      76.366  82.608  55.7890  0.00  0.00     0.000 OA
ENDBRANCH 5 16
BRANCH 1 19
ATOM     19  O4  A00 X   2      75.022  78.830  56.2240  0.00  0.00     0.000 O
BRANCH 19 23
ATOM     20  C1  A00 X   2      75.751  74.842  57.6130  0.00  0.00     0.000 C
ATOM     21  C2  A00 X   2      74.788  75.016  56.4140  0.00  0.00     0.000 C
ATOM     22  C3  A00 X   2      74.961  76.406  55.7680  0.00  0.00     0.000 C
ATOM     23  C4  A00 X   2      74.809  77.521  56.8270  0.00  0.00     0.000 C
ATOM     24  C5  A00 X   2      75.809  77.224  57.9770  0.00  0.00     0.000 C
ATOM     25  O5  A00 X   2      75.495  75.926  58.5450  0.00  0.00     0.000 O
ATOM     26   O  A00 X   2      74.097  76.493  54.6220  0.00  0.00     0.000 O
ATOM     28  HD  A00 X   2      73.402  76.221  55.0620  0.00  0.00     0.000 HD
BRANCH 21 30
ATOM     28   N  A00 X   2      74.011  73.881  56.9220  0.00  0.00     0.000 N
ATOM     30  HD  A00 X   2      73.762  74.009  56.1020  0.00  0.00     0.000 HD
ATOM     30   O  A00 X   2      73.078  72.763  55.0950  0.00  0.00     0.000 OA
ATOM     31   S  A00 X   2      72.644  73.521  56.2150  0.00  0.00     0.000 S
ATOM     32   O  A00 X   2      71.934  72.777  57.2090  0.00  0.00     0.000 OA
ATOM     33   O  A00 X   2      71.970  74.755  55.9420  0.00  0.00     0.000 OA
ENDBRANCH 21 30
BRANCH 24 34
ATOM     34   C  A00 X   2      76.021  78.313  59.0550  0.00  0.00     0.000 C
ATOM     35   O  A00 X   2      73.358  79.670  61.1340  0.00  0.00     0.000 OA
ATOM     36   O  A00 X   2      74.767  78.898  59.4590  0.00  0.00     0.000 O
ATOM     37   O  A00 X   2      73.874  77.367  60.9840  0.00  0.00     0.000 OA
ATOM     38   S  A00 X   2      74.392  78.701  60.9730  0.00  0.00     0.000 S
ATOM     39   O  A00 X   2      75.585  78.956  61.7230  0.00  0.00     0.000 OA
ENDBRANCH 24 34
BRANCH 20 40
ATOM     40  O4  A00 X   3      77.073  74.979  57.0710  0.00  0.00     0.000 O
BRANCH 40 44
ATOM     41  C1  A00 X   3      80.387  76.403  57.4090  0.00  0.00     0.000 C
ATOM     42  C2  A00 X   3      79.921  75.531  56.2230  0.00  0.00     0.000 C
ATOM     43  C3  A00 X   3      79.268  74.216  56.7230  0.00  0.00     0.000 C
ATOM     44  C4  A00 X   3      78.191  74.408  57.7840  0.00  0.00     0.000 C
ATOM     45  C5  A00 X   3      78.737  75.289  58.9430  0.00  0.00     0.000 C
ATOM     46  O5  A00 X   3      79.352  76.512  58.4250  0.00  0.00     0.000 O
ATOM     47   O  A00 X   3      78.876  73.291  55.7120  0.00  0.00     0.000 O
ATOM     49  HD  A00 X   3      78.197  73.177  56.2370  0.00  0.00     0.000 HD
BRANCH 42 49
ATOM     49   O  A00 X   3      78.989  76.324  55.4550  0.00  0.00     0.000 O
ATOM     50   O  A00 X   3      77.607  75.991  53.5290  0.00  0.00     0.000 OA
ATOM     51   O  A00 X   3      79.803  75.114  53.5240  0.00  0.00     0.000 OA
ATOM     52   O  A00 X   3      79.527  77.461  53.4730  0.00  0.00     0.000 OA
ATOM     53   S  A00 X   3      78.967  76.226  53.9020  0.00  0.00     0.000 S
ENDBRANCH 42 49
BRANCH 45 54
ATOM     54   C  A00 X   3      79.662  74.495  59.8720  0.00  0.00     0.000 C
ATOM     55   O  A00 X   3      80.062  73.394  59.5540  0.00  0.00     0.000 OA
ATOM     56   O  A00 X   3      80.012  74.954  60.9480  0.00  0.00     0.000 OA
ENDBRANCH 45 54
BRANCH 41 57
ATOM     57  O4  A00 X   4      81.668  75.968  57.9190  0.00  0.00     0.000 O
BRANCH 57 61
ATOM     58  C1  A00 X   4      84.994  78.078  59.6870  0.00  0.00     0.000 C
ATOM     59  C2  A00 X   4      83.620  78.129  60.4010  0.00  0.00     0.000 C
ATOM     60  C3  A00 X   4      82.623  77.069  59.8910  0.00  0.00     0.000 C
ATOM     61  C4  A00 X   4      82.557  77.038  58.3490  0.00  0.00     0.000 C
ATOM     62  C5  A00 X   4      84.000  76.766  57.8560  0.00  0.00     0.000 C
ATOM     63  O5  A00 X   4      84.858  77.863  58.2630  0.00  0.00     0.000 O
BRANCH 59 66
ATOM     64   N  A00 X   4      82.973  79.430  60.1560  0.00  0.00     0.000 N
ATOM     66  HD  A00 X   4      83.173  79.845  59.4230  0.00  0.00     0.000 HD
ATOM     66   O  A00 X   4      84.323  80.324  61.9380  0.00  0.00     0.000 OA
ATOM     67   S  A00 X   4      83.066  80.549  61.2960  0.00  0.00     0.000 S
ATOM     68   O  A00 X   4      82.984  81.737  60.4980  0.00  0.00     0.000 OA
ATOM     69   O  A00 X   4      81.873  80.254  62.0380  0.00  0.00     0.000 OA
ENDBRANCH 59 66
BRANCH 62 70
ATOM     70   C  A00 X   4      84.121  76.590  56.3240  0.00  0.00     0.000 C
ATOM     71   O  A00 X   4      83.731  79.078  53.7230  0.00  0.00     0.000 OA
ATOM     72   O  A00 X   4      82.799  76.927  53.9400  0.00  0.00     0.000 OA
ATOM     73   O  A00 X   4      84.136  77.883  55.6970  0.00  0.00     0.000 O
ATOM     74   O  A00 X   4      81.928  78.758  55.2910  0.00  0.00     0.000 OA
ATOM     75   S  A00 X   4      83.044  78.184  54.6120  0.00  0.00     0.000 S
ENDBRANCH 62 70
ENDBRANCH 57 61
ENDBRANCH 41 57
ENDBRANCH 40 44
ENDBRANCH 20 40
ENDBRANCH 19 23
ENDBRANCH 1 19
TORSDOF 14
ENDMDL
MODEL 64
REMARK VINA RESULT:       0.0      8.992     12.258
ROOT
ATOM      1  C1  A00 X   1       7.229  23.345 102.2480  0.00  0.00     0.000 C
ATOM      2  C2  A00 X   1       6.231  24.379 102.8330  0.00  0.00     0.000 C
ATOM      3  C3  A00 X   1       6.416  24.732 104.3460  0.00  0.00     0.000 C
ATOM      4  C4  A00 X   1       7.310  23.758 105.1550  0.00  0.00     0.000 C
ATOM      5  C5  A00 X   1       7.398  22.379 104.5030  0.00  0.00     0.000 C
ATOM      6  O5  A00 X   1       8.020  22.619 103.2200  0.00  0.00     0.000 O
ATOM      7   O  A00 X   1       5.137  24.727 104.9760  0.00  0.00     0.000 O
ATOM      9  HD  A00 X   1       5.692  24.346 105.5210  0.00  0.00     0.000 HD
ATOM      9   O  A00 X   1       8.622  24.288 105.3440  0.00  0.00     0.000 O
ATOM     11  HD  A00 X   1       9.176  23.906 105.8880  0.00  0.00     0.000 HD
ENDROOT
BRANCH 2 11
ATOM     11   O  A00 X   1       6.342  25.586 102.0530  0.00  0.00     0.000 O
ATOM     12   O  A00 X   1       5.211  27.610 102.6770  0.00  0.00     0.000 OA
ATOM     13   O  A00 X   1       3.900  25.652 102.0750  0.00  0.00     0.000 OA
ATOM     14   O  A00 X   1       5.181  26.797 100.4290  0.00  0.00     0.000 OA
ATOM     15   S  A00 X   1       5.061  26.460 101.8220  0.00  0.00     0.000 S
ENDBRANCH 2 11
BRANCH 5 16
ATOM     16   C  A00 X   1       6.070  21.620 104.4070  0.00  0.00     0.000 C
ATOM     17   O  A00 X   1       6.001  20.660 103.6690  0.00  0.00     0.000 OA
ATOM     18   O  A00 X   1       5.089  21.941 105.0480  0.00  0.00     0.000 OA
ENDBRANCH 5 16
BRANCH 1 19
ATOM     19  O4  A00 X   2       6.611  22.447 101.2930  0.00  0.00     0.000 O
BRANCH 19 23
ATOM     20  C1  A00 X   2       9.980  22.442  98.6440  0.00  0.00     0.000 C
ATOM     21  C2  A00 X   2       8.814  23.406  98.3160  0.00  0.00     0.000 C
ATOM     22  C3  A00 X   2       7.908  23.612  99.5480  0.00  0.00     0.000 C
ATOM     23  C4  A00 X   2       7.425  22.253 100.1010  0.00  0.00     0.000 C
ATOM     24  C5  A00 X   2       8.679  21.377 100.3710  0.00  0.00     0.000 C
ATOM     25  O5  A00 X   2       9.401  21.199  99.1250  0.00  0.00     0.000 O
ATOM     26   O  A00 X   2       6.884  24.565  99.2130  0.00  0.00     0.000 O
ATOM     28  HD  A00 X   2       6.665  24.149  98.4850  0.00  0.00     0.000 HD
BRANCH 21 30
ATOM     28   N  A00 X   2       9.080  23.181  96.8920  0.00  0.00     0.000 N
ATOM     30  HD  A00 X   2       8.580  23.886  96.9450  0.00  0.00     0.000 HD
ATOM     30   O  A00 X   2       8.539  25.137  95.7330  0.00  0.00     0.000 OA
ATOM     31   S  A00 X   2       8.085  23.795  95.8280  0.00  0.00     0.000 S
ATOM     32   O  A00 X   2       8.304  22.999  94.6600  0.00  0.00     0.000 OA
ATOM     33   O  A00 X   2       6.756  23.593  96.3250  0.00  0.00     0.000 OA
ENDBRANCH 21 30
BRANCH 24 34
ATOM     34   C  A00 X   2       8.486  20.051 101.1440  0.00  0.00     0.000 C
ATOM     35   O  A00 X   2       9.293  16.767  99.7950  0.00  0.00     0.000 OA
ATOM     36   O  A00 X   2       8.547  18.916 100.2570  0.00  0.00     0.000 O
ATOM     37   O  A00 X   2      10.836  18.554  99.9340  0.00  0.00     0.000 OA
ATOM     38   S  A00 X   2       9.716  17.904 100.5440  0.00  0.00     0.000 S
ATOM     39   O  A00 X   2       9.751  17.717 101.9640  0.00  0.00     0.000 OA
ENDBRANCH 24 34
BRANCH 20 40
ATOM     40  O4  A00 X   3      10.715  23.070  99.7050  0.00  0.00     0.000 O
BRANCH 40 44
ATOM     41  C1  A00 X   3      12.456  22.765 102.8670  0.00  0.00     0.000 C
ATOM     42  C2  A00 X   3      12.261  24.087 102.0930  0.00  0.00     0.000 C
ATOM     43  C3  A00 X   3      12.701  23.935 100.6150  0.00  0.00     0.000 C
ATOM     44  C4  A00 X   3      12.105  22.730  99.8970  0.00  0.00     0.000 C
ATOM     45  C5  A00 X   3      12.345  21.442 100.7330  0.00  0.00     0.000 C
ATOM     46  O5  A00 X   3      11.926  21.634 102.1230  0.00  0.00     0.000 O
ATOM     47   O  A00 X   3      12.646  25.121  99.8240  0.00  0.00     0.000 O
ATOM     49  HD  A00 X   3      12.365  24.569  99.2180  0.00  0.00     0.000 HD
BRANCH 42 49
ATOM     49   O  A00 X   3      10.863  24.435 102.1950  0.00  0.00     0.000 O
ATOM     50   O  A00 X   3       9.442  26.168 101.3520  0.00  0.00     0.000 OA
ATOM     51   O  A00 X   3      11.599  26.740 102.1340  0.00  0.00     0.000 OA
ATOM     52   O  A00 X   3       9.989  26.010 103.7020  0.00  0.00     0.000 OA
ATOM     53   S  A00 X   3      10.432  25.922 102.3540  0.00  0.00     0.000 S
ENDBRANCH 42 49
BRANCH 45 54
ATOM     54   C  A00 X   3      13.789  20.941 100.6020  0.00  0.00     0.000 C
ATOM     55   O  A00 X   3      14.617  21.592  99.9970  0.00  0.00     0.000 OA
ATOM     56   O  A00 X   3      14.131  19.881 101.1020  0.00  0.00     0.000 OA
ENDBRANCH 45 54
BRANCH 41 57
ATOM     57  O4  A00 X   4      13.825  22.596 103.2980  0.00  0.00     0.000 O
BRANCH 57 61
ATOM     58  C1  A00 X   4      15.607  20.777 106.7840  0.00  0.00     0.000 C
ATOM     59  C2  A00 X   4      14.781  19.885 105.8230  0.00  0.00     0.000 C
ATOM     60  C3  A00 X   4      14.506  20.545 104.4570  0.00  0.00     0.000 C
ATOM     61  C4  A00 X   4      13.989  21.992 104.6120  0.00  0.00     0.000 C
ATOM     62  C5  A00 X   4      15.066  22.755 105.4230  0.00  0.00     0.000 C
ATOM     63  O5  A00 X   4      15.184  22.159 106.7400  0.00  0.00     0.000 O
BRANCH 59 66
ATOM     64   N  A00 X   4      13.437  19.528 106.3100  0.00  0.00     0.000 N
ATOM     66  HD  A00 X   4      13.033  20.097 106.8230  0.00  0.00     0.000 HD
ATOM     66   O  A00 X   4      14.491  17.863 107.6950  0.00  0.00     0.000 OA
ATOM     67   S  A00 X   4      13.246  18.117 107.0400  0.00  0.00     0.000 S
ATOM     68   O  A00 X   4      12.144  18.420 107.9050  0.00  0.00     0.000 OA
ATOM     69   O  A00 X   4      12.902  17.295 105.9140  0.00  0.00     0.000 OA
ENDBRANCH 59 66
BRANCH 62 70
ATOM     70   C  A00 X   4      14.778  24.266 105.5910  0.00  0.00     0.000 C
ATOM     71   O  A00 X   4      12.204  25.870 107.5680  0.00  0.00     0.000 OA
ATOM     72   O  A00 X   4      12.844  26.198 105.3260  0.00  0.00     0.000 OA
ATOM     73   O  A00 X   4      13.830  24.453 106.6550  0.00  0.00     0.000 O
ATOM     74   O  A00 X   4      11.543  24.228 105.9300  0.00  0.00     0.000 OA
ATOM     75   S  A00 X   4      12.498  25.213 106.3260  0.00  0.00     0.000 S
ENDBRANCH 62 70
ENDBRANCH 57 61
ENDBRANCH 41 57
ENDBRANCH 40 44
ENDBRANCH 20 40
ENDBRANCH 19 23
ENDBRANCH 1 19
TORSDOF 14
ENDMDL
MODEL 65
REMARK VINA RESULT:       0.0     13.405     18.175
ROOT
ATOM      1  C1  A00 X   1       9.784  37.454  99.4830  0.00  0.00     0.000 C
ATOM      2  C2  A00 X   1       9.777  37.482  97.9310  0.00  0.00     0.000 C
ATOM      3  C3  A00 X   1      11.038  36.881  97.2270  0.00  0.00     0.000 C
ATOM      4  C4  A00 X   1      12.276  36.673  98.1370  0.00  0.00     0.000 C
ATOM      5  C5  A00 X   1      12.238  37.567  99.3760  0.00  0.00     0.000 C
ATOM      6  O5  A00 X   1      11.059  37.144 100.0980  0.00  0.00     0.000 O
ATOM      7   O  A00 X   1      11.445  37.764  96.1850  0.00  0.00     0.000 O
ATOM      9  HD  A00 X   1      12.164  37.490  96.5820  0.00  0.00     0.000 HD
ATOM      9   O  A00 X   1      12.411  35.308  98.5310  0.00  0.00     0.000 O
ATOM     11  HD  A00 X   1      13.130  35.033  98.9280  0.00  0.00     0.000 HD
ENDROOT
BRANCH 2 11
ATOM     11   O  A00 X   1       8.606  36.771  97.4850  0.00  0.00     0.000 O
ATOM     12   O  A00 X   1       8.227  36.278  95.1660  0.00  0.00     0.000 OA
ATOM     13   O  A00 X   1       8.280  38.597  95.8960  0.00  0.00     0.000 OA
ATOM     14   O  A00 X   1       6.500  37.165  96.5590  0.00  0.00     0.000 OA
ATOM     15   S  A00 X   1       7.884  37.245  96.1770  0.00  0.00     0.000 S
ENDBRANCH 2 11
BRANCH 5 16
ATOM     16   C  A00 X   1      12.276  39.072  99.0910  0.00  0.00     0.000 C
ATOM     17   O  A00 X   1      12.658  39.447  98.0020  0.00  0.00     0.000 OA
ATOM     18   O  A00 X   1      11.932  39.899  99.9110  0.00  0.00     0.000 OA
ENDBRANCH 5 16
BRANCH 1 19
ATOM     19  O4  A00 X   2       9.189  38.638 100.0690  0.00  0.00     0.000 O
BRANCH 19 23
ATOM     20  C1  A00 X   2       7.239  36.475 103.2130  0.00  0.00     0.000 C
ATOM     21  C2  A00 X   2       6.396  36.840 101.9670  0.00  0.00     0.000 C
ATOM     22  C3  A00 X   2       7.306  37.210 100.7770  0.00  0.00     0.000 C
ATOM     23  C4  A00 X   2       8.298  38.325 101.1780  0.00  0.00     0.000 C
ATOM     24  C5  A00 X   2       9.064  37.847 102.4420  0.00  0.00     0.000 C
ATOM     25  O5  A00 X   2       8.106  37.604 103.5040  0.00  0.00     0.000 O
ATOM     26   O  A00 X   2       6.480  37.473  99.6300  0.00  0.00     0.000 O
ATOM     28  HD  A00 X   2       5.964  38.018 100.0630  0.00  0.00     0.000 HD
BRANCH 21 30
ATOM     28   N  A00 X   2       5.237  37.006 102.8490  0.00  0.00     0.000 N
ATOM     30  HD  A00 X   2       4.931  36.954 102.0410  0.00  0.00     0.000 HD
ATOM     30   O  A00 X   2       3.320  36.420 101.6490  0.00  0.00     0.000 OA
ATOM     31   S  A00 X   2       3.895  37.577 102.2390  0.00  0.00     0.000 S
ATOM     32   O  A00 X   2       3.194  38.086 103.3770  0.00  0.00     0.000 OA
ATOM     33   O  A00 X   2       4.252  38.646 101.3550  0.00  0.00     0.000 OA
ENDBRANCH 21 30
BRANCH 24 34
ATOM     34   C  A00 X   2      10.279  38.681 102.9130  0.00  0.00     0.000 C
ATOM     35   O  A00 X   2      10.119  42.216 103.7690  0.00  0.00     0.000 OA
ATOM     36   O  A00 X   2      10.004  40.094 102.8360  0.00  0.00     0.000 O
ATOM     37   O  A00 X   2       8.766  40.553 104.7660  0.00  0.00     0.000 OA
ATOM     38   S  A00 X   2      10.047  40.861 104.2080  0.00  0.00     0.000 S
ATOM     39   O  A00 X   2      11.206  40.386 104.9020  0.00  0.00     0.000 OA
ENDBRANCH 24 34
BRANCH 20 40
ATOM     40  O4  A00 X   3       8.036  35.346 102.8250  0.00  0.00     0.000 O
BRANCH 40 44
ATOM     41  C1  A00 X   3      11.293  33.761 102.8530  0.00  0.00     0.000 C
ATOM     42  C2  A00 X   3      10.041  33.188 102.1530  0.00  0.00     0.000 C
ATOM     43  C3  A00 X   3       8.830  33.155 103.1210  0.00  0.00     0.000 C
ATOM     44  C4  A00 X   3       8.562  34.469 103.8440  0.00  0.00     0.000 C
ATOM     45  C5  A00 X   3       9.864  34.978 104.5250  0.00  0.00     0.000 C
ATOM     46  O5  A00 X   3      10.982  34.982 103.5790  0.00  0.00     0.000 O
ATOM     47   O  A00 X   3       7.639  32.564 102.6070  0.00  0.00     0.000 O
ATOM     49  HD  A00 X   3       7.264  33.211 103.0440  0.00  0.00     0.000 HD
BRANCH 42 49
ATOM     49   O  A00 X   3       9.778  34.025 101.0060  0.00  0.00     0.000 O
ATOM     50   O  A00 X   3       8.120  34.131  99.2830  0.00  0.00     0.000 OA
ATOM     51   O  A00 X   3       8.955  32.017  99.9350  0.00  0.00     0.000 OA
ATOM     52   O  A00 X   3      10.405  33.502  98.8040  0.00  0.00     0.000 OA
ATOM     53   S  A00 X   3       9.283  33.396  99.6710  0.00  0.00     0.000 S
ENDBRANCH 42 49
BRANCH 45 54
ATOM     54   C  A00 X   3      10.168  34.206 105.8150  0.00  0.00     0.000 C
ATOM     55   O  A00 X   3      11.047  34.577 106.5650  0.00  0.00     0.000 OA
ATOM     56   O  A00 X   3       9.534  33.205 106.1090  0.00  0.00     0.000 OA
ENDBRANCH 45 54
BRANCH 41 57
ATOM     57  O4  A00 X   4      11.964  32.759 103.6500  0.00  0.00     0.000 O
BRANCH 57 61
ATOM     58  C1  A00 X   4      16.116  32.067 104.6110  0.00  0.00     0.000 C
ATOM     59  C2  A00 X   4      15.464  33.399 105.0580  0.00  0.00     0.000 C
ATOM     60  C3  A00 X   4      13.923  33.384 104.9850  0.00  0.00     0.000 C
ATOM     61  C4  A00 X   4      13.418  32.830 103.6350  0.00  0.00     0.000 C
ATOM     62  C5  A00 X   4      14.023  31.411 103.4930  0.00  0.00     0.000 C
ATOM     63  O5  A00 X   4      15.469  31.512 103.4430  0.00  0.00     0.000 O
BRANCH 59 66
ATOM     64   N  A00 X   4      15.886  34.501 104.1740  0.00  0.00     0.000 N
ATOM     66  HD  A00 X   4      16.096  34.300 103.3580  0.00  0.00     0.000 HD
ATOM     66   O  A00 X   4      17.907  34.638 105.4760  0.00  0.00     0.000 OA
ATOM     67   S  A00 X   4      17.061  35.464 104.6730  0.00  0.00     0.000 S
ATOM     68   O  A00 X   4      17.612  35.872 103.4140  0.00  0.00     0.000 OA
ATOM     69   O  A00 X   4      16.292  36.480 105.3350  0.00  0.00     0.000 OA
ENDBRANCH 59 66
BRANCH 62 70
ATOM     70   C  A00 X   4      13.540  30.641 102.2410  0.00  0.00     0.000 C
ATOM     71   O  A00 X   4      14.292  31.288  98.7590  0.00  0.00     0.000 OA
ATOM     72   O  A00 X   4      12.235  30.908  99.8390  0.00  0.00     0.000 OA
ATOM     73   O  A00 X   4      14.279  31.090 101.0930  0.00  0.00     0.000 O
ATOM     74   O  A00 X   4      13.341  33.065 100.0820  0.00  0.00     0.000 OA
ATOM     75   S  A00 X   4      13.470  31.659  99.8760  0.00  0.00     0.000 S
ENDBRANCH 62 70
ENDBRANCH 57 61
ENDBRANCH 41 57
ENDBRANCH 40 44
ENDBRANCH 20 40
ENDBRANCH 19 23
ENDBRANCH 1 19
TORSDOF 14
ENDMDL
MODEL 66
REMARK VINA RESULT:       0.0     83.977     88.945
ROOT
ATOM      1  C1  A00 X   1      90.427  48.271  94.9160  0.00  0.00     0.000 C
ATOM      2  C2  A00 X   1      91.734  48.629  95.6710  0.00  0.00     0.000 C
ATOM      3  C3  A00 X   1      92.963  47.701  95.3970  0.00  0.00     0.000 C
ATOM      4  C4  A00 X   1      92.639  46.348  94.7120  0.00  0.00     0.000 C
ATOM      5  C5  A00 X   1      91.184  45.931  94.9180  0.00  0.00     0.000 C
ATOM      6  O5  A00 X   1      90.410  46.970  94.2770  0.00  0.00     0.000 O
ATOM      7   O  A00 X   1      93.585  47.386  96.6410  0.00  0.00     0.000 O
ATOM      9  HD  A00 X   1      93.575  46.660  96.1690  0.00  0.00     0.000 HD
ATOM      9   O  A00 X   1      92.938  46.386  93.3160  0.00  0.00     0.000 O
ATOM     11  HD  A00 X   1      92.929  45.660  92.8440  0.00  0.00     0.000 HD
ENDROOT
BRANCH 2 11
ATOM     11   O  A00 X   1      92.083  49.984  95.3250  0.00  0.00     0.000 O
ATOM     12   O  A00 X   1      94.161  50.974  96.0080  0.00  0.00     0.000 OA
ATOM     13   O  A00 X   1      92.542  50.319  97.7010  0.00  0.00     0.000 OA
ATOM     14   O  A00 X   1      92.084  52.134  96.2350  0.00  0.00     0.000 OA
ATOM     15   S  A00 X   1      92.778  50.886  96.4020  0.00  0.00     0.000 S
ENDBRANCH 2 11
BRANCH 5 16
ATOM     16   C  A00 X   1      90.782  45.677  96.3740  0.00  0.00     0.000 C
ATOM     17   O  A00 X   1      91.658  45.503  97.1960  0.00  0.00     0.000 OA
ATOM     18   O  A00 X   1      89.622  45.651  96.7360  0.00  0.00     0.000 OA
ENDBRANCH 5 16
BRANCH 1 19
ATOM     19  O4  A00 X   2      89.239  48.481  95.7180  0.00  0.00     0.000 O
BRANCH 19 23
ATOM     20  C1  A00 X   2      86.953  50.070  92.4600  0.00  0.00     0.000 C
ATOM     21  C2  A00 X   2      87.599  51.080  93.4390  0.00  0.00     0.000 C
ATOM     22  C3  A00 X   2      88.712  50.406  94.2680  0.00  0.00     0.000 C
ATOM     23  C4  A00 X   2      88.174  49.143  94.9770  0.00  0.00     0.000 C
ATOM     24  C5  A00 X   2      87.540  48.226  93.8960  0.00  0.00     0.000 C
ATOM     25  O5  A00 X   2      86.464  48.948  93.2430  0.00  0.00     0.000 O
ATOM     26   O  A00 X   2      89.325  51.398  95.1100  0.00  0.00     0.000 O
ATOM     28  HD  A00 X   2      88.565  51.680  95.4150  0.00  0.00     0.000 HD
BRANCH 21 30
ATOM     28   N  A00 X   2      86.435  51.951  93.2490  0.00  0.00     0.000 N
ATOM     30  HD  A00 X   2      87.055  52.436  93.6120  0.00  0.00     0.000 HD
ATOM     30   O  A00 X   2      87.146  54.168  93.4500  0.00  0.00     0.000 OA
ATOM     31   S  A00 X   2      86.308  53.252  94.1390  0.00  0.00     0.000 S
ATOM     32   O  A00 X   2      84.912  53.558  94.0930  0.00  0.00     0.000 OA
ATOM     33   O  A00 X   2      86.695  52.893  95.4710  0.00  0.00     0.000 OA
ENDBRANCH 21 30
BRANCH 24 34
ATOM     34   C  A00 X   2      87.131  46.792  94.3090  0.00  0.00     0.000 C
ATOM     35   O  A00 X   2      84.779  46.031  96.9820  0.00  0.00     0.000 OA
ATOM     36   O  A00 X   2      86.482  46.784  95.5960  0.00  0.00     0.000 O
ATOM     37   O  A00 X   2      84.280  47.428  95.1400  0.00  0.00     0.000 OA
ATOM     38   S  A00 X   2      84.994  46.274  95.5930  0.00  0.00     0.000 S
ATOM     39   O  A00 X   2      84.967  45.109  94.7620  0.00  0.00     0.000 OA
ENDBRANCH 24 34
BRANCH 20 40
ATOM     40  O4  A00 X   3      88.015  49.628  91.6020  0.00  0.00     0.000 O
BRANCH 40 44
ATOM     41  C1  A00 X   3      89.663  46.828  89.9990  0.00  0.00     0.000 C
ATOM     42  C2  A00 X   3      90.131  48.297  89.9030  0.00  0.00     0.000 C
ATOM     43  C3  A00 X   3      88.961  49.226  89.4890  0.00  0.00     0.000 C
ATOM     44  C4  A00 X   3      87.693  49.056  90.3160  0.00  0.00     0.000 C
ATOM     45  C5  A00 X   3      87.284  47.556  90.3610  0.00  0.00     0.000 C
ATOM     46  O5  A00 X   3      88.420  46.716  90.7460  0.00  0.00     0.000 O
ATOM     47   O  A00 X   3      89.297  50.597  89.2850  0.00  0.00     0.000 O
ATOM     49  HD  A00 X   3      88.531  50.725  89.6690  0.00  0.00     0.000 HD
BRANCH 42 49
ATOM     49   O  A00 X   3      90.658  48.658  91.1990  0.00  0.00     0.000 O
ATOM     50   O  A00 X   3      91.577  50.624  92.2090  0.00  0.00     0.000 OA
ATOM     51   O  A00 X   3      92.199  50.082  89.9930  0.00  0.00     0.000 OA
ATOM     52   O  A00 X   3      92.941  48.682  91.7470  0.00  0.00     0.000 OA
ATOM     53   S  A00 X   3      91.917  49.567  91.3090  0.00  0.00     0.000 S
ENDBRANCH 42 49
BRANCH 45 54
ATOM     54   C  A00 X   3      86.620  47.110  89.0530  0.00  0.00     0.000 C
ATOM     55   O  A00 X   3      86.662  47.815  88.0650  0.00  0.00     0.000 OA
ATOM     56   O  A00 X   3      86.036  46.040  88.9820  0.00  0.00     0.000 OA
ENDBRANCH 45 54
BRANCH 41 57
ATOM     57  O4  A00 X   4      89.627  46.194  88.7010  0.00  0.00     0.000 O
BRANCH 57 61
ATOM     58  C1  A00 X   4      90.313  42.137  87.3930  0.00  0.00     0.000 C
ATOM     59  C2  A00 X   4      89.154  42.411  88.3850  0.00  0.00     0.000 C
ATOM     60  C3  A00 X   4      88.780  43.903  88.4960  0.00  0.00     0.000 C
ATOM     61  C4  A00 X   4      90.026  44.794  88.6860  0.00  0.00     0.000 C
ATOM     62  C5  A00 X   4      90.951  44.513  87.4750  0.00  0.00     0.000 C
ATOM     63  O5  A00 X   4      91.365  43.123  87.5040  0.00  0.00     0.000 O
BRANCH 59 66
ATOM     64   N  A00 X   4      89.538  42.001  89.7480  0.00  0.00     0.000 N
ATOM     66  HD  A00 X   4      90.380  42.022  89.9500  0.00  0.00     0.000 HD
ATOM     66   O  A00 X   4      88.952  39.749  89.1280  0.00  0.00     0.000 OA
ATOM     67   S  A00 X   4      89.025  40.585  90.2860  0.00  0.00     0.000 S
ATOM     68   O  A00 X   4      90.071  40.266  91.2120  0.00  0.00     0.000 OA
ATOM     69   O  A00 X   4      87.792  40.981  90.9050  0.00  0.00     0.000 OA
ENDBRANCH 59 66
BRANCH 62 70
ATOM     70   C  A00 X   4      92.217  45.402  87.4280  0.00  0.00     0.000 C
ATOM     71   O  A00 X   4      95.082  45.378  89.6410  0.00  0.00     0.000 OA
ATOM     72   O  A00 X   4      93.748  47.162  88.8780  0.00  0.00     0.000 OA
ATOM     73   O  A00 X   4      93.196  44.883  88.3420  0.00  0.00     0.000 O
ATOM     74   O  A00 X   4      92.888  45.666  90.5990  0.00  0.00     0.000 OA
ATOM     75   S  A00 X   4      93.734  45.839  89.4620  0.00  0.00     0.000 S
ENDBRANCH 62 70
ENDBRANCH 57 61
ENDBRANCH 41 57
ENDBRANCH 40 44
ENDBRANCH 20 40
ENDBRANCH 19 23
ENDBRANCH 1 19
TORSDOF 14
ENDMDL
MODEL 67
REMARK VINA RESULT:       0.0     80.111     85.019
ROOT
ATOM      1  C1  A00 X   1      87.177  49.862 104.2180  0.00  0.00     0.000 C
ATOM      2  C2  A00 X   1      88.320  50.074 105.2470  0.00  0.00     0.000 C
ATOM      3  C3  A00 X   1      89.455  48.998 105.2440  0.00  0.00     0.000 C
ATOM      4  C4  A00 X   1      89.127  47.682 104.4930  0.00  0.00     0.000 C
ATOM      5  C5  A00 X   1      87.622  47.448 104.3690  0.00  0.00     0.000 C
ATOM      6  O5  A00 X   1      87.141  48.561 103.5810  0.00  0.00     0.000 O
ATOM      7   O  A00 X   1      89.744  48.634 106.5920  0.00  0.00     0.000 O
ATOM      9  HD  A00 X   1      89.750  47.906 106.1240  0.00  0.00     0.000 HD
ATOM      9   O  A00 X   1      89.728  47.656 103.1990  0.00  0.00     0.000 O
ATOM     11  HD  A00 X   1      89.734  46.927 102.7310  0.00  0.00     0.000 HD
ENDROOT
BRANCH 2 11
ATOM     11   O  A00 X   1      88.899  51.369 104.9980  0.00  0.00     0.000 O
ATOM     12   O  A00 X   1      90.661  52.257 106.3670  0.00  0.00     0.000 OA
ATOM     13   O  A00 X   1      88.475  51.853 107.3540  0.00  0.00     0.000 OA
ATOM     14   O  A00 X   1      88.769  53.578 105.7430  0.00  0.00     0.000 OA
ATOM     15   S  A00 X   1      89.229  52.300 106.2150  0.00  0.00     0.000 S
ENDBRANCH 2 11
BRANCH 5 16
ATOM     16   C  A00 X   1      86.881  47.273 105.6990  0.00  0.00     0.000 C
ATOM     17   O  A00 X   1      87.525  47.004 106.6910  0.00  0.00     0.000 OA
ATOM     18   O  A00 X   1      85.677  47.401 105.7960  0.00  0.00     0.000 OA
ENDBRANCH 5 16
BRANCH 1 19
ATOM     19  O4  A00 X   2      85.877  50.231 104.7400  0.00  0.00     0.000 O
BRANCH 19 23
ATOM     20  C1  A00 X   2      84.499  51.840 101.0140  0.00  0.00     0.000 C
ATOM     21  C2  A00 X   2      85.044  52.837 102.0660  0.00  0.00     0.000 C
ATOM     22  C3  A00 X   2      85.881  52.105 103.1350  0.00  0.00     0.000 C
ATOM     23  C4  A00 X   2      85.068  50.952 103.7660  0.00  0.00     0.000 C
ATOM     24  C5  A00 X   2      84.566  50.039 102.6140  0.00  0.00     0.000 C
ATOM     25  O5  A00 X   2      83.736  50.827 101.7220  0.00  0.00     0.000 O
ATOM     26   O  A00 X   2      86.419  53.079 104.0460  0.00  0.00     0.000 O
ATOM     28  HD  A00 X   2      85.651  53.457 104.1740  0.00  0.00     0.000 HD
BRANCH 21 30
ATOM     28   N  A00 X   2      84.052  53.811 101.5990  0.00  0.00     0.000 N
ATOM     30  HD  A00 X   2      84.635  54.250 102.0650  0.00  0.00     0.000 HD
ATOM     30   O  A00 X   2      84.957  55.950 101.8570  0.00  0.00     0.000 OA
ATOM     31   S  A00 X   2      83.895  55.171 102.3900  0.00  0.00     0.000 S
ATOM     32   O  A00 X   2      82.583  55.618 102.0380  0.00  0.00     0.000 OA
ATOM     33   O  A00 X   2      83.957  54.859 103.7860  0.00  0.00     0.000 OA
ENDBRANCH 21 30
BRANCH 24 34
ATOM     34   C  A00 X   2      83.920  48.685 102.9910  0.00  0.00     0.000 C
ATOM     35   O  A00 X   2      80.458  47.808 102.2820  0.00  0.00     0.000 OA
ATOM     36   O  A00 X   2      82.482  48.752 102.9140  0.00  0.00     0.000 O
ATOM     37   O  A00 X   2      82.009  48.503 100.6370  0.00  0.00     0.000 OA
ATOM     38   S  A00 X   2      81.820  47.788 101.8620  0.00  0.00     0.000 S
ATOM     39   O  A00 X   2      82.479  46.524 102.0010  0.00  0.00     0.000 OA
ENDBRANCH 24 34
BRANCH 20 40
ATOM     40  O4  A00 X   3      85.656  51.237 100.4160  0.00  0.00     0.000 O
BRANCH 40 44
ATOM     41  C1  A00 X   3      87.278  48.224  99.2260  0.00  0.00     0.000 C
ATOM     42  C2  A00 X   3      87.918  49.630  99.2190  0.00  0.00     0.000 C
ATOM     43  C3  A00 X   3      86.973  50.666  98.5560  0.00  0.00     0.000 C
ATOM     44  C4  A00 X   3      85.549  50.661  99.0960  0.00  0.00     0.000 C
ATOM     45  C5  A00 X   3      84.974  49.216  99.0670  0.00  0.00     0.000 C
ATOM     46  O5  A00 X   3      85.902  48.271  99.6930  0.00  0.00     0.000 O
ATOM     47   O  A00 X   3      87.497  51.985  98.4160  0.00  0.00     0.000 O
ATOM     49  HD  A00 X   3      86.687  52.208  98.6270  0.00  0.00     0.000 HD
BRANCH 42 49
ATOM     49   O  A00 X   3      88.198  49.974 100.5930  0.00  0.00     0.000 O
ATOM     50   O  A00 X   3      89.086  51.867 101.7590  0.00  0.00     0.000 OA
ATOM     51   O  A00 X   3      90.097  51.200  99.7280  0.00  0.00     0.000 OA
ATOM     52   O  A00 X   3      90.306  49.785 101.6100  0.00  0.00     0.000 OA
ATOM     53   S  A00 X   3      89.494  50.754 100.9600  0.00  0.00     0.000 S
ENDBRANCH 42 49
BRANCH 45 54
ATOM     54   C  A00 X   3      84.554  48.802  97.6520  0.00  0.00     0.000 C
ATOM     55   O  A00 X   3      84.830  49.497  96.6950  0.00  0.00     0.000 OA
ATOM     56   O  A00 X   3      83.933  47.767  97.4620  0.00  0.00     0.000 OA
ENDBRANCH 45 54
BRANCH 41 57
ATOM     57  O4  A00 X   4      87.445  47.555  97.9560  0.00  0.00     0.000 O
BRANCH 57 61
ATOM     58  C1  A00 X   4      87.991  43.414  96.8650  0.00  0.00     0.000 C
ATOM     59  C2  A00 X   4      86.685  43.824  97.5900  0.00  0.00     0.000 C
ATOM     60  C3  A00 X   4      86.441  45.346  97.6040  0.00  0.00     0.000 C
ATOM     61  C4  A00 X   4      87.701  46.125  98.0400  0.00  0.00     0.000 C
ATOM     62  C5  A00 X   4      88.825  45.722  97.0520  0.00  0.00     0.000 C
ATOM     63  O5  A00 X   4      89.088  44.302  97.1810  0.00  0.00     0.000 O
BRANCH 59 66
ATOM     64   N  A00 X   4      86.725  43.426  99.0090  0.00  0.00     0.000 N
ATOM     66  HD  A00 X   4      87.502  43.379  99.3890  0.00  0.00     0.000 HD
ATOM     66   O  A00 X   4      86.077  41.216  98.3050  0.00  0.00     0.000 OA
ATOM     67   S  A00 X   4      85.977  42.080  99.4400  0.00  0.00     0.000 S
ATOM     68   O  A00 X   4      86.764  41.699 100.5760  0.00  0.00     0.000 OA
ATOM     69   O  A00 X   4      84.682  42.604  99.7710  0.00  0.00     0.000 OA
ENDBRANCH 59 66
BRANCH 62 70
ATOM     70   C  A00 X   4      90.153  46.489  97.2590  0.00  0.00     0.000 C
ATOM     71   O  A00 X   4      92.507  46.235  99.9980  0.00  0.00     0.000 OA
ATOM     72   O  A00 X   4      91.525  48.122  98.9890  0.00  0.00     0.000 OA
ATOM     73   O  A00 X   4      90.878  45.896  98.3480  0.00  0.00     0.000 O
ATOM     74   O  A00 X   4      90.204  46.742 100.5010  0.00  0.00     0.000 OA
ATOM     75   S  A00 X   4      91.271  46.817  99.5560  0.00  0.00     0.000 S
ENDBRANCH 62 70
ENDBRANCH 57 61
ENDBRANCH 41 57
ENDBRANCH 40 44
ENDBRANCH 20 40
ENDBRANCH 19 23
ENDBRANCH 1 19
TORSDOF 14
ENDMDL
MODEL 68
REMARK VINA RESULT:       0.0     60.914     65.024
ROOT
ATOM      1  C1  A00 X   1      64.990  58.638 113.2120  0.00  0.00     0.000 C
ATOM      2  C2  A00 X   1      65.959  59.395 114.1590  0.00  0.00     0.000 C
ATOM      3  C3  A00 X   1      65.334  60.560 114.9940  0.00  0.00     0.000 C
ATOM      4  C4  A00 X   1      63.944  61.054 114.5170  0.00  0.00     0.000 C
ATOM      5  C5  A00 X   1      63.684  60.715 113.0490  0.00  0.00     0.000 C
ATOM      6  O5  A00 X   1      63.705  59.271 112.9960  0.00  0.00     0.000 O
ATOM      7   O  A00 X   1      66.206  61.687 114.9330  0.00  0.00     0.000 O
ATOM      9  HD  A00 X   1      65.397  61.986 114.8570  0.00  0.00     0.000 HD
ATOM      9   O  A00 X   1      62.895  60.523 115.3270  0.00  0.00     0.000 O
ATOM     11  HD  A00 X   1      62.086  60.822 115.2510  0.00  0.00     0.000 HD
ENDROOT
BRANCH 2 11
ATOM     11   O  A00 X   1      66.536  58.429 115.0590  0.00  0.00     0.000 O
ATOM     12   O  A00 X   1      67.912  59.086 116.9150  0.00  0.00     0.000 OA
ATOM     13   O  A00 X   1      68.673  59.539 114.6500  0.00  0.00     0.000 OA
ATOM     14   O  A00 X   1      68.543  57.304 115.4530  0.00  0.00     0.000 OA
ATOM     15   S  A00 X   1      68.010  58.636 115.5490  0.00  0.00     0.000 S
ENDBRANCH 2 11
BRANCH 5 16
ATOM     16   C  A00 X   1      64.640  61.379 112.0520  0.00  0.00     0.000 C
ATOM     17   O  A00 X   1      65.293  62.334 112.4210  0.00  0.00     0.000 OA
ATOM     18   O  A00 X   1      64.771  60.981 110.9120  0.00  0.00     0.000 OA
ENDBRANCH 5 16
BRANCH 1 19
ATOM     19  O4  A00 X   2      65.611  58.261 111.9580  0.00  0.00     0.000 O
BRANCH 19 23
ATOM     20  C1  A00 X   2      63.663  54.448 111.7860  0.00  0.00     0.000 C
ATOM     21  C2  A00 X   2      65.109  54.487 112.3380  0.00  0.00     0.000 C
ATOM     22  C3  A00 X   2      65.504  55.924 112.7400  0.00  0.00     0.000 C
ATOM     23  C4  A00 X   2      65.285  56.898 111.5610  0.00  0.00     0.000 C
ATOM     24  C5  A00 X   2      63.812  56.750 111.0900  0.00  0.00     0.000 C
ATOM     25  O5  A00 X   2      63.591  55.378 110.6720  0.00  0.00     0.000 O
ATOM     26   O  A00 X   2      66.825  55.897 113.3080  0.00  0.00     0.000 O
ATOM     28  HD  A00 X   2      67.155  55.446 112.6470  0.00  0.00     0.000 HD
BRANCH 21 30
ATOM     28   N  A00 X   2      65.337  53.174 111.7280  0.00  0.00     0.000 N
ATOM     30  HD  A00 X   2      65.978  53.301 112.2960  0.00  0.00     0.000 HD
ATOM     30   O  A00 X   2      66.864  52.010 113.0590  0.00  0.00     0.000 OA
ATOM     31   S  A00 X   2      66.797  52.569 111.7550  0.00  0.00     0.000 S
ATOM     32   O  A00 X   2      66.789  51.616 110.6890  0.00  0.00     0.000 OA
ATOM     33   O  A00 X   2      67.705  53.638 111.4600  0.00  0.00     0.000 OA
ENDBRANCH 21 30
BRANCH 24 34
ATOM     34   C  A00 X   2      63.269  57.779 110.0710  0.00  0.00     0.000 C
ATOM     35   O  A00 X   2      62.152  56.929 106.7110  0.00  0.00     0.000 OA
ATOM     36   O  A00 X   2      63.243  57.230 108.7380  0.00  0.00     0.000 O
ATOM     37   O  A00 X   2      61.294  55.937 108.6790  0.00  0.00     0.000 OA
ATOM     38   S  A00 X   2      61.817  57.129 108.0830  0.00  0.00     0.000 S
ATOM     39   O  A00 X   2      61.150  58.363 108.3710  0.00  0.00     0.000 OA
ENDBRANCH 24 34
BRANCH 20 40
ATOM     40  O4  A00 X   3      62.827  54.914 112.8550  0.00  0.00     0.000 O
BRANCH 40 44
ATOM     41  C1  A00 X   3      60.054  57.003 113.8880  0.00  0.00     0.000 C
ATOM     42  C2  A00 X   3      60.908  56.140 114.8410  0.00  0.00     0.000 C
ATOM     43  C3  A00 X   3      61.011  54.681 114.3260  0.00  0.00     0.000 C
ATOM     44  C4  A00 X   3      61.429  54.552 112.8670  0.00  0.00     0.000 C
ATOM     45  C5  A00 X   3      60.523  55.444 111.9730  0.00  0.00     0.000 C
ATOM     46  O5  A00 X   3      60.447  56.808 112.5010  0.00  0.00     0.000 O
ATOM     47   O  A00 X   3      61.706  53.769 115.1740  0.00  0.00     0.000 O
ATOM     49  HD  A00 X   3      62.005  53.470 114.4190  0.00  0.00     0.000 HD
BRANCH 42 49
ATOM     49   O  A00 X   3      62.208  56.763 114.9260  0.00  0.00     0.000 O
ATOM     50   O  A00 X   3      64.289  56.289 116.0120  0.00  0.00     0.000 OA
ATOM     51   O  A00 X   3      62.275  55.937 117.2000  0.00  0.00     0.000 OA
ATOM     52   O  A00 X   3      62.905  58.156 116.6830  0.00  0.00     0.000 OA
ATOM     53   S  A00 X   3      62.978  56.794 116.2780  0.00  0.00     0.000 S
ENDBRANCH 42 49
BRANCH 45 54
ATOM     54   C  A00 X   3      59.147  54.807 111.7460  0.00  0.00     0.000 C
ATOM     55   O  A00 X   3      58.814  53.816 112.3630  0.00  0.00     0.000 OA
ATOM     56   O  A00 X   3      58.362  55.283 110.9400  0.00  0.00     0.000 OA
ENDBRANCH 45 54
BRANCH 41 57
ATOM     57  O4  A00 X   4      58.640  56.825 114.1280  0.00  0.00     0.000 O
BRANCH 57 61
ATOM     58  C1  A00 X   4      55.252  59.487 113.8500  0.00  0.00     0.000 C
ATOM     59  C2  A00 X   4      56.065  59.185 112.5660  0.00  0.00     0.000 C
ATOM     60  C3  A00 X   4      57.004  57.969 112.7050  0.00  0.00     0.000 C
ATOM     61  C4  A00 X   4      57.835  58.032 114.0050  0.00  0.00     0.000 C
ATOM     62  C5  A00 X   4      56.817  58.119 115.1690  0.00  0.00     0.000 C
ATOM     63  O5  A00 X   4      56.055  59.347 115.0450  0.00  0.00     0.000 O
BRANCH 59 66
ATOM     64   N  A00 X   4      56.943  60.322 112.2370  0.00  0.00     0.000 N
ATOM     66  HD  A00 X   4      57.214  60.821 112.8900  0.00  0.00     0.000 HD
ATOM     66   O  A00 X   4      55.034  61.370 111.2090  0.00  0.00     0.000 OA
ATOM     67   S  A00 X   4      56.460  61.351 111.1110  0.00  0.00     0.000 S
ATOM     68   O  A00 X   4      57.124  62.544 111.5490  0.00  0.00     0.000 OA
ATOM     69   O  A00 X   4      57.043  60.746 109.9480  0.00  0.00     0.000 OA
ENDBRANCH 59 66
BRANCH 62 70
ATOM     70   C  A00 X   4      57.461  58.081 116.5750  0.00  0.00     0.000 C
ATOM     71   O  A00 X   4      59.493  60.597 118.2020  0.00  0.00     0.000 OA
ATOM     72   O  A00 X   4      59.840  58.284 117.9320  0.00  0.00     0.000 OA
ATOM     73   O  A00 X   4      57.966  59.385 116.9020  0.00  0.00     0.000 O
ATOM     74   O  A00 X   4      60.181  59.782 116.0400  0.00  0.00     0.000 OA
ATOM     75   S  A00 X   4      59.488  59.515 117.2590  0.00  0.00     0.000 S
ENDBRANCH 62 70
ENDBRANCH 57 61
ENDBRANCH 41 57
ENDBRANCH 40 44
ENDBRANCH 20 40
ENDBRANCH 19 23
ENDBRANCH 1 19
TORSDOF 14
ENDMDL
MODEL 69
REMARK VINA RESULT:       0.0     85.962     90.693
ROOT
ATOM      1  C1  A00 X   1      35.647  46.763  32.0860  0.00  0.00     0.000 C
ATOM      2  C2  A00 X   1      37.185  46.694  32.2790  0.00  0.00     0.000 C
ATOM      3  C3  A00 X   1      37.938  45.619  31.4270  0.00  0.00     0.000 C
ATOM      4  C4  A00 X   1      37.042  44.527  30.7870  0.00  0.00     0.000 C
ATOM      5  C5  A00 X   1      35.710  44.370  31.5190  0.00  0.00     0.000 C
ATOM      6  O5  A00 X   1      35.056  45.651  31.3690  0.00  0.00     0.000 O
ATOM      7   O  A00 X   1      38.867  44.938  32.2670  0.00  0.00     0.000 O
ATOM      9  HD  A00 X   1      38.495  44.341  31.7620  0.00  0.00     0.000 HD
ATOM      9   O  A00 X   1      36.805  44.792  29.4040  0.00  0.00     0.000 O
ATOM     11  HD  A00 X   1      36.433  44.195  28.8990  0.00  0.00     0.000 HD
ENDROOT
BRANCH 2 11
ATOM     11   O  A00 X   1      37.724  47.995  31.9750  0.00  0.00     0.000 O
ATOM     12   O  A00 X   1      40.089  48.394  31.8560  0.00  0.00     0.000 OA
ATOM     13   O  A00 X   1      39.099  47.734  33.9770  0.00  0.00     0.000 OA
ATOM     14   O  A00 X   1      38.626  49.868  33.0380  0.00  0.00     0.000 OA
ATOM     15   S  A00 X   1      38.979  48.500  32.7670  0.00  0.00     0.000 S
ENDBRANCH 2 11
BRANCH 5 16
ATOM     16   C  A00 X   1      35.821  43.906  32.9750  0.00  0.00     0.000 C
ATOM     17   O  A00 X   1      34.834  43.960  33.6790  0.00  0.00     0.000 OA
ATOM     18   O  A00 X   1      36.857  43.481  33.4460  0.00  0.00     0.000 OA
ENDBRANCH 5 16
BRANCH 1 19
ATOM     19  O4  A00 X   2      34.938  47.033  33.3190  0.00  0.00     0.000 O
BRANCH 19 23
ATOM     20  C1  A00 X   2      32.081  49.636  31.4680  0.00  0.00     0.000 C
ATOM     21  C2  A00 X   2      33.292  50.291  32.1750  0.00  0.00     0.000 C
ATOM     22  C3  A00 X   2      34.420  49.262  32.4000  0.00  0.00     0.000 C
ATOM     23  C4  A00 X   2      33.884  48.024  33.1530  0.00  0.00     0.000 C
ATOM     24  C5  A00 X   2      32.668  47.474  32.3580  0.00  0.00     0.000 C
ATOM     25  O5  A00 X   2      31.654  48.510  32.2810  0.00  0.00     0.000 O
ATOM     26   O  A00 X   2      35.544  49.933  32.9940  0.00  0.00     0.000 O
ATOM     28  HD  A00 X   2      35.062  50.301  33.6120  0.00  0.00     0.000 HD
BRANCH 21 30
ATOM     28   N  A00 X   2      32.416  51.401  32.5630  0.00  0.00     0.000 N
ATOM     30  HD  A00 X   2      33.230  51.672  32.6780  0.00  0.00     0.000 HD
ATOM     30   O  A00 X   2      33.703  53.348  32.6490  0.00  0.00     0.000 OA
ATOM     31   S  A00 X   2      32.981  52.509  33.5380  0.00  0.00     0.000 S
ATOM     32   O  A00 X   2      31.805  53.096  34.1020  0.00  0.00     0.000 OA
ATOM     33   O  A00 X   2      33.736  51.835  34.5520  0.00  0.00     0.000 OA
ENDBRANCH 21 30
BRANCH 24 34
ATOM     34   C  A00 X   2      32.089  46.102  32.7740  0.00  0.00     0.000 C
ATOM     35   O  A00 X   2      28.688  45.599  33.9730  0.00  0.00     0.000 OA
ATOM     36   O  A00 X   2      30.870  46.255  33.5270  0.00  0.00     0.000 O
ATOM     37   O  A00 X   2      29.224  46.611  31.9040  0.00  0.00     0.000 OA
ATOM     38   S  A00 X   2      29.590  45.620  32.8690  0.00  0.00     0.000 S
ATOM     39   O  A00 X   2      29.983  44.332  32.3810  0.00  0.00     0.000 OA
ENDBRANCH 24 34
BRANCH 20 40
ATOM     40  O4  A00 X   3      32.578  49.158  30.2100  0.00  0.00     0.000 O
BRANCH 40 44
ATOM     41  C1  A00 X   3      32.685  46.520  27.7290  0.00  0.00     0.000 C
ATOM     42  C2  A00 X   3      33.461  47.851  27.6320  0.00  0.00     0.000 C
ATOM     43  C3  A00 X   3      32.519  49.061  27.8630  0.00  0.00     0.000 C
ATOM     44  C4  A00 X   3      31.657  48.962  29.1150  0.00  0.00     0.000 C
ATOM     45  C5  A00 X   3      30.906  47.601  29.1380  0.00  0.00     0.000 C
ATOM     46  O5  A00 X   3      31.831  46.490  28.9060  0.00  0.00     0.000 O
ATOM     47   O  A00 X   3      33.111  50.350  27.7110  0.00  0.00     0.000 O
ATOM     49  HD  A00 X   3      32.609  50.536  28.3920  0.00  0.00     0.000 HD
BRANCH 42 49
ATOM     49   O  A00 X   3      34.510  47.803  28.6230  0.00  0.00     0.000 O
ATOM     50   O  A00 X   3      36.232  49.276  29.3980  0.00  0.00     0.000 OA
ATOM     51   O  A00 X   3      35.810  49.134  27.0760  0.00  0.00     0.000 OA
ATOM     52   O  A00 X   3      36.749  47.260  28.1670  0.00  0.00     0.000 OA
ATOM     53   S  A00 X   3      35.913  48.401  28.3130  0.00  0.00     0.000 S
ENDBRANCH 42 49
BRANCH 45 54
ATOM     54   C  A00 X   3      29.707  47.598  28.1820  0.00  0.00     0.000 C
ATOM     55   O  A00 X   3      28.928  46.667  28.1700  0.00  0.00     0.000 OA
ATOM     56   O  A00 X   3      29.516  48.530  27.4160  0.00  0.00     0.000 OA
ENDBRANCH 45 54
BRANCH 41 57
ATOM     57  O4  A00 X   4      31.997  46.212  26.4960  0.00  0.00     0.000 O
BRANCH 57 61
ATOM     58  C1  A00 X   4      31.089  42.502  24.4830  0.00  0.00     0.000 C
ATOM     59  C2  A00 X   4      30.487  42.749  25.8890  0.00  0.00     0.000 C
ATOM     60  C3  A00 X   4      30.576  44.220  26.3460  0.00  0.00     0.000 C
ATOM     61  C4  A00 X   4      31.989  44.803  26.1290  0.00  0.00     0.000 C
ATOM     62  C5  A00 X   4      32.300  44.641  24.6200  0.00  0.00     0.000 C
ATOM     63  O5  A00 X   4      32.323  43.230  24.2860  0.00  0.00     0.000 O
BRANCH 59 66
ATOM     64   N  A00 X   4      30.607  42.163  27.2360  0.00  0.00     0.000 N
ATOM     66  HD  A00 X   4      31.405  42.063  27.5590  0.00  0.00     0.000 HD
ATOM     66   O  A00 X   4      29.896  40.070  26.2800  0.00  0.00     0.000 OA
ATOM     67   S  A00 X   4      29.873  40.772  27.5250  0.00  0.00     0.000 S
ATOM     68   O  A00 X   4      30.722  40.239  28.5500  0.00  0.00     0.000 OA
ATOM     69   O  A00 X   4      28.605  41.249  28.0000  0.00  0.00     0.000 OA
ENDBRANCH 59 66
BRANCH 62 70
ATOM     70   C  A00 X   4      33.642  45.273  24.1800  0.00  0.00     0.000 C
ATOM     71   O  A00 X   4      37.010  44.192  24.9510  0.00  0.00     0.000 OA
ATOM     72   O  A00 X   4      36.009  46.318  25.1000  0.00  0.00     0.000 OA
ATOM     73   O  A00 X   4      34.717  44.378  24.5060  0.00  0.00     0.000 O
ATOM     74   O  A00 X   4      35.493  44.624  26.7740  0.00  0.00     0.000 OA
ATOM     75   S  A00 X   4      35.866  44.917  25.4280  0.00  0.00     0.000 S
ENDBRANCH 62 70
ENDBRANCH 57 61
ENDBRANCH 41 57
ENDBRANCH 40 44
ENDBRANCH 20 40
ENDBRANCH 19 23
ENDBRANCH 1 19
TORSDOF 14
ENDMDL
MODEL 70
REMARK VINA RESULT:       0.0    124.764    128.619
ROOT
ATOM      1  C1  A00 X   1      69.921  93.682  22.1230  0.00  0.00     0.000 C
ATOM      2  C2  A00 X   1      70.506  95.098  22.3760  0.00  0.00     0.000 C
ATOM      3  C3  A00 X   1      69.577  96.301  22.0070  0.00  0.00     0.000 C
ATOM      4  C4  A00 X   1      68.362  95.957  21.1070  0.00  0.00     0.000 C
ATOM      5  C5  A00 X   1      68.579  94.669  20.3130  0.00  0.00     0.000 C
ATOM      6  O5  A00 X   1      68.717  93.638  21.3170  0.00  0.00     0.000 O
ATOM      7   O  A00 X   1      70.345  97.270  21.2960  0.00  0.00     0.000 O
ATOM      9  HD  A00 X   1      69.577  97.214  20.9010  0.00  0.00     0.000 HD
ATOM      9   O  A00 X   1      67.160  95.857  21.8700  0.00  0.00     0.000 O
ATOM     11  HD  A00 X   1      66.391  95.801  21.4750  0.00  0.00     0.000 HD
ENDROOT
BRANCH 2 11
ATOM     11   O  A00 X   1      70.854  95.185  23.7720  0.00  0.00     0.000 O
ATOM     12   O  A00 X   1      71.936  97.120  24.6920  0.00  0.00     0.000 OA
ATOM     13   O  A00 X   1      73.101  95.786  23.0250  0.00  0.00     0.000 OA
ATOM     14   O  A00 X   1      72.683  94.906  25.1950  0.00  0.00     0.000 OA
ATOM     15   S  A00 X   1      72.234  95.810  24.1710  0.00  0.00     0.000 S
ENDBRANCH 2 11
BRANCH 5 16
ATOM     16   C  A00 X   1      69.739  94.711  19.3130  0.00  0.00     0.000 C
ATOM     17   O  A00 X   1      70.117  93.669  18.8170  0.00  0.00     0.000 OA
ATOM     18   O  A00 X   1      70.288  95.747  18.9960  0.00  0.00     0.000 OA
ENDBRANCH 5 16
BRANCH 1 19
ATOM     19  O4  A00 X   2      70.913  92.743  21.6420  0.00  0.00     0.000 O
BRANCH 19 23
ATOM     20  C1  A00 X   2      69.282  89.435  23.8250  0.00  0.00     0.000 C
ATOM     21  C2  A00 X   2      70.492  90.174  24.4450  0.00  0.00     0.000 C
ATOM     22  C3  A00 X   2      70.684  91.559  23.7950  0.00  0.00     0.000 C
ATOM     23  C4  A00 X   2      70.784  91.429  22.2580  0.00  0.00     0.000 C
ATOM     24  C5  A00 X   2      69.528  90.660  21.7640  0.00  0.00     0.000 C
ATOM     25  O5  A00 X   2      69.505  89.352  22.3920  0.00  0.00     0.000 O
ATOM     26   O  A00 X   2      71.773  92.230  24.4500  0.00  0.00     0.000 O
ATOM     28  HD  A00 X   2      72.306  91.553  24.3680  0.00  0.00     0.000 HD
BRANCH 21 30
ATOM     28   N  A00 X   2      70.949  88.888  24.9840  0.00  0.00     0.000 N
ATOM     30  HD  A00 X   2      71.386  89.506  25.4050  0.00  0.00     0.000 HD
ATOM     30   O  A00 X   2      72.062  89.297  26.9970  0.00  0.00     0.000 OA
ATOM     31   S  A00 X   2      72.360  88.821  25.6930  0.00  0.00     0.000 S
ATOM     32   O  A00 X   2      72.710  87.436  25.6200  0.00  0.00     0.000 OA
ATOM     33   O  A00 X   2      73.266  89.604  24.9070  0.00  0.00     0.000 OA
ENDBRANCH 21 30
BRANCH 24 34
ATOM     34   C  A00 X   2      69.269  90.596  20.2400  0.00  0.00     0.000 C
ATOM     35   O  A00 X   2      69.087  87.502  18.3300  0.00  0.00     0.000 OA
ATOM     36   O  A00 X   2      69.599  89.298  19.7080  0.00  0.00     0.000 O
ATOM     37   O  A00 X   2      67.743  87.969  20.2190  0.00  0.00     0.000 OA
ATOM     38   S  A00 X   2      68.399  88.510  19.0680  0.00  0.00     0.000 S
ATOM     39   O  A00 X   2      67.673  89.454  18.2730  0.00  0.00     0.000 OA
ENDBRANCH 24 34
BRANCH 20 40
ATOM     40  O4  A00 X   3      68.144  90.270  24.0850  0.00  0.00     0.000 O
BRANCH 40 44
ATOM     41  C1  A00 X   3      65.045  91.763  22.9490  0.00  0.00     0.000 C
ATOM     42  C2  A00 X   3      65.662  91.973  24.3490  0.00  0.00     0.000 C
ATOM     43  C3  A00 X   3      66.012  90.616  25.0110  0.00  0.00     0.000 C
ATOM     44  C4  A00 X   3      66.829  89.675  24.1340  0.00  0.00     0.000 C
ATOM     45  C5  A00 X   3      66.143  89.510  22.7480  0.00  0.00     0.000 C
ATOM     46  O5  A00 X   3      65.821  90.815  22.1650  0.00  0.00     0.000 O
ATOM     47   O  A00 X   3      66.510  90.684  26.3460  0.00  0.00     0.000 O
ATOM     49  HD  A00 X   3      67.029  90.051  26.0640  0.00  0.00     0.000 HD
BRANCH 42 49
ATOM     49   O  A00 X   3      66.837  92.794  24.1740  0.00  0.00     0.000 O
ATOM     50   O  A00 X   3      68.537  93.710  25.5890  0.00  0.00     0.000 OA
ATOM     51   O  A00 X   3      66.293  93.748  26.3300  0.00  0.00     0.000 OA
ATOM     52   O  A00 X   3      66.899  95.119  24.5030  0.00  0.00     0.000 OA
ATOM     53   S  A00 X   3      67.176  93.912  25.2030  0.00  0.00     0.000 S
ENDBRANCH 42 49
BRANCH 45 54
ATOM     54   C  A00 X   3      64.936  88.568  22.8210  0.00  0.00     0.000 C
ATOM     55   O  A00 X   3      64.382  88.352  23.8800  0.00  0.00     0.000 OA
ATOM     56   O  A00 X   3      64.511  88.017  21.8170  0.00  0.00     0.000 OA
ENDBRANCH 45 54
BRANCH 41 57
ATOM     57  O4  A00 X   4      63.637  91.445  23.0290  0.00  0.00     0.000 O
BRANCH 57 61
ATOM     58  C1  A00 X   4      60.309  92.151  20.3710  0.00  0.00     0.000 C
ATOM     59  C2  A00 X   4      61.475  91.259  19.8780  0.00  0.00     0.000 C
ATOM     60  C3  A00 X   4      62.411  90.788  21.0100  0.00  0.00     0.000 C
ATOM     61  C4  A00 X   4      62.826  91.954  21.9320  0.00  0.00     0.000 C
ATOM     62  C5  A00 X   4      61.512  92.567  22.4780  0.00  0.00     0.000 C
ATOM     63  O5  A00 X   4      60.739  93.101  21.3720  0.00  0.00     0.000 O
BRANCH 59 66
ATOM     64   N  A00 X   4      62.341  92.000  18.9430  0.00  0.00     0.000 N
ATOM     66  HD  A00 X   4      62.386  92.860  19.0360  0.00  0.00     0.000 HD
ATOM     66   O  A00 X   4      60.740  91.496  17.2170  0.00  0.00     0.000 OA
ATOM     67   S  A00 X   4      62.134  91.770  17.3740  0.00  0.00     0.000 S
ATOM     68   O  A00 X   4      62.575  93.037  16.8660  0.00  0.00     0.000 OA
ATOM     69   O  A00 X   4      63.057  90.694  17.1520  0.00  0.00     0.000 OA
ENDBRANCH 59 66
BRANCH 62 70
ATOM     70   C  A00 X   4      61.723  93.693  23.5180  0.00  0.00     0.000 C
ATOM     71   O  A00 X   4      63.074  97.013  23.0140  0.00  0.00     0.000 OA
ATOM     72   O  A00 X   4      63.597  95.372  24.6200  0.00  0.00     0.000 OA
ATOM     73   O  A00 X   4      62.049  94.914  22.8370  0.00  0.00     0.000 O
ATOM     74   O  A00 X   4      64.396  95.116  22.3320  0.00  0.00     0.000 OA
ATOM     75   S  A00 X   4      63.395  95.627  23.2110  0.00  0.00     0.000 S
ENDBRANCH 62 70
ENDBRANCH 57 61
ENDBRANCH 41 57
ENDBRANCH 40 44
ENDBRANCH 20 40
ENDBRANCH 19 23
ENDBRANCH 1 19
TORSDOF 14
ENDMDL
MODEL 71
REMARK VINA RESULT:       0.0     91.672     97.090
ROOT
ATOM      1  C1  A00 X   1      88.422  55.242  77.7710  0.00  0.00     0.000 C
ATOM      2  C2  A00 X   1      87.132  54.885  76.9850  0.00  0.00     0.000 C
ATOM      3  C3  A00 X   1      87.165  55.164  75.4460  0.00  0.00     0.000 C
ATOM      4  C4  A00 X   1      88.313  56.085  74.9580  0.00  0.00     0.000 C
ATOM      5  C5  A00 X   1      88.856  56.973  76.0780  0.00  0.00     0.000 C
ATOM      6  O5  A00 X   1      89.389  56.048  77.0530  0.00  0.00     0.000 O
ATOM      7   O  A00 X   1      85.947  55.801  75.0700  0.00  0.00     0.000 O
ATOM      9  HD  A00 X   1      86.586  56.199  74.6410  0.00  0.00     0.000 HD
ATOM      9   O  A00 X   1      89.378  55.331  74.3810  0.00  0.00     0.000 O
ATOM     11  HD  A00 X   1      90.017  55.729  73.9520  0.00  0.00     0.000 HD
ENDROOT
BRANCH 2 11
ATOM     11   O  A00 X   1      86.859  53.487  77.2020  0.00  0.00     0.000 O
ATOM     12   O  A00 X   1      85.108  52.337  76.0280  0.00  0.00     0.000 OA
ATOM     13   O  A00 X   1      84.532  54.144  77.5510  0.00  0.00     0.000 OA
ATOM     14   O  A00 X   1      85.406  52.096  78.3870  0.00  0.00     0.000 OA
ATOM     15   S  A00 X   1      85.368  53.008  77.2760  0.00  0.00     0.000 S
ENDBRANCH 2 11
BRANCH 5 16
ATOM     16   C  A00 X   1      87.848  57.967  76.6640  0.00  0.00     0.000 C
ATOM     17   O  A00 X   1      86.844  58.218  76.0290  0.00  0.00     0.000 OA
ATOM     18   O  A00 X   1      88.014  58.506  77.7400  0.00  0.00     0.000 OA
ENDBRANCH 5 16
BRANCH 1 19
ATOM     19  O4  A00 X   2      88.145  55.791  79.0820  0.00  0.00     0.000 O
BRANCH 19 23
ATOM     20  C1  A00 X   2      91.396  53.731  80.9680  0.00  0.00     0.000 C
ATOM     21  C2  A00 X   2      89.988  53.099  81.0810  0.00  0.00     0.000 C
ATOM     22  C3  A00 X   2      89.033  53.690  80.0230  0.00  0.00     0.000 C
ATOM     23  C4  A00 X   2      89.008  55.232  80.1150  0.00  0.00     0.000 C
ATOM     24  C5  A00 X   2      90.472  55.739  80.0080  0.00  0.00     0.000 C
ATOM     25  O5  A00 X   2      91.244  55.170  81.0970  0.00  0.00     0.000 O
ATOM     26   O  A00 X   2      87.763  53.024  80.1230  0.00  0.00     0.000 O
ATOM     28  HD  A00 X   2      87.710  53.146  80.9790  0.00  0.00     0.000 HD
BRANCH 21 30
ATOM     28   N  A00 X   2      90.346  52.630  82.4230  0.00  0.00     0.000 N
ATOM     30  HD  A00 X   2      89.643  52.186  82.1820  0.00  0.00     0.000 HD
ATOM     30   O  A00 X   2      89.227  50.617  82.8130  0.00  0.00     0.000 OA
ATOM     31   S  A00 X   2      89.231  51.946  83.3110  0.00  0.00     0.000 S
ATOM     32   O  A00 X   2      89.725  52.091  84.6450  0.00  0.00     0.000 OA
ATOM     33   O  A00 X   2      88.029  52.707  83.1410  0.00  0.00     0.000 OA
ENDBRANCH 21 30
BRANCH 24 34
ATOM     34   C  A00 X   2      90.704  57.259  79.8420  0.00  0.00     0.000 C
ATOM     35   O  A00 X   2      89.529  59.772  82.2000  0.00  0.00     0.000 OA
ATOM     36   O  A00 X   2      89.841  58.017  80.7130  0.00  0.00     0.000 O
ATOM     37   O  A00 X   2      90.905  57.943  82.7950  0.00  0.00     0.000 OA
ATOM     38   S  A00 X   2      90.579  58.902  81.7840  0.00  0.00     0.000 S
ATOM     39   O  A00 X   2      91.664  59.542  81.1020  0.00  0.00     0.000 OA
ENDBRANCH 24 34
BRANCH 20 40
ATOM     40  O4  A00 X   3      91.859  53.414  79.6470  0.00  0.00     0.000 O
BRANCH 40 44
ATOM     41  C1  A00 X   3      93.490  54.532  76.6120  0.00  0.00     0.000 C
ATOM     42  C2  A00 X   3      92.919  53.115  76.8340  0.00  0.00     0.000 C
ATOM     43  C3  A00 X   3      93.438  52.508  78.1620  0.00  0.00     0.000 C
ATOM     44  C4  A00 X   3      93.277  53.413  79.3770  0.00  0.00     0.000 C
ATOM     45  C5  A00 X   3      93.879  54.815  79.0800  0.00  0.00     0.000 C
ATOM     46  O5  A00 X   3      93.370  55.345  77.8130  0.00  0.00     0.000 O
ATOM     47   O  A00 X   3      93.043  51.164  78.4300  0.00  0.00     0.000 O
ATOM     49  HD  A00 X   3      92.972  51.465  79.2390  0.00  0.00     0.000 HD
BRANCH 42 49
ATOM     49   O  A00 X   3      91.479  53.234  76.8340  0.00  0.00     0.000 O
ATOM     50   O  A00 X   3      89.619  51.763  77.1560  0.00  0.00     0.000 OA
ATOM     51   O  A00 X   3      91.457  51.014  75.8720  0.00  0.00     0.000 OA
ATOM     52   O  A00 X   3      90.101  52.741  74.9980  0.00  0.00     0.000 OA
ATOM     53   S  A00 X   3      90.598  52.130  76.1820  0.00  0.00     0.000 S
ENDBRANCH 42 49
BRANCH 45 54
ATOM     54   C  A00 X   3      95.410  54.804  79.1570  0.00  0.00     0.000 C
ATOM     55   O  A00 X   3      96.018  53.756  79.2400  0.00  0.00     0.000 OA
ATOM     56   O  A00 X   3      96.046  55.847  79.1370  0.00  0.00     0.000 OA
ENDBRANCH 45 54
BRANCH 41 57
ATOM     57  O4  A00 X   4      94.827  54.489  76.0640  0.00  0.00     0.000 O
BRANCH 57 61
ATOM     58  C1  A00 X   4      96.986  57.087  73.3750  0.00  0.00     0.000 C
ATOM     59  C2  A00 X   4      96.511  57.657  74.7350  0.00  0.00     0.000 C
ATOM     60  C3  A00 X   4      96.083  56.570  75.7420  0.00  0.00     0.000 C
ATOM     61  C4  A00 X   4      95.133  55.536  75.0990  0.00  0.00     0.000 C
ATOM     62  C5  A00 X   4      95.891  54.942  73.8860  0.00  0.00     0.000 C
ATOM     63  O5  A00 X   4      96.151  55.996  72.9240  0.00  0.00     0.000 O
BRANCH 59 66
ATOM     64   N  A00 X   4      95.320  58.503  74.5340  0.00  0.00     0.000 N
ATOM     66  HD  A00 X   4      94.811  58.323  73.8570  0.00  0.00     0.000 HD
ATOM     66   O  A00 X   4      96.815  60.287  73.9180  0.00  0.00     0.000 OA
ATOM     67   S  A00 X   4      95.518  60.089  74.4850  0.00  0.00     0.000 S
ATOM     68   O  A00 X   4      94.415  60.461  73.6470  0.00  0.00     0.000 OA
ATOM     69   O  A00 X   4      95.337  60.410  75.8720  0.00  0.00     0.000 OA
ENDBRANCH 59 66
BRANCH 62 70
ATOM     70   C  A00 X   4      95.138  53.797  73.1690  0.00  0.00     0.000 C
ATOM     71   O  A00 X   4      92.100  53.967  71.2080  0.00  0.00     0.000 OA
ATOM     72   O  A00 X   4      92.713  52.523  72.9640  0.00  0.00     0.000 OA
ATOM     73   O  A00 X   4      94.129  54.355  72.3120  0.00  0.00     0.000 O
ATOM     74   O  A00 X   4      92.064  54.819  73.4640  0.00  0.00     0.000 OA
ATOM     75   S  A00 X   4      92.644  53.903  72.5350  0.00  0.00     0.000 S
ENDBRANCH 62 70
ENDBRANCH 57 61
ENDBRANCH 41 57
ENDBRANCH 40 44
ENDBRANCH 20 40
ENDBRANCH 19 23
ENDBRANCH 1 19
TORSDOF 14
ENDMDL
MODEL 72
REMARK VINA RESULT:       0.0    108.540    112.140
ROOT
ATOM      1  C1  A00 X   1      71.588  48.708  24.1320  0.00  0.00     0.000 C
ATOM      2  C2  A00 X   1      71.315  47.264  23.6340  0.00  0.00     0.000 C
ATOM      3  C3  A00 X   1      72.434  46.212  23.9300  0.00  0.00     0.000 C
ATOM      4  C4  A00 X   1      73.809  46.796  24.3420  0.00  0.00     0.000 C
ATOM      5  C5  A00 X   1      73.988  48.239  23.8700  0.00  0.00     0.000 C
ATOM      6  O5  A00 X   1      72.949  48.979  24.5500  0.00  0.00     0.000 O
ATOM      7   O  A00 X   1      72.659  45.440  22.7520  0.00  0.00     0.000 O
ATOM      9  HD  A00 X   1      73.434  45.609  23.0980  0.00  0.00     0.000 HD
ATOM      9   O  A00 X   1      74.005  46.723  25.7540  0.00  0.00     0.000 O
ATOM     11  HD  A00 X   1      74.781  46.892  26.1000  0.00  0.00     0.000 HD
ENDROOT
BRANCH 2 11
ATOM     11   O  A00 X   1      70.082  46.819  24.2340  0.00  0.00     0.000 O
ATOM     12   O  A00 X   1      69.310  44.555  24.0200  0.00  0.00     0.000 OA
ATOM     13   O  A00 X   1      69.495  45.943  22.0300  0.00  0.00     0.000 OA
ATOM     14   O  A00 X   1      67.850  46.417  23.6810  0.00  0.00     0.000 OA
ATOM     15   S  A00 X   1      69.148  45.857  23.4220  0.00  0.00     0.000 S
ENDBRANCH 2 11
BRANCH 5 16
ATOM     16   C  A00 X   1      73.981  48.429  22.3500  0.00  0.00     0.000 C
ATOM     17   O  A00 X   1      74.160  47.459  21.6420  0.00  0.00     0.000 OA
ATOM     18   O  A00 X   1      73.797  49.512  21.8290  0.00  0.00     0.000 OA
ENDBRANCH 5 16
BRANCH 1 19
ATOM     19  O4  A00 X   2      71.106  49.719  23.2140  0.00  0.00     0.000 O
BRANCH 19 23
ATOM     20  C1  A00 X   2      69.726  52.327  26.3220  0.00  0.00     0.000 C
ATOM     21  C2  A00 X   2      68.683  51.403  25.6490  0.00  0.00     0.000 C
ATOM     22  C3  A00 X   2      69.376  50.252  24.8900  0.00  0.00     0.000 C
ATOM     23  C4  A00 X   2      70.417  50.808  23.8930  0.00  0.00     0.000 C
ATOM     24  C5  A00 X   2      71.388  51.728  24.6830  0.00  0.00     0.000 C
ATOM     25  O5  A00 X   2      70.625  52.805  25.2860  0.00  0.00     0.000 O
ATOM     26   O  A00 X   2      68.367  49.387  24.3430  0.00  0.00     0.000 O
ATOM     28  HD  A00 X   2      67.930  50.041  23.9820  0.00  0.00     0.000 HD
BRANCH 21 30
ATOM     28   N  A00 X   2      67.687  52.467  25.8050  0.00  0.00     0.000 N
ATOM     30  HD  A00 X   2      67.250  51.737  25.6400  0.00  0.00     0.000 HD
ATOM     30   O  A00 X   2      65.599  51.468  26.1260  0.00  0.00     0.000 OA
ATOM     31   S  A00 X   2      66.258  52.270  25.1570  0.00  0.00     0.000 S
ATOM     32   O  A00 X   2      65.756  53.603  25.0340  0.00  0.00     0.000 OA
ATOM     33   O  A00 X   2      66.457  51.692  23.8620  0.00  0.00     0.000 OA
ENDBRANCH 21 30
BRANCH 24 34
ATOM     34   C  A00 X   2      72.661  52.229  23.9620  0.00  0.00     0.000 C
ATOM     35   O  A00 X   2      73.391  55.737  23.3120  0.00  0.00     0.000 OA
ATOM     36   O  A00 X   2      72.516  53.599  23.5360  0.00  0.00     0.000 O
ATOM     37   O  A00 X   2      72.944  54.856  25.4610  0.00  0.00     0.000 OA
ATOM     38   S  A00 X   2      73.531  54.613  24.1790  0.00  0.00     0.000 S
ATOM     39   O  A00 X   2      74.814  53.977  24.1460  0.00  0.00     0.000 OA
ENDBRANCH 24 34
BRANCH 20 40
ATOM     40  O4  A00 X   3      70.451  51.492  27.2370  0.00  0.00     0.000 O
BRANCH 40 44
ATOM     41  C1  A00 X   3      73.648  50.500  28.6220  0.00  0.00     0.000 C
ATOM     42  C2  A00 X   3      72.289  49.878  29.0110  0.00  0.00     0.000 C
ATOM     43  C3  A00 X   3      71.261  50.977  29.3820  0.00  0.00     0.000 C
ATOM     44  C4  A00 X   3      71.133  52.097  28.3570  0.00  0.00     0.000 C
ATOM     45  C5  A00 X   3      72.537  52.674  28.0220  0.00  0.00     0.000 C
ATOM     46  O5  A00 X   3      73.478  51.602  27.6880  0.00  0.00     0.000 O
ATOM     47   O  A00 X   3      69.993  50.513  29.8410  0.00  0.00     0.000 O
ATOM     49  HD  A00 X   3      69.704  51.181  29.3710  0.00  0.00     0.000 HD
BRANCH 42 49
ATOM     49   O  A00 X   3      71.843  49.097  27.8800  0.00  0.00     0.000 O
ATOM     50   O  A00 X   3      69.910  47.798  27.3260  0.00  0.00     0.000 OA
ATOM     51   O  A00 X   3      70.809  47.634  29.5070  0.00  0.00     0.000 OA
ATOM     52   O  A00 X   3      72.064  46.766  27.7030  0.00  0.00     0.000 OA
ATOM     53   S  A00 X   3      71.110  47.742  28.1010  0.00  0.00     0.000 S
ENDBRANCH 42 49
BRANCH 45 54
ATOM     54   C  A00 X   3      73.049  53.601  29.1310  0.00  0.00     0.000 C
ATOM     55   O  A00 X   3      72.375  53.816  30.1180  0.00  0.00     0.000 OA
ATOM     56   O  A00 X   3      74.140  54.142  29.0410  0.00  0.00     0.000 OA
ENDBRANCH 45 54
BRANCH 41 57
ATOM     57  O4  A00 X   4      74.434  50.835  29.7880  0.00  0.00     0.000 O
BRANCH 57 61
ATOM     58  C1  A00 X   4      78.681  50.844  30.5630  0.00  0.00     0.000 C
ATOM     59  C2  A00 X   4      78.128  51.777  29.4570  0.00  0.00     0.000 C
ATOM     60  C3  A00 X   4      76.597  51.957  29.5140  0.00  0.00     0.000 C
ATOM     61  C4  A00 X   4      75.866  50.604  29.6550  0.00  0.00     0.000 C
ATOM     62  C5  A00 X   4      76.423  49.939  30.9370  0.00  0.00     0.000 C
ATOM     63  O5  A00 X   4      77.841  49.685  30.7660  0.00  0.00     0.000 O
BRANCH 59 66
ATOM     64   N  A00 X   4      78.387  51.265  28.0990  0.00  0.00     0.000 N
ATOM     66  HD  A00 X   4      78.437  50.406  27.9980  0.00  0.00     0.000 HD
ATOM     66   O  A00 X   4      80.619  52.146  28.3010  0.00  0.00     0.000 OA
ATOM     67   S  A00 X   4      79.645  51.843  27.2990  0.00  0.00     0.000 S
ATOM     68   O  A00 X   4      79.953  50.724  26.4580  0.00  0.00     0.000 OA
ATOM     69   O  A00 X   4      79.026  52.942  26.6130  0.00  0.00     0.000 OA
ENDBRANCH 59 66
BRANCH 62 70
ATOM     70   C  A00 X   4      75.728  48.608  31.3130  0.00  0.00     0.000 C
ATOM     71   O  A00 X   4      75.869  45.422  29.6000  0.00  0.00     0.000 OA
ATOM     72   O  A00 X   4      74.028  46.658  30.3930  0.00  0.00     0.000 OA
ATOM     73   O  A00 X   4      76.259  47.549  30.5000  0.00  0.00     0.000 O
ATOM     74   O  A00 X   4      75.168  47.367  28.3590  0.00  0.00     0.000 OA
ATOM     75   S  A00 X   4      75.254  46.719  29.6280  0.00  0.00     0.000 S
ENDBRANCH 62 70
ENDBRANCH 57 61
ENDBRANCH 41 57
ENDBRANCH 40 44
ENDBRANCH 20 40
ENDBRANCH 19 23
ENDBRANCH 1 19
TORSDOF 14
ENDMDL
MODEL 73
REMARK VINA RESULT:       0.1     17.963     21.533
ROOT
ATOM      1  C1  A00 X   1      12.718  40.215 101.8620  0.00  0.00     0.000 C
ATOM      2  C2  A00 X   1      11.718  39.218 101.2170  0.00  0.00     0.000 C
ATOM      3  C3  A00 X   1      10.504  38.791 102.1060  0.00  0.00     0.000 C
ATOM      4  C4  A00 X   1      10.637  39.111 103.6180  0.00  0.00     0.000 C
ATOM      5  C5  A00 X   1      12.095  39.275 104.0470  0.00  0.00     0.000 C
ATOM      6  O5  A00 X   1      12.575  40.409 103.2910  0.00  0.00     0.000 O
ATOM      7   O  A00 X   1      10.337  37.379 102.0050  0.00  0.00     0.000 O
ATOM      9  HD  A00 X   1      10.219  37.591 102.8360  0.00  0.00     0.000 HD
ATOM      9   O  A00 X   1       9.896  40.279 103.9700  0.00  0.00     0.000 O
ATOM     11  HD  A00 X   1       9.778  40.491 104.8020  0.00  0.00     0.000 HD
ENDROOT
BRANCH 2 11
ATOM     11   O  A00 X   1      11.223  39.817 100.0040  0.00  0.00     0.000 O
ATOM     12   O  A00 X   1       9.390  38.869  98.7760  0.00  0.00     0.000 OA
ATOM     13   O  A00 X   1      11.458  37.607  98.9890  0.00  0.00     0.000 OA
ATOM     14   O  A00 X   1      11.389  39.595  97.6850  0.00  0.00     0.000 OA
ATOM     15   S  A00 X   1      10.830  38.886  98.8050  0.00  0.00     0.000 S
ENDBRANCH 2 11
BRANCH 5 16
ATOM     16   C  A00 X   1      12.961  38.021 103.8890  0.00  0.00     0.000 C
ATOM     17   O  A00 X   1      12.413  36.958 103.6840  0.00  0.00     0.000 OA
ATOM     18   O  A00 X   1      14.174  38.054 103.9550  0.00  0.00     0.000 OA
ENDBRANCH 5 16
BRANCH 1 19
ATOM     19  O4  A00 X   2      14.094  39.941 101.5010  0.00  0.00     0.000 O
BRANCH 19 23
ATOM     20  C1  A00 X   2      15.153  44.082 101.1890  0.00  0.00     0.000 C
ATOM     21  C2  A00 X   2      14.821  43.328  99.8780  0.00  0.00     0.000 C
ATOM     22  C3  A00 X   2      14.058  42.021 100.1740  0.00  0.00     0.000 C
ATOM     23  C4  A00 X   2      14.840  41.151 101.1840  0.00  0.00     0.000 C
ATOM     24  C5  A00 X   2      15.125  42.022 102.4390  0.00  0.00     0.000 C
ATOM     25  O5  A00 X   2      15.908  43.177 102.0380  0.00  0.00     0.000 O
ATOM     26   O  A00 X   2      13.714  41.395  98.9260  0.00  0.00     0.000 O
ATOM     28  HD  A00 X   2      14.521  41.453  98.6170  0.00  0.00     0.000 HD
BRANCH 21 30
ATOM     28   N  A00 X   2      15.830  44.145  99.1970  0.00  0.00     0.000 N
ATOM     30  HD  A00 X   2      15.344  43.782  98.5800  0.00  0.00     0.000 HD
ATOM     30   O  A00 X   2      15.144  44.454  96.9850  0.00  0.00     0.000 OA
ATOM     31   S  A00 X   2      16.191  43.809  97.6950  0.00  0.00     0.000 S
ATOM     32   O  A00 X   2      17.486  44.389  97.5200  0.00  0.00     0.000 OA
ATOM     33   O  A00 X   2      16.266  42.383  97.5870  0.00  0.00     0.000 OA
ENDBRANCH 21 30
BRANCH 24 34
ATOM     34   C  A00 X   2      15.695  41.321 103.6940  0.00  0.00     0.000 C
ATOM     35   O  A00 X   2      18.838  39.484 103.7560  0.00  0.00     0.000 OA
ATOM     36   O  A00 X   2      16.743  40.394 103.3450  0.00  0.00     0.000 O
ATOM     37   O  A00 X   2      18.638  41.737 103.0650  0.00  0.00     0.000 OA
ATOM     38   S  A00 X   2      18.157  40.721 103.9510  0.00  0.00     0.000 S
ATOM     39   O  A00 X   2      17.937  41.084 105.3190  0.00  0.00     0.000 OA
ENDBRANCH 24 34
BRANCH 20 40
ATOM     40  O4  A00 X   3      13.888  44.371 101.8010  0.00  0.00     0.000 O
BRANCH 40 44
ATOM     41  C1  A00 X   3      11.875  44.466 104.8120  0.00  0.00     0.000 C
ATOM     42  C2  A00 X   3      11.369  44.842 103.4020  0.00  0.00     0.000 C
ATOM     43  C3  A00 X   3      12.321  45.859 102.7230  0.00  0.00     0.000 C
ATOM     44  C4  A00 X   3      13.791  45.461 102.7420  0.00  0.00     0.000 C
ATOM     45  C5  A00 X   3      14.227  45.104 104.1920  0.00  0.00     0.000 C
ATOM     46  O5  A00 X   3      13.295  44.150 104.7970  0.00  0.00     0.000 O
ATOM     47   O  A00 X   3      11.906  46.345 101.4480  0.00  0.00     0.000 O
ATOM     49  HD  A00 X   3      12.751  46.278 101.2720  0.00  0.00     0.000 HD
BRANCH 42 49
ATOM     49   O  A00 X   3      11.279  43.615 102.6440  0.00  0.00     0.000 O
ATOM     50   O  A00 X   3      10.666  42.998 100.4140  0.00  0.00     0.000 OA
ATOM     51   O  A00 X   3       9.377  44.627 101.5420  0.00  0.00     0.000 OA
ATOM     52   O  A00 X   3       9.299  42.396 102.3160  0.00  0.00     0.000 OA
ATOM     53   S  A00 X   3      10.092  43.381 101.6650  0.00  0.00     0.000 S
ENDBRANCH 42 49
BRANCH 45 54
ATOM     54   C  A00 X   3      14.444  46.360 105.0450  0.00  0.00     0.000 C
ATOM     55   O  A00 X   3      14.814  46.268 106.1970  0.00  0.00     0.000 OA
ATOM     56   O  A00 X   3      14.248  47.472 104.5810  0.00  0.00     0.000 OA
ENDBRANCH 45 54
BRANCH 41 57
ATOM     57  O4  A00 X   4      11.505  45.460 105.7940  0.00  0.00     0.000 O
BRANCH 57 61
ATOM     58  C1  A00 X   4      10.467  45.210 109.9770  0.00  0.00     0.000 C
ATOM     59  C2  A00 X   4      11.877  44.746 109.5340  0.00  0.00     0.000 C
ATOM     60  C3  A00 X   4      12.259  45.209 108.1140  0.00  0.00     0.000 C
ATOM     61  C4  A00 X   4      11.130  44.930 107.0970  0.00  0.00     0.000 C
ATOM     62  C5  A00 X   4       9.873  45.661 107.6310  0.00  0.00     0.000 C
ATOM     63  O5  A00 X   4       9.498  45.091 108.9110  0.00  0.00     0.000 O
BRANCH 59 66
ATOM     64   N  A00 X   4      11.992  43.277 109.4900  0.00  0.00     0.000 N
ATOM     66  HD  A00 X   4      11.274  42.825 109.3200  0.00  0.00     0.000 HD
ATOM     66   O  A00 X   4      12.319  43.331 111.8750  0.00  0.00     0.000 OA
ATOM     67   S  A00 X   4      12.657  42.532 110.7390  0.00  0.00     0.000 S
ATOM     68   O  A00 X   4      11.999  41.260 110.6620  0.00  0.00     0.000 OA
ATOM     69   O  A00 X   4      14.030  42.510 110.3200  0.00  0.00     0.000 OA
ENDBRANCH 59 66
BRANCH 62 70
ATOM     70   C  A00 X   4       8.651  45.590 106.6840  0.00  0.00     0.000 C
ATOM     71   O  A00 X   4       6.601  42.726 105.8480  0.00  0.00     0.000 OA
ATOM     72   O  A00 X   4       7.633  44.329 104.4670  0.00  0.00     0.000 OA
ATOM     73   O  A00 X   4       8.000  44.320 106.8440  0.00  0.00     0.000 O
ATOM     74   O  A00 X   4       8.982  42.581 105.4970  0.00  0.00     0.000 OA
ATOM     75   S  A00 X   4       7.829  43.418 105.5720  0.00  0.00     0.000 S
ENDBRANCH 62 70
ENDBRANCH 57 61
ENDBRANCH 41 57
ENDBRANCH 40 44
ENDBRANCH 20 40
ENDBRANCH 19 23
ENDBRANCH 1 19
TORSDOF 14
ENDMDL
MODEL 74
REMARK VINA RESULT:       0.1    120.599    126.210
ROOT
ATOM      1  C1  A00 X   1     109.781  52.380  45.5820  0.00  0.00     0.000 C
ATOM      2  C2  A00 X   1     110.723  51.416  46.3520  0.00  0.00     0.000 C
ATOM      3  C3  A00 X   1     110.162  49.982  46.6290  0.00  0.00     0.000 C
ATOM      4  C4  A00 X   1     108.632  49.814  46.4360  0.00  0.00     0.000 C
ATOM      5  C5  A00 X   1     107.887  51.144  46.5480  0.00  0.00     0.000 C
ATOM      6  O5  A00 X   1     108.403  51.947  45.4620  0.00  0.00     0.000 O
ATOM      7   O  A00 X   1     110.440  49.635  47.9830  0.00  0.00     0.000 O
ATOM      9  HD  A00 X   1     109.635  49.364  47.8100  0.00  0.00     0.000 HD
ATOM      9   O  A00 X   1     108.329  49.194  45.1870  0.00  0.00     0.000 O
ATOM     11  HD  A00 X   1     107.525  48.923  45.0130  0.00  0.00     0.000 HD
ENDROOT
BRANCH 2 11
ATOM     11   O  A00 X   1     111.946  51.304  45.6000  0.00  0.00     0.000 O
ATOM     12   O  A00 X   1     113.669  49.743  46.2020  0.00  0.00     0.000 OA
ATOM     13   O  A00 X   1     113.110  51.548  47.7340  0.00  0.00     0.000 OA
ATOM     14   O  A00 X   1     114.170  52.015  45.6560  0.00  0.00     0.000 OA
ATOM     15   S  A00 X   1     113.298  51.125  46.3740  0.00  0.00     0.000 S
ENDBRANCH 2 11
BRANCH 5 16
ATOM     16   C  A00 X   1     107.983  51.828  47.9150  0.00  0.00     0.000 C
ATOM     17   O  A00 X   1     107.613  52.979  48.0170  0.00  0.00     0.000 OA
ATOM     18   O  A00 X   1     108.409  51.258  48.9000  0.00  0.00     0.000 OA
ENDBRANCH 5 16
BRANCH 1 19
ATOM     19  O4  A00 X   2     109.866  53.746  46.0570  0.00  0.00     0.000 O
BRANCH 19 23
ATOM     20  C1  A00 X   2     109.577  55.453  42.1370  0.00  0.00     0.000 C
ATOM     21  C2  A00 X   2     110.991  55.296  42.7460  0.00  0.00     0.000 C
ATOM     22  C3  A00 X   2     110.975  54.301  43.9250  0.00  0.00     0.000 C
ATOM     23  C4  A00 X   2     109.914  54.714  44.9700  0.00  0.00     0.000 C
ATOM     24  C5  A00 X   2     108.553  54.854  44.2350  0.00  0.00     0.000 C
ATOM     25  O5  A00 X   2     108.682  55.867  43.2030  0.00  0.00     0.000 O
ATOM     26   O  A00 X   2     112.319  54.139  44.4100  0.00  0.00     0.000 O
ATOM     28  HD  A00 X   2     112.455  54.992  44.4680  0.00  0.00     0.000 HD
BRANCH 21 30
ATOM     28   N  A00 X   2     111.379  56.535  42.0650  0.00  0.00     0.000 N
ATOM     30  HD  A00 X   2     112.112  56.143  42.3070  0.00  0.00     0.000 HD
ATOM     30   O  A00 X   2     113.645  56.386  41.5180  0.00  0.00     0.000 OA
ATOM     31   S  A00 X   2     112.802  57.153  42.3650  0.00  0.00     0.000 S
ATOM     32   O  A00 X   2     112.661  58.527  41.9940  0.00  0.00     0.000 OA
ATOM     33   O  A00 X   2     113.024  57.039  43.7760  0.00  0.00     0.000 OA
ENDBRANCH 21 30
BRANCH 24 34
ATOM     34   C  A00 X   2     107.280  55.036  45.0940  0.00  0.00     0.000 C
ATOM     35   O  A00 X   2     105.184  58.013  45.0340  0.00  0.00     0.000 OA
ATOM     36   O  A00 X   2     106.866  56.416  45.1310  0.00  0.00     0.000 O
ATOM     37   O  A00 X   2     105.720  56.735  43.1180  0.00  0.00     0.000 OA
ATOM     38   S  A00 X   2     105.446  56.708  44.5220  0.00  0.00     0.000 S
ATOM     39   O  A00 X   2     104.578  55.679  45.0090  0.00  0.00     0.000 OA
ENDBRANCH 24 34
BRANCH 20 40
ATOM     40  O4  A00 X   3     109.204  54.144  41.6800  0.00  0.00     0.000 O
BRANCH 40 44
ATOM     41  C1  A00 X   3     106.636  51.596  41.4950  0.00  0.00     0.000 C
ATOM     42  C2  A00 X   3     108.068  51.445  40.9360  0.00  0.00     0.000 C
ATOM     43  C3  A00 X   3     108.442  52.650  40.0350  0.00  0.00     0.000 C
ATOM     44  C4  A00 X   3     108.187  54.014  40.6640  0.00  0.00     0.000 C
ATOM     45  C5  A00 X   3     106.728  54.090  41.1970  0.00  0.00     0.000 C
ATOM     46  O5  A00 X   3     106.416  52.929  42.0330  0.00  0.00     0.000 O
ATOM     47   O  A00 X   3     109.713  52.576  39.3930  0.00  0.00     0.000 O
ATOM     49  HD  A00 X   3     109.731  53.422  39.5810  0.00  0.00     0.000 HD
BRANCH 42 49
ATOM     49   O  A00 X   3     108.956  51.338  42.0700  0.00  0.00     0.000 O
ATOM     50   O  A00 X   3     111.319  51.155  42.4090  0.00  0.00     0.000 OA
ATOM     51   O  A00 X   3     110.317  49.916  40.6630  0.00  0.00     0.000 OA
ATOM     52   O  A00 X   3     109.824  49.318  42.8960  0.00  0.00     0.000 OA
ATOM     53   S  A00 X   3     110.182  50.381  42.0210  0.00  0.00     0.000 S
ENDBRANCH 42 49
BRANCH 45 54
ATOM     54   C  A00 X   3     105.720  54.305  40.0620  0.00  0.00     0.000 C
ATOM     55   O  A00 X   3     104.618  54.761  40.2910  0.00  0.00     0.000 OA
ATOM     56   O  A00 X   3     106.006  54.021  38.9100  0.00  0.00     0.000 OA
ENDBRANCH 45 54
BRANCH 41 57
ATOM     57  O4  A00 X   4     105.641  51.178  40.5340  0.00  0.00     0.000 O
BRANCH 57 61
ATOM     58  C1  A00 X   4     101.602  49.701  40.9130  0.00  0.00     0.000 C
ATOM     59  C2  A00 X   4     101.851  51.223  41.0560  0.00  0.00     0.000 C
ATOM     60  C3  A00 X   4     103.239  51.669  40.5530  0.00  0.00     0.000 C
ATOM     61  C4  A00 X   4     104.365  50.768  41.1040  0.00  0.00     0.000 C
ATOM     62  C5  A00 X   4     104.022  49.323  40.6650  0.00  0.00     0.000 C
ATOM     63  O5  A00 X   4     102.768  48.925  41.2750  0.00  0.00     0.000 O
BRANCH 59 66
ATOM     64   N  A00 X   4     101.805  51.637  42.4710  0.00  0.00     0.000 N
ATOM     66  HD  A00 X   4     102.027  51.049  43.0670  0.00  0.00     0.000 HD
ATOM     66   O  A00 X   4      99.405  51.668  42.2790  0.00  0.00     0.000 OA
ATOM     67   S  A00 X   4     100.454  52.289  43.0250  0.00  0.00     0.000 S
ATOM     68   O  A00 X   4     100.534  51.915  44.4070  0.00  0.00     0.000 OA
ATOM     69   O  A00 X   4     100.722  53.677  42.7750  0.00  0.00     0.000 OA
ENDBRANCH 59 66
BRANCH 62 70
ATOM     70   C  A00 X   4     105.102  48.277  41.0330  0.00  0.00     0.000 C
ATOM     71   O  A00 X   4     105.518  46.452  44.1310  0.00  0.00     0.000 OA
ATOM     72   O  A00 X   4     107.072  47.667  42.8460  0.00  0.00     0.000 OA
ATOM     73   O  A00 X   4     104.739  47.634  42.2650  0.00  0.00     0.000 O
ATOM     74   O  A00 X   4     105.446  48.861  44.2140  0.00  0.00     0.000 OA
ATOM     75   S  A00 X   4     105.760  47.694  43.4530  0.00  0.00     0.000 S
ENDBRANCH 62 70
ENDBRANCH 57 61
ENDBRANCH 41 57
ENDBRANCH 40 44
ENDBRANCH 20 40
ENDBRANCH 19 23
ENDBRANCH 1 19
TORSDOF 14
ENDMDL
MODEL 75
REMARK VINA RESULT:       0.1    103.097    108.394
ROOT
ATOM      1  C1  A00 X   1      78.802  80.954  58.1740  0.00  0.00     0.000 C
ATOM      2  C2  A00 X   1      77.845  81.725  57.2260  0.00  0.00     0.000 C
ATOM      3  C3  A00 X   1      78.373  83.093  56.6790  0.00  0.00     0.000 C
ATOM      4  C4  A00 X   1      79.601  83.680  57.4220  0.00  0.00     0.000 C
ATOM      5  C5  A00 X   1      79.735  83.130  58.8410  0.00  0.00     0.000 C
ATOM      6  O5  A00 X   1      79.937  81.709  58.6670  0.00  0.00     0.000 O
ATOM      7   O  A00 X   1      77.332  84.061  56.7890  0.00  0.00     0.000 O
ATOM      9  HD  A00 X   1      78.069  84.450  57.0250  0.00  0.00     0.000 HD
ATOM      9   O  A00 X   1      80.809  83.446  56.6980  0.00  0.00     0.000 O
ATOM     11  HD  A00 X   1      81.546  83.835  56.9330  0.00  0.00     0.000 HD
ENDROOT
BRANCH 2 11
ATOM     11   O  A00 X   1      77.539  80.862  56.1140  0.00  0.00     0.000 O
ATOM     12   O  A00 X   1      76.307  81.638  54.2050  0.00  0.00     0.000 OA
ATOM     13   O  A00 X   1      75.220  81.581  56.3800  0.00  0.00     0.000 OA
ATOM     14   O  A00 X   1      75.796  79.559  55.2680  0.00  0.00     0.000 OA
ATOM     15   S  A00 X   1      76.119  80.947  55.4560  0.00  0.00     0.000 S
ENDBRANCH 2 11
BRANCH 5 16
ATOM     16   C  A00 X   1      78.575  83.473  59.7810  0.00  0.00     0.000 C
ATOM     17   O  A00 X   1      78.503  82.901  60.8490  0.00  0.00     0.000 OA
ATOM     18   O  A00 X   1      77.731  84.301  59.5000  0.00  0.00     0.000 OA
ENDBRANCH 5 16
BRANCH 1 19
ATOM     19  O4  A00 X   2      78.105  80.284  59.2520  0.00  0.00     0.000 O
BRANCH 19 23
ATOM     20  C1  A00 X   2      80.599  76.802  59.1150  0.00  0.00     0.000 C
ATOM     21  C2  A00 X   2      79.245  76.740  58.3680  0.00  0.00     0.000 C
ATOM     22  C3  A00 X   2      78.678  78.157  58.1400  0.00  0.00     0.000 C
ATOM     23  C4  A00 X   2      78.593  78.930  59.4760  0.00  0.00     0.000 C
ATOM     24  C5  A00 X   2      80.001  78.903  60.1300  0.00  0.00     0.000 C
ATOM     25  O5  A00 X   2      80.385  77.522  60.3570  0.00  0.00     0.000 O
ATOM     26   O  A00 X   2      77.459  78.050  57.3860  0.00  0.00     0.000 O
ATOM     28  HD  A00 X   2      77.126  77.449  57.9130  0.00  0.00     0.000 HD
BRANCH 21 30
ATOM     28   N  A00 X   2      79.155  75.321  58.7260  0.00  0.00     0.000 N
ATOM     30  HD  A00 X   2      78.577  75.458  58.0950  0.00  0.00     0.000 HD
ATOM     30   O  A00 X   2      78.009  74.212  57.0190  0.00  0.00     0.000 OA
ATOM     31   S  A00 X   2      77.825  74.537  58.3890  0.00  0.00     0.000 S
ATOM     32   O  A00 X   2      77.854  73.421  59.2840  0.00  0.00     0.000 OA
ATOM     33   O  A00 X   2      76.730  75.403  58.7090  0.00  0.00     0.000 OA
ENDBRANCH 21 30
BRANCH 24 34
ATOM     34   C  A00 X   2      80.243  79.801  61.3660  0.00  0.00     0.000 C
ATOM     35   O  A00 X   2      81.040  78.533  64.6850  0.00  0.00     0.000 OA
ATOM     36   O  A00 X   2      80.184  79.037  62.5870  0.00  0.00     0.000 O
ATOM     37   O  A00 X   2      82.286  78.021  62.7410  0.00  0.00     0.000 OA
ATOM     38   S  A00 X   2      81.513  79.011  63.4280  0.00  0.00     0.000 S
ATOM     39   O  A00 X   2      82.012  80.353  63.4370  0.00  0.00     0.000 OA
ENDBRANCH 24 34
BRANCH 20 40
ATOM     40  O4  A00 X   3      81.475  77.559  58.2670  0.00  0.00     0.000 O
BRANCH 40 44
ATOM     41  C1  A00 X   3      83.973  80.171  58.0130  0.00  0.00     0.000 C
ATOM     42  C2  A00 X   3      83.401  79.380  56.8160  0.00  0.00     0.000 C
ATOM     43  C3  A00 X   3      83.477  77.853  57.0720  0.00  0.00     0.000 C
ATOM     44  C4  A00 X   3      82.904  77.406  58.4110  0.00  0.00     0.000 C
ATOM     45  C5  A00 X   3      83.530  78.242  59.5630  0.00  0.00     0.000 C
ATOM     46  O5  A00 X   3      83.446  79.675  59.2750  0.00  0.00     0.000 O
ATOM     47   O  A00 X   3      83.055  77.019  55.9950  0.00  0.00     0.000 O
ATOM     49  HD  A00 X   3      82.716  76.550  56.6390  0.00  0.00     0.000 HD
BRANCH 42 49
ATOM     49   O  A00 X   3      82.037  79.818  56.6330  0.00  0.00     0.000 O
ATOM     50   O  A00 X   3      80.210  79.240  55.1990  0.00  0.00     0.000 OA
ATOM     51   O  A00 X   3      82.384  79.377  54.2790  0.00  0.00     0.000 OA
ATOM     52   O  A00 X   3      81.343  81.368  55.0120  0.00  0.00     0.000 OA
ATOM     53   S  A00 X   3      81.443  79.962  55.2020  0.00  0.00     0.000 S
ENDBRANCH 42 49
BRANCH 45 54
ATOM     54   C  A00 X   3      84.952  77.775  59.8950  0.00  0.00     0.000 C
ATOM     55   O  A00 X   3      85.448  78.021  60.9750  0.00  0.00     0.000 OA
ATOM     56   O  A00 X   3      85.612  77.151  59.0780  0.00  0.00     0.000 OA
ENDBRANCH 45 54
BRANCH 41 57
ATOM     57  O4  A00 X   4      85.416  80.240  57.9670  0.00  0.00     0.000 O
BRANCH 57 61
ATOM     58  C1  A00 X   4      88.295  83.021  59.5840  0.00  0.00     0.000 C
ATOM     59  C2  A00 X   4      87.667  81.969  60.5320  0.00  0.00     0.000 C
ATOM     60  C3  A00 X   4      86.947  80.825  59.7900  0.00  0.00     0.000 C
ATOM     61  C4  A00 X   4      86.004  81.358  58.6900  0.00  0.00     0.000 C
ATOM     62  C5  A00 X   4      86.882  82.210  57.7390  0.00  0.00     0.000 C
ATOM     63  O5  A00 X   4      87.425  83.337  58.4730  0.00  0.00     0.000 O
BRANCH 59 66
ATOM     64   N  A00 X   4      86.636  82.587  61.3850  0.00  0.00     0.000 N
ATOM     66  HD  A00 X   4      86.219  83.279  61.0720  0.00  0.00     0.000 HD
ATOM     66   O  A00 X   4      88.417  83.348  62.8160  0.00  0.00     0.000 OA
ATOM     67   S  A00 X   4      87.033  82.994  62.8800  0.00  0.00     0.000 S
ATOM     68   O  A00 X   4      86.128  84.084  63.1010  0.00  0.00     0.000 OA
ATOM     69   O  A00 X   4      86.681  81.788  63.5730  0.00  0.00     0.000 OA
ENDBRANCH 59 66
BRANCH 62 70
ATOM     70   C  A00 X   4      86.130  82.748  56.4980  0.00  0.00     0.000 C
ATOM     71   O  A00 X   4      84.085  85.721  56.2050  0.00  0.00     0.000 OA
ATOM     72   O  A00 X   4      83.664  83.499  55.5510  0.00  0.00     0.000 OA
ATOM     73   O  A00 X   4      85.656  84.077  56.7690  0.00  0.00     0.000 O
ATOM     74   O  A00 X   4      83.532  84.106  57.9080  0.00  0.00     0.000 OA
ATOM     75   S  A00 X   4      84.118  84.349  56.6290  0.00  0.00     0.000 S
ENDBRANCH 62 70
ENDBRANCH 57 61
ENDBRANCH 41 57
ENDBRANCH 40 44
ENDBRANCH 20 40
ENDBRANCH 19 23
ENDBRANCH 1 19
TORSDOF 14
ENDMDL
MODEL 76
REMARK VINA RESULT:       0.1    105.209    109.235
ROOT
ATOM      1  C1  A00 X   1      78.802  80.954  58.1740  0.00  0.00     0.000 C
ATOM      2  C2  A00 X   1      77.456  81.396  57.5390  0.00  0.00     0.000 C
ATOM      3  C3  A00 X   1      77.256  82.937  57.3550  0.00  0.00     0.000 C
ATOM      4  C4  A00 X   1      78.238  83.838  58.1480  0.00  0.00     0.000 C
ATOM      5  C5  A00 X   1      78.844  83.114  59.3500  0.00  0.00     0.000 C
ATOM      6  O5  A00 X   1      79.586  82.012  58.7800  0.00  0.00     0.000 O
ATOM      7   O  A00 X   1      75.945  83.283  57.7940  0.00  0.00     0.000 O
ATOM      9  HD  A00 X   1      76.481  83.901  58.0790  0.00  0.00     0.000 HD
ATOM      9   O  A00 X   1      79.281  84.337  57.3100  0.00  0.00     0.000 O
ATOM     11  HD  A00 X   1      79.817  84.954  57.5950  0.00  0.00     0.000 HD
ENDROOT
BRANCH 2 11
ATOM     11   O  A00 X   1      77.344  80.752  56.2550  0.00  0.00     0.000 O
ATOM     12   O  A00 X   1      75.382  80.974  54.8900  0.00  0.00     0.000 OA
ATOM     13   O  A00 X   1      75.211  79.865  57.0480  0.00  0.00     0.000 OA
ATOM     14   O  A00 X   1      76.416  78.852  55.2650  0.00  0.00     0.000 OA
ATOM     15   S  A00 X   1      75.981  80.089  55.8560  0.00  0.00     0.000 S
ENDBRANCH 2 11
BRANCH 5 16
ATOM     16   C  A00 X   1      77.837  82.684  60.4220  0.00  0.00     0.000 C
ATOM     17   O  A00 X   1      78.210  81.938  61.3040  0.00  0.00     0.000 OA
ATOM     18   O  A00 X   1      76.685  83.070  60.4260  0.00  0.00     0.000 OA
ENDBRANCH 5 16
BRANCH 1 19
ATOM     19  O4  A00 X   2      78.656  79.825  59.0700  0.00  0.00     0.000 O
BRANCH 19 23
ATOM     20  C1  A00 X   2      82.384  78.048  57.9260  0.00  0.00     0.000 C
ATOM     21  C2  A00 X   2      81.097  77.497  57.2650  0.00  0.00     0.000 C
ATOM     22  C3  A00 X   2      79.927  78.489  57.4310  0.00  0.00     0.000 C
ATOM     23  C4  A00 X   2      79.728  78.851  58.9200  0.00  0.00     0.000 C
ATOM     24  C5  A00 X   2      81.086  79.369  59.4670  0.00  0.00     0.000 C
ATOM     25  O5  A00 X   2      82.080  78.322  59.3190  0.00  0.00     0.000 O
ATOM     26   O  A00 X   2      78.777  77.965  56.7430  0.00  0.00     0.000 O
ATOM     28  HD  A00 X   2      78.842  77.189  57.1210  0.00  0.00     0.000 HD
BRANCH 21 30
ATOM     28   N  A00 X   2      81.715  76.167  57.2600  0.00  0.00     0.000 N
ATOM     30  HD  A00 X   2      81.040  76.132  56.7180  0.00  0.00     0.000 HD
ATOM     30   O  A00 X   2      80.919  75.003  55.3980  0.00  0.00     0.000 OA
ATOM     31   S  A00 X   2      80.842  74.927  56.8130  0.00  0.00     0.000 S
ATOM     32   O  A00 X   2      81.518  73.810  57.3970  0.00  0.00     0.000 OA
ATOM     33   O  A00 X   2      79.546  75.088  57.4030  0.00  0.00     0.000 OA
ENDBRANCH 21 30
BRANCH 24 34
ATOM     34   C  A00 X   2      81.104  80.015  60.8730  0.00  0.00     0.000 C
ATOM     35   O  A00 X   2      82.917  78.652  63.7220  0.00  0.00     0.000 OA
ATOM     36   O  A00 X   2      81.593  79.091  61.8660  0.00  0.00     0.000 O
ATOM     37   O  A00 X   2      83.920  79.179  61.6460  0.00  0.00     0.000 OA
ATOM     38   S  A00 X   2      82.913  79.532  62.5990  0.00  0.00     0.000 S
ATOM     39   O  A00 X   2      82.756  80.920  62.9160  0.00  0.00     0.000 OA
ENDBRANCH 24 34
BRANCH 20 40
ATOM     40  O4  A00 X   3      82.673  79.278  57.2460  0.00  0.00     0.000 O
BRANCH 40 44
ATOM     41  C1  A00 X   3      83.651  82.754  57.5420  0.00  0.00     0.000 C
ATOM     42  C2  A00 X   3      83.302  82.047  56.2140  0.00  0.00     0.000 C
ATOM     43  C3  A00 X   3      84.096  80.725  56.0630  0.00  0.00     0.000 C
ATOM     44  C4  A00 X   3      84.020  79.798  57.2700  0.00  0.00     0.000 C
ATOM     45  C5  A00 X   3      84.388  80.578  58.5640  0.00  0.00     0.000 C
ATOM     46  O5  A00 X   3      83.623  81.823  58.6600  0.00  0.00     0.000 O
ATOM     47   O  A00 X   3      83.918  80.028  54.8310  0.00  0.00     0.000 O
ATOM     49  HD  A00 X   3      83.940  79.335  55.3500  0.00  0.00     0.000 HD
BRANCH 42 49
ATOM     49   O  A00 X   3      81.877  81.810  56.2230  0.00  0.00     0.000 O
ATOM     50   O  A00 X   3      80.291  80.736  54.7880  0.00  0.00     0.000 OA
ATOM     51   O  A00 X   3      81.982  82.075  53.8200  0.00  0.00     0.000 OA
ATOM     52   O  A00 X   3      80.299  83.135  55.0970  0.00  0.00     0.000 OA
ATOM     53   S  A00 X   3      81.050  81.941  54.9120  0.00  0.00     0.000 S
ENDBRANCH 42 49
BRANCH 45 54
ATOM     54   C  A00 X   3      85.902  80.789  58.6870  0.00  0.00     0.000 C
ATOM     55   O  A00 X   3      86.619  80.713  57.7100  0.00  0.00     0.000 OA
ATOM     56   O  A00 X   3      86.413  81.036  59.7680  0.00  0.00     0.000 OA
ENDBRANCH 45 54
BRANCH 41 57
ATOM     57  O4  A00 X   4      84.879  83.509  57.4380  0.00  0.00     0.000 O
BRANCH 57 61
ATOM     58  C1  A00 X   4      86.402  86.975  59.5140  0.00  0.00     0.000 C
ATOM     59  C2  A00 X   4      86.466  85.599  60.2220  0.00  0.00     0.000 C
ATOM     60  C3  A00 X   4      86.237  84.407  59.2710  0.00  0.00     0.000 C
ATOM     61  C4  A00 X   4      85.002  84.620  58.3710  0.00  0.00     0.000 C
ATOM     62  C5  A00 X   4      85.246  85.942  57.6010  0.00  0.00     0.000 C
ATOM     63  O5  A00 X   4      85.327  87.038  58.5490  0.00  0.00     0.000 O
BRANCH 59 66
ATOM     64   N  A00 X   4      85.410  85.486  61.2450  0.00  0.00     0.000 N
ATOM     66  HD  A00 X   4      84.683  85.940  61.1210  0.00  0.00     0.000 HD
ATOM     66   O  A00 X   4      86.849  86.728  62.7240  0.00  0.00     0.000 OA
ATOM     67   S  A00 X   4      85.803  85.754  62.7720  0.00  0.00     0.000 S
ATOM     68   O  A00 X   4      84.548  86.222  63.2830  0.00  0.00     0.000 OA
ATOM     69   O  A00 X   4      86.146  84.422  63.1830  0.00  0.00     0.000 OA
ENDBRANCH 59 66
BRANCH 62 70
ATOM     70   C  A00 X   4      84.156  86.276  56.5560  0.00  0.00     0.000 C
ATOM     71   O  A00 X   4      81.043  88.063  57.0260  0.00  0.00     0.000 OA
ATOM     72   O  A00 X   4      81.486  86.005  55.9710  0.00  0.00     0.000 OA
ATOM     73   O  A00 X   4      83.221  87.206  57.1250  0.00  0.00     0.000 O
ATOM     74   O  A00 X   4      81.484  86.134  58.4040  0.00  0.00     0.000 OA
ATOM     75   S  A00 X   4      81.708  86.797  57.1600  0.00  0.00     0.000 S
ENDBRANCH 62 70
ENDBRANCH 57 61
ENDBRANCH 41 57
ENDBRANCH 40 44
ENDBRANCH 20 40
ENDBRANCH 19 23
ENDBRANCH 1 19
TORSDOF 14
ENDMDL
MODEL 77
REMARK VINA RESULT:       0.1     12.406     16.907
ROOT
ATOM      1  C1  A00 X   1      10.763  31.792  98.5690  0.00  0.00     0.000 C
ATOM      2  C2  A00 X   1       9.716  32.041  97.4500  0.00  0.00     0.000 C
ATOM      3  C3  A00 X   1       9.744  31.040  96.2480  0.00  0.00     0.000 C
ATOM      4  C4  A00 X   1      11.020  30.167  96.1340  0.00  0.00     0.000 C
ATOM      5  C5  A00 X   1      12.215  30.794  96.8530  0.00  0.00     0.000 C
ATOM      6  O5  A00 X   1      11.818  30.854  98.2410  0.00  0.00     0.000 O
ATOM      7   O  A00 X   1       9.652  31.782  95.0330  0.00  0.00     0.000 O
ATOM      9  HD  A00 X   1      10.239  31.158  94.9080  0.00  0.00     0.000 HD
ATOM      9   O  A00 X   1      10.796  28.848  96.6320  0.00  0.00     0.000 O
ATOM     11  HD  A00 X   1      11.383  28.224  96.5070  0.00  0.00     0.000 HD
ENDROOT
BRANCH 2 11
ATOM     11   O  A00 X   1       8.410  32.009  98.0570  0.00  0.00     0.000 O
ATOM     12   O  A00 X   1       6.416  32.481  96.8050  0.00  0.00     0.000 OA
ATOM     13   O  A00 X   1       8.074  34.235  97.1080  0.00  0.00     0.000 OA
ATOM     14   O  A00 X   1       6.804  33.444  98.9570  0.00  0.00     0.000 OA
ATOM     15   S  A00 X   1       7.370  33.118  97.6760  0.00  0.00     0.000 S
ENDBRANCH 2 11
BRANCH 5 16
ATOM     16   C  A00 X   1      12.676  32.142  96.2880  0.00  0.00     0.000 C
ATOM     17   O  A00 X   1      13.483  32.792  96.9210  0.00  0.00     0.000 OA
ATOM     18   O  A00 X   1      12.269  32.579  95.2300  0.00  0.00     0.000 OA
ENDBRANCH 5 16
BRANCH 1 19
ATOM     19  O4  A00 X   2      11.300  33.020  99.1190  0.00  0.00     0.000 O
BRANCH 19 23
ATOM     20  C1  A00 X   2      11.508  31.494 103.1180  0.00  0.00     0.000 C
ATOM     21  C2  A00 X   2      10.289  32.373 102.7510  0.00  0.00     0.000 C
ATOM     22  C3  A00 X   2      10.127  32.479 101.2200  0.00  0.00     0.000 C
ATOM     23  C4  A00 X   2      11.439  32.969 100.5670  0.00  0.00     0.000 C
ATOM     24  C5  A00 X   2      12.580  32.021 101.0250  0.00  0.00     0.000 C
ATOM     25  O5  A00 X   2      12.676  32.069 102.4720  0.00  0.00     0.000 O
ATOM     26   O  A00 X   2       8.945  33.246 100.9330  0.00  0.00     0.000 O
ATOM     28  HD  A00 X   2       9.173  33.890 101.4650  0.00  0.00     0.000 HD
BRANCH 21 30
ATOM     28   N  A00 X   2      10.306  32.901 104.1190  0.00  0.00     0.000 N
ATOM     30  HD  A00 X   2       9.537  33.108 103.7810  0.00  0.00     0.000 HD
ATOM     30   O  A00 X   2       8.109  33.402 104.7340  0.00  0.00     0.000 OA
ATOM     31   S  A00 X   2       9.328  34.086 104.4880  0.00  0.00     0.000 S
ATOM     32   O  A00 X   2       9.932  34.678 105.6420  0.00  0.00     0.000 OA
ATOM     33   O  A00 X   2       9.346  35.007 103.3900  0.00  0.00     0.000 OA
ENDBRANCH 21 30
BRANCH 24 34
ATOM     34   C  A00 X   2      13.957  32.155 100.3310  0.00  0.00     0.000 C
ATOM     35   O  A00 X   2      17.005  33.196 102.0290  0.00  0.00     0.000 OA
ATOM     36   O  A00 X   2      14.879  32.910 101.1420  0.00  0.00     0.000 O
ATOM     37   O  A00 X   2      15.668  31.370 102.7150  0.00  0.00     0.000 OA
ATOM     38   S  A00 X   2      16.161  32.127 101.6060  0.00  0.00     0.000 S
ATOM     39   O  A00 X   2      16.628  31.401 100.4630  0.00  0.00     0.000 OA
ENDBRANCH 24 34
BRANCH 20 40
ATOM     40  O4  A00 X   3      11.237  30.201 102.5550  0.00  0.00     0.000 O
BRANCH 40 44
ATOM     41  C1  A00 X   3      12.526  27.383 100.6790  0.00  0.00     0.000 C
ATOM     42  C2  A00 X   3      11.071  27.516 101.1790  0.00  0.00     0.000 C
ATOM     43  C3  A00 X   3      11.033  27.865 102.6900  0.00  0.00     0.000 C
ATOM     44  C4  A00 X   3      11.913  29.043 103.0900  0.00  0.00     0.000 C
ATOM     45  C5  A00 X   3      13.358  28.834 102.5560  0.00  0.00     0.000 C
ATOM     46  O5  A00 X   3      13.345  28.497 101.1310  0.00  0.00     0.000 O
ATOM     47   O  A00 X   3       9.737  27.927 103.2820  0.00  0.00     0.000 O
ATOM     49  HD  A00 X   3      10.085  28.600 103.7020  0.00  0.00     0.000 HD
BRANCH 42 49
ATOM     49   O  A00 X   3      10.443  28.545 100.3840  0.00  0.00     0.000 O
ATOM     50   O  A00 X   3       8.310  29.632 100.3290  0.00  0.00     0.000 OA
ATOM     51   O  A00 X   3       8.392  27.296 100.6840  0.00  0.00     0.000 OA
ATOM     52   O  A00 X   3       9.016  28.136  98.5650  0.00  0.00     0.000 OA
ATOM     53   S  A00 X   3       8.951  28.409  99.9590  0.00  0.00     0.000 S
ENDBRANCH 42 49
BRANCH 45 54
ATOM     54   C  A00 X   3      14.137  27.824 103.4080  0.00  0.00     0.000 C
ATOM     55   O  A00 X   3      15.350  27.791 103.3730  0.00  0.00     0.000 OA
ATOM     56   O  A00 X   3      13.552  27.035 104.1330  0.00  0.00     0.000 OA
ENDBRANCH 45 54
BRANCH 41 57
ATOM     57  O4  A00 X   4      13.080  26.084 100.9870  0.00  0.00     0.000 O
BRANCH 57 61
ATOM     58  C1  A00 X   4      16.160  23.675  99.1580  0.00  0.00     0.000 C
ATOM     59  C2  A00 X   4      16.584  24.864 100.0550  0.00  0.00     0.000 C
ATOM     60  C3  A00 X   4      15.438  25.416 100.9270  0.00  0.00     0.000 C
ATOM     61  C4  A00 X   4      14.151  25.644 100.1040  0.00  0.00     0.000 C
ATOM     62  C5  A00 X   4      13.794  24.279  99.4660  0.00  0.00     0.000 C
ATOM     63  O5  A00 X   4      14.857  23.881  98.5640  0.00  0.00     0.000 O
BRANCH 59 66
ATOM     64   N  A00 X   4      17.027  26.000  99.2260  0.00  0.00     0.000 N
ATOM     66  HD  A00 X   4      16.687  26.073  98.4330  0.00  0.00     0.000 HD
ATOM     66   O  A00 X   4      19.165  24.908  99.0480  0.00  0.00     0.000 OA
ATOM     67   S  A00 X   4      18.597  26.219  99.0180  0.00  0.00     0.000 S
ATOM     68   O  A00 X   4      18.601  26.864  97.7380  0.00  0.00     0.000 OA
ATOM     69   O  A00 X   4      18.879  27.096 100.1190  0.00  0.00     0.000 OA
ENDBRANCH 59 66
BRANCH 62 70
ATOM     70   C  A00 X   4      12.459  24.278  98.6830  0.00  0.00     0.000 C
ATOM     71   O  A00 X   4      11.877  25.091  95.2040  0.00  0.00     0.000 OA
ATOM     72   O  A00 X   4      10.782  25.825  97.1550  0.00  0.00     0.000 OA
ATOM     73   O  A00 X   4      12.731  24.422  97.2800  0.00  0.00     0.000 O
ATOM     74   O  A00 X   4      12.979  26.720  96.5990  0.00  0.00     0.000 OA
ATOM     75   S  A00 X   4      12.067  25.624  96.5240  0.00  0.00     0.000 S
ENDBRANCH 62 70
ENDBRANCH 57 61
ENDBRANCH 41 57
ENDBRANCH 40 44
ENDBRANCH 20 40
ENDBRANCH 19 23
ENDBRANCH 1 19
TORSDOF 14
ENDMDL
MODEL 78
REMARK VINA RESULT:       0.1    141.602    146.485
ROOT
ATOM      1  C1  A00 X   1      95.067 113.920  38.0490  0.00  0.00     0.000 C
ATOM      2  C2  A00 X   1      96.595 113.907  37.7760  0.00  0.00     0.000 C
ATOM      3  C3  A00 X   1      97.070 114.667  36.4940  0.00  0.00     0.000 C
ATOM      4  C4  A00 X   1      95.957 115.018  35.4730  0.00  0.00     0.000 C
ATOM      5  C5  A00 X   1      94.734 114.114  35.6200  0.00  0.00     0.000 C
ATOM      6  O5  A00 X   1      94.239 114.380  36.9520  0.00  0.00     0.000 O
ATOM      7   O  A00 X   1      98.012 113.852  35.8010  0.00  0.00     0.000 O
ATOM      9  HD  A00 X   1      97.497 114.210  35.2040  0.00  0.00     0.000 HD
ATOM      9   O  A00 X   1      95.563 116.386  35.5810  0.00  0.00     0.000 O
ATOM     11  HD  A00 X   1      95.047 116.744  34.9840  0.00  0.00     0.000 HD
ENDROOT
BRANCH 2 11
ATOM     11   O  A00 X   1      97.251 114.472  38.9270  0.00  0.00     0.000 O
ATOM     12   O  A00 X   1      99.612 114.913  38.9540  0.00  0.00     0.000 OA
ATOM     13   O  A00 X   1      98.832 112.618  38.7550  0.00  0.00     0.000 OA
ATOM     14   O  A00 X   1      98.517 113.826  40.7790  0.00  0.00     0.000 OA
ATOM     15   S  A00 X   1      98.653 113.913  39.3510  0.00  0.00     0.000 S
ENDBRANCH 2 11
BRANCH 5 16
ATOM     16   C  A00 X   1      94.989 112.629  35.3460  0.00  0.00     0.000 C
ATOM     17   O  A00 X   1      96.019 112.309  34.7890  0.00  0.00     0.000 OA
ATOM     18   O  A00 X   1      94.203 111.761  35.6710  0.00  0.00     0.000 OA
ENDBRANCH 5 16
BRANCH 1 19
ATOM     19  O4  A00 X   2      94.582 112.666  38.5870  0.00  0.00     0.000 O
BRANCH 19 23
ATOM     20  C1  A00 X   2      91.870 114.538  41.3270  0.00  0.00     0.000 C
ATOM     21  C2  A00 X   2      93.243 114.082  41.8790  0.00  0.00     0.000 C
ATOM     22  C3  A00 X   2      94.244 113.840  40.7310  0.00  0.00     0.000 C
ATOM     23  C4  A00 X   2      93.657 112.854  39.6960  0.00  0.00     0.000 C
ATOM     24  C5  A00 X   2      92.282 113.412  39.2370  0.00  0.00     0.000 C
ATOM     25  O5  A00 X   2      91.413 113.524  40.3940  0.00  0.00     0.000 O
ATOM     26   O  A00 X   2      95.518 113.487  41.2960  0.00  0.00     0.000 O
ATOM     28  HD  A00 X   2      95.178 112.878  41.8100  0.00  0.00     0.000 HD
BRANCH 21 30
ATOM     28   N  A00 X   2      92.583 113.762  43.1490  0.00  0.00     0.000 N
ATOM     30  HD  A00 X   2      93.434 113.785  43.3070  0.00  0.00     0.000 HD
ATOM     30   O  A00 X   2      94.116 114.118  44.8750  0.00  0.00     0.000 OA
ATOM     31   S  A00 X   2      93.419 113.036  44.2760  0.00  0.00     0.000 S
ATOM     32   O  A00 X   2      92.421 112.429  45.1010  0.00  0.00     0.000 OA
ATOM     33   O  A00 X   2      94.212 112.030  43.6340  0.00  0.00     0.000 OA
ENDBRANCH 21 30
BRANCH 24 34
ATOM     34   C  A00 X   2      91.588 112.732  38.0320  0.00  0.00     0.000 C
ATOM     35   O  A00 X   2      88.377 111.027  38.2230  0.00  0.00     0.000 OA
ATOM     36   O  A00 X   2      90.533 111.851  38.4660  0.00  0.00     0.000 O
ATOM     37   O  A00 X   2      88.722 113.272  38.8830  0.00  0.00     0.000 OA
ATOM     38   S  A00 X   2      89.092 112.235  37.9690  0.00  0.00     0.000 S
ATOM     39   O  A00 X   2      89.220 112.584  36.5860  0.00  0.00     0.000 OA
ENDBRANCH 24 34
BRANCH 20 40
ATOM     40  O4  A00 X   3      92.124 115.761  40.6200  0.00  0.00     0.000 O
BRANCH 40 44
ATOM     41  C1  A00 X   3      91.545 117.810  37.6890  0.00  0.00     0.000 C
ATOM     42  C2  A00 X   3      92.466 118.198  38.8660  0.00  0.00     0.000 C
ATOM     43  C3  A00 X   3      91.730 118.043  40.2220  0.00  0.00     0.000 C
ATOM     44  C4  A00 X   3      91.043 116.697  40.4190  0.00  0.00     0.000 C
ATOM     45  C5  A00 X   3      90.132 116.381  39.2000  0.00  0.00     0.000 C
ATOM     46  O5  A00 X   3      90.864 116.550  37.9430  0.00  0.00     0.000 O
ATOM     47   O  A00 X   3      92.458 118.456  41.3770  0.00  0.00     0.000 O
ATOM     49  HD  A00 X   3      92.083 117.757  41.7240  0.00  0.00     0.000 HD
BRANCH 42 49
ATOM     49   O  A00 X   3      93.627 117.341  38.7950  0.00  0.00     0.000 O
ATOM     50   O  A00 X   3      95.625 117.021  40.0730  0.00  0.00     0.000 OA
ATOM     51   O  A00 X   3      94.868 119.224  39.6720  0.00  0.00     0.000 OA
ATOM     52   O  A00 X   3      95.683 117.963  37.8470  0.00  0.00     0.000 OA
ATOM     53   S  A00 X   3      95.041 117.906  39.1150  0.00  0.00     0.000 S
ENDBRANCH 42 49
BRANCH 45 54
ATOM     54   C  A00 X   3      88.823 117.178  39.2470  0.00  0.00     0.000 C
ATOM     55   O  A00 X   3      87.893 116.883  38.5250  0.00  0.00     0.000 OA
ATOM     56   O  A00 X   3      88.693 118.122  40.0110  0.00  0.00     0.000 OA
ENDBRANCH 45 54
BRANCH 41 57
ATOM     57  O4  A00 X   4      90.659 118.893  37.3260  0.00  0.00     0.000 O
BRANCH 57 61
ATOM     58  C1  A00 X   4      88.893 120.115  33.5800  0.00  0.00     0.000 C
ATOM     59  C2  A00 X   4      88.539 118.717  34.1460  0.00  0.00     0.000 C
ATOM     60  C3  A00 X   4      88.927 118.537  35.6280  0.00  0.00     0.000 C
ATOM     61  C4  A00 X   4      90.372 119.005  35.9030  0.00  0.00     0.000 C
ATOM     62  C5  A00 X   4      90.442 120.487  35.4570  0.00  0.00     0.000 C
ATOM     63  O5  A00 X   4      90.190 120.568  34.0310  0.00  0.00     0.000 O
BRANCH 59 66
ATOM     64   N  A00 X   4      88.926 117.378  33.6650  0.00  0.00     0.000 N
ATOM     66  HD  A00 X   4      89.747 117.265  33.4150  0.00  0.00     0.000 HD
ATOM     66   O  A00 X   4      87.580 117.801  31.7130  0.00  0.00     0.000 OA
ATOM     67   S  A00 X   4      88.051 116.708  32.5050  0.00  0.00     0.000 S
ATOM     68   O  A00 X   4      89.040 115.876  31.8840  0.00  0.00     0.000 OA
ATOM     69   O  A00 X   4      87.091 115.991  33.2950  0.00  0.00     0.000 OA
ENDBRANCH 59 66
BRANCH 62 70
ATOM     70   C  A00 X   4      91.796 121.174  35.7570  0.00  0.00     0.000 C
ATOM     71   O  A00 X   4      95.029 120.556  34.2490  0.00  0.00     0.000 OA
ATOM     72   O  A00 X   4      94.397 120.715  36.5110  0.00  0.00     0.000 OA
ATOM     73   O  A00 X   4      92.754 120.793  34.7560  0.00  0.00     0.000 O
ATOM     74   O  A00 X   4      93.851 118.704  35.2480  0.00  0.00     0.000 OA
ATOM     75   S  A00 X   4      94.084 120.113  35.2350  0.00  0.00     0.000 S
ENDBRANCH 62 70
ENDBRANCH 57 61
ENDBRANCH 41 57
ENDBRANCH 40 44
ENDBRANCH 20 40
ENDBRANCH 19 23
ENDBRANCH 1 19
TORSDOF 14
ENDMDL
MODEL 79
REMARK VINA RESULT:       0.1    139.327    144.207
ROOT
ATOM      1  C1  A00 X   1      93.830 112.593  39.4600  0.00  0.00     0.000 C
ATOM      2  C2  A00 X   1      95.357 112.580  39.1870  0.00  0.00     0.000 C
ATOM      3  C3  A00 X   1      95.833 113.340  37.9050  0.00  0.00     0.000 C
ATOM      4  C4  A00 X   1      94.720 113.691  36.8850  0.00  0.00     0.000 C
ATOM      5  C5  A00 X   1      93.496 112.787  37.0320  0.00  0.00     0.000 C
ATOM      6  O5  A00 X   1      93.001 113.052  38.3630  0.00  0.00     0.000 O
ATOM      7   O  A00 X   1      96.775 112.524  37.2120  0.00  0.00     0.000 O
ATOM      9  HD  A00 X   1      96.259 112.882  36.6160  0.00  0.00     0.000 HD
ATOM      9   O  A00 X   1      94.325 115.058  36.9920  0.00  0.00     0.000 O
ATOM     11  HD  A00 X   1      93.810 115.416  36.3960  0.00  0.00     0.000 HD
ENDROOT
BRANCH 2 11
ATOM     11   O  A00 X   1      96.014 113.145  40.3380  0.00  0.00     0.000 O
ATOM     12   O  A00 X   1      98.374 113.586  40.3650  0.00  0.00     0.000 OA
ATOM     13   O  A00 X   1      97.595 111.291  40.1660  0.00  0.00     0.000 OA
ATOM     14   O  A00 X   1      97.280 112.498  42.1910  0.00  0.00     0.000 OA
ATOM     15   S  A00 X   1      97.416 112.586  40.7620  0.00  0.00     0.000 S
ENDBRANCH 2 11
BRANCH 5 16
ATOM     16   C  A00 X   1      93.751 111.301  36.7570  0.00  0.00     0.000 C
ATOM     17   O  A00 X   1      94.781 110.982  36.2000  0.00  0.00     0.000 OA
ATOM     18   O  A00 X   1      92.965 110.434  37.0830  0.00  0.00     0.000 OA
ENDBRANCH 5 16
BRANCH 1 19
ATOM     19  O4  A00 X   2      93.345 111.339  39.9990  0.00  0.00     0.000 O
BRANCH 19 23
ATOM     20  C1  A00 X   2      90.633 113.211  42.7380  0.00  0.00     0.000 C
ATOM     21  C2  A00 X   2      92.005 112.755  43.2910  0.00  0.00     0.000 C
ATOM     22  C3  A00 X   2      93.007 112.513  42.1420  0.00  0.00     0.000 C
ATOM     23  C4  A00 X   2      92.419 111.527  41.1070  0.00  0.00     0.000 C
ATOM     24  C5  A00 X   2      91.044 112.085  40.6480  0.00  0.00     0.000 C
ATOM     25  O5  A00 X   2      90.175 112.196  41.8050  0.00  0.00     0.000 O
ATOM     26   O  A00 X   2      94.280 112.160  42.7080  0.00  0.00     0.000 O
ATOM     28  HD  A00 X   2      93.940 111.551  43.2210  0.00  0.00     0.000 HD
BRANCH 21 30
ATOM     28   N  A00 X   2      91.345 112.435  44.5600  0.00  0.00     0.000 N
ATOM     30  HD  A00 X   2      92.196 112.458  44.7190  0.00  0.00     0.000 HD
ATOM     30   O  A00 X   2      92.878 112.791  46.2870  0.00  0.00     0.000 OA
ATOM     31   S  A00 X   2      92.182 111.708  45.6880  0.00  0.00     0.000 S
ATOM     32   O  A00 X   2      91.183 111.102  46.5130  0.00  0.00     0.000 OA
ATOM     33   O  A00 X   2      92.974 110.702  45.0450  0.00  0.00     0.000 OA
ENDBRANCH 21 30
BRANCH 24 34
ATOM     34   C  A00 X   2      90.351 111.405  39.4440  0.00  0.00     0.000 C
ATOM     35   O  A00 X   2      87.139 109.700  39.6340  0.00  0.00     0.000 OA
ATOM     36   O  A00 X   2      89.296 110.524  39.8780  0.00  0.00     0.000 O
ATOM     37   O  A00 X   2      87.485 111.945  40.2940  0.00  0.00     0.000 OA
ATOM     38   S  A00 X   2      87.854 110.908  39.3800  0.00  0.00     0.000 S
ATOM     39   O  A00 X   2      87.983 111.257  37.9970  0.00  0.00     0.000 OA
ENDBRANCH 24 34
BRANCH 20 40
ATOM     40  O4  A00 X   3      90.886 114.434  42.0320  0.00  0.00     0.000 O
BRANCH 40 44
ATOM     41  C1  A00 X   3      90.307 116.483  39.1010  0.00  0.00     0.000 C
ATOM     42  C2  A00 X   3      91.228 116.871  40.2780  0.00  0.00     0.000 C
ATOM     43  C3  A00 X   3      90.492 116.715  41.6330  0.00  0.00     0.000 C
ATOM     44  C4  A00 X   3      89.805 115.370  41.8310  0.00  0.00     0.000 C
ATOM     45  C5  A00 X   3      88.894 115.054  40.6110  0.00  0.00     0.000 C
ATOM     46  O5  A00 X   3      89.626 115.223  39.3540  0.00  0.00     0.000 O
ATOM     47   O  A00 X   3      91.220 117.129  42.7880  0.00  0.00     0.000 O
ATOM     49  HD  A00 X   3      90.846 116.430  43.1360  0.00  0.00     0.000 HD
BRANCH 42 49
ATOM     49   O  A00 X   3      92.389 116.014  40.2060  0.00  0.00     0.000 O
ATOM     50   O  A00 X   3      94.387 115.693  41.4850  0.00  0.00     0.000 OA
ATOM     51   O  A00 X   3      93.631 117.897  41.0830  0.00  0.00     0.000 OA
ATOM     52   O  A00 X   3      94.446 116.635  39.2580  0.00  0.00     0.000 OA
ATOM     53   S  A00 X   3      93.804 116.579  40.5260  0.00  0.00     0.000 S
ENDBRANCH 42 49
BRANCH 45 54
ATOM     54   C  A00 X   3      87.585 115.850  40.6590  0.00  0.00     0.000 C
ATOM     55   O  A00 X   3      86.655 115.556  39.9360  0.00  0.00     0.000 OA
ATOM     56   O  A00 X   3      87.456 116.795  41.4220  0.00  0.00     0.000 OA
ENDBRANCH 45 54
BRANCH 41 57
ATOM     57  O4  A00 X   4      89.421 117.566  38.7370  0.00  0.00     0.000 O
BRANCH 57 61
ATOM     58  C1  A00 X   4      87.656 118.787  34.9910  0.00  0.00     0.000 C
ATOM     59  C2  A00 X   4      87.301 117.390  35.5570  0.00  0.00     0.000 C
ATOM     60  C3  A00 X   4      87.689 117.210  37.0390  0.00  0.00     0.000 C
ATOM     61  C4  A00 X   4      89.134 117.678  37.3140  0.00  0.00     0.000 C
ATOM     62  C5  A00 X   4      89.205 119.160  36.8680  0.00  0.00     0.000 C
ATOM     63  O5  A00 X   4      88.953 119.241  35.4420  0.00  0.00     0.000 O
BRANCH 59 66
ATOM     64   N  A00 X   4      87.688 116.051  35.0760  0.00  0.00     0.000 N
ATOM     66  HD  A00 X   4      88.509 115.938  34.8260  0.00  0.00     0.000 HD
ATOM     66   O  A00 X   4      86.342 116.473  33.1240  0.00  0.00     0.000 OA
ATOM     67   S  A00 X   4      86.813 115.381  33.9170  0.00  0.00     0.000 S
ATOM     68   O  A00 X   4      87.802 114.549  33.2950  0.00  0.00     0.000 OA
ATOM     69   O  A00 X   4      85.853 114.664  34.7060  0.00  0.00     0.000 OA
ENDBRANCH 59 66
BRANCH 62 70
ATOM     70   C  A00 X   4      90.558 119.846  37.1680  0.00  0.00     0.000 C
ATOM     71   O  A00 X   4      93.791 119.229  35.6600  0.00  0.00     0.000 OA
ATOM     72   O  A00 X   4      93.159 119.388  37.9230  0.00  0.00     0.000 OA
ATOM     73   O  A00 X   4      91.516 119.465  36.1680  0.00  0.00     0.000 O
ATOM     74   O  A00 X   4      92.613 117.377  36.6590  0.00  0.00     0.000 OA
ATOM     75   S  A00 X   4      92.846 118.785  36.6460  0.00  0.00     0.000 S
ENDBRANCH 62 70
ENDBRANCH 57 61
ENDBRANCH 41 57
ENDBRANCH 40 44
ENDBRANCH 20 40
ENDBRANCH 19 23
ENDBRANCH 1 19
TORSDOF 14
ENDMDL
MODEL 80
REMARK VINA RESULT:       0.1    110.781    115.205
ROOT
ATOM      1  C1  A00 X   1      30.778  90.877  23.9180  0.00  0.00     0.000 C
ATOM      2  C2  A00 X   1      29.760  90.372  24.9760  0.00  0.00     0.000 C
ATOM      3  C3  A00 X   1      29.591  88.821  25.0810  0.00  0.00     0.000 C
ATOM      4  C4  A00 X   1      30.165  88.003  23.8960  0.00  0.00     0.000 C
ATOM      5  C5  A00 X   1      30.293  88.842  22.6250  0.00  0.00     0.000 C
ATOM      6  O5  A00 X   1      31.235  89.884  22.9660  0.00  0.00     0.000 O
ATOM      7   O  A00 X   1      28.200  88.516  25.1470  0.00  0.00     0.000 O
ATOM      9  HD  A00 X   1      28.565  87.930  24.6250  0.00  0.00     0.000 HD
ATOM      9   O  A00 X   1      31.430  87.427  24.2230  0.00  0.00     0.000 O
ATOM     11  HD  A00 X   1      31.795  86.841  23.7010  0.00  0.00     0.000 HD
ENDROOT
BRANCH 2 11
ATOM     11   O  A00 X   1      30.167  90.889  26.2580  0.00  0.00     0.000 O
ATOM     12   O  A00 X   1      28.860  90.538  28.2410  0.00  0.00     0.000 OA
ATOM     13   O  A00 X   1      27.929  91.852  26.4190  0.00  0.00     0.000 OA
ATOM     14   O  A00 X   1      29.757  92.684  27.6920  0.00  0.00     0.000 OA
ATOM     15   S  A00 X   1      29.084  91.512  27.2030  0.00  0.00     0.000 S
ENDBRANCH 2 11
BRANCH 5 16
ATOM     16   C  A00 X   1      28.970  89.371  22.0620  0.00  0.00     0.000 C
ATOM     17   O  A00 X   1      29.006  90.194  21.1700  0.00  0.00     0.000 OA
ATOM     18   O  A00 X   1      27.891  88.993  22.4700  0.00  0.00     0.000 OA
ENDBRANCH 5 16
BRANCH 1 19
ATOM     19  O4  A00 X   2      30.342  92.087  23.2520  0.00  0.00     0.000 O
BRANCH 19 23
ATOM     20  C1  A00 X   2      34.284  93.755  23.0430  0.00  0.00     0.000 C
ATOM     21  C2  A00 X   2      33.367  94.232  24.1950  0.00  0.00     0.000 C
ATOM     22  C3  A00 X   2      32.188  93.257  24.3970  0.00  0.00     0.000 C
ATOM     23  C4  A00 X   2      31.424  93.045  23.0710  0.00  0.00     0.000 C
ATOM     24  C5  A00 X   2      32.452  92.589  21.9990  0.00  0.00     0.000 C
ATOM     25  O5  A00 X   2      33.463  93.620  21.8530  0.00  0.00     0.000 O
ATOM     26   O  A00 X   2      31.406  93.705  25.5180  0.00  0.00     0.000 O
ATOM     28  HD  A00 X   2      31.349  94.516  25.2190  0.00  0.00     0.000 HD
BRANCH 21 30
ATOM     28   N  A00 X   2      33.982  95.558  24.0870  0.00  0.00     0.000 N
ATOM     30  HD  A00 X   2      33.569  95.534  24.8480  0.00  0.00     0.000 HD
ATOM     30   O  A00 X   2      34.002  96.526  26.2130  0.00  0.00     0.000 OA
ATOM     31   S  A00 X   2      33.389  96.742  24.9500  0.00  0.00     0.000 S
ATOM     32   O  A00 X   2      33.826  97.916  24.2600  0.00  0.00     0.000 OA
ATOM     33   O  A00 X   2      31.962  96.634  24.8940  0.00  0.00     0.000 OA
ENDBRANCH 21 30
BRANCH 24 34
ATOM     34   C  A00 X   2      31.909  92.088  20.6400  0.00  0.00     0.000 C
ATOM     35   O  A00 X   2      32.579  93.712  17.4510  0.00  0.00     0.000 OA
ATOM     36   O  A00 X   2      32.031  93.102  19.6220  0.00  0.00     0.000 O
ATOM     37   O  A00 X   2      34.264  92.971  18.9360  0.00  0.00     0.000 OA
ATOM     38   S  A00 X   2      32.956  92.725  18.4080  0.00  0.00     0.000 S
ATOM     39   O  A00 X   2      32.627  91.377  18.0510  0.00  0.00     0.000 OA
ENDBRANCH 24 34
BRANCH 20 40
ATOM     40  O4  A00 X   3      34.767  92.464  23.4410  0.00  0.00     0.000 O
BRANCH 40 44
ATOM     41  C1  A00 X   3      35.437  89.041  22.4590  0.00  0.00     0.000 C
ATOM     42  C2  A00 X   3      35.642  89.605  23.8820  0.00  0.00     0.000 C
ATOM     43  C3  A00 X   3      36.481  90.908  23.8470  0.00  0.00     0.000 C
ATOM     44  C4  A00 X   3      35.985  91.954  22.8560  0.00  0.00     0.000 C
ATOM     45  C5  A00 X   3      35.809  91.314  21.4510  0.00  0.00     0.000 C
ATOM     46  O5  A00 X   3      35.021  90.082  21.5320  0.00  0.00     0.000 O
ATOM     47   O  A00 X   3      36.807  91.473  25.1160  0.00  0.00     0.000 O
ATOM     49  HD  A00 X   3      36.655  92.216  24.6980  0.00  0.00     0.000 HD
BRANCH 42 49
ATOM     49   O  A00 X   3      34.329  89.836  24.4380  0.00  0.00     0.000 O
ATOM     50   O  A00 X   3      33.443  90.775  26.4550  0.00  0.00     0.000 OA
ATOM     51   O  A00 X   3      35.337  89.365  26.5880  0.00  0.00     0.000 OA
ATOM     52   O  A00 X   3      33.263  88.412  25.9710  0.00  0.00     0.000 OA
ATOM     53   S  A00 X   3      34.062  89.589  25.9520  0.00  0.00     0.000 S
ENDBRANCH 42 49
BRANCH 45 54
ATOM     54   C  A00 X   3      37.155  91.123  20.7410  0.00  0.00     0.000 C
ATOM     55   O  A00 X   3      38.190  91.100  21.3740  0.00  0.00     0.000 OA
ATOM     56   O  A00 X   3      37.209  90.993  19.5280  0.00  0.00     0.000 OA
ENDBRANCH 45 54
BRANCH 41 57
ATOM     57  O4  A00 X   4      36.585  88.284  22.0140  0.00  0.00     0.000 O
BRANCH 57 61
ATOM     58  C1  A00 X   4      37.098  85.113  19.1300  0.00  0.00     0.000 C
ATOM     59  C2  A00 X   4      36.933  86.565  18.6140  0.00  0.00     0.000 C
ATOM     60  C3  A00 X   4      37.119  87.632  19.7120  0.00  0.00     0.000 C
ATOM     61  C4  A00 X   4      36.310  87.294  20.9830  0.00  0.00     0.000 C
ATOM     62  C5  A00 X   4      36.786  85.894  21.4430  0.00  0.00     0.000 C
ATOM     63  O5  A00 X   4      36.467  84.920  20.4160  0.00  0.00     0.000 O
BRANCH 59 66
ATOM     64   N  A00 X   4      35.572  86.779  18.0910  0.00  0.00     0.000 N
ATOM     66  HD  A00 X   4      34.934  86.301  18.4290  0.00  0.00     0.000 HD
ATOM     66   O  A00 X   4      36.305  85.748  16.0420  0.00  0.00     0.000 OA
ATOM     67   S  A00 X   4      35.348  86.701  16.5090  0.00  0.00     0.000 S
ATOM     68   O  A00 X   4      33.979  86.275  16.4630  0.00  0.00     0.000 OA
ATOM     69   O  A00 X   4      35.547  88.078  16.1570  0.00  0.00     0.000 OA
ENDBRANCH 59 66
BRANCH 62 70
ATOM     70   C  A00 X   4      36.162  85.422  22.7790  0.00  0.00     0.000 C
ATOM     71   O  A00 X   4      32.981  83.787  23.3360  0.00  0.00     0.000 OA
ATOM     72   O  A00 X   4      33.957  85.648  24.3990  0.00  0.00     0.000 OA
ATOM     73   O  A00 X   4      35.011  84.608  22.5030  0.00  0.00     0.000 O
ATOM     74   O  A00 X   4      33.003  85.898  22.1710  0.00  0.00     0.000 OA
ATOM     75   S  A00 X   4      33.638  85.046  23.1230  0.00  0.00     0.000 S
ENDBRANCH 62 70
ENDBRANCH 57 61
ENDBRANCH 41 57
ENDBRANCH 40 44
ENDBRANCH 20 40
ENDBRANCH 19 23
ENDBRANCH 1 19
TORSDOF 14
ENDMDL
MODEL 81
REMARK VINA RESULT:       0.1     19.029     23.717
ROOT
ATOM      1  C1  A00 X   1      17.881  13.990  94.1700  0.00  0.00     0.000 C
ATOM      2  C2  A00 X   1      18.507  13.028  93.1240  0.00  0.00     0.000 C
ATOM      3  C3  A00 X   1      17.518  12.407  92.0830  0.00  0.00     0.000 C
ATOM      4  C4  A00 X   1      16.013  12.526  92.4370  0.00  0.00     0.000 C
ATOM      5  C5  A00 X   1      15.786  12.723  93.9360  0.00  0.00     0.000 C
ATOM      6  O5  A00 X   1      16.433  13.978  94.2430  0.00  0.00     0.000 O
ATOM      7   O  A00 X   1      17.796  11.014  91.9630  0.00  0.00     0.000 O
ATOM      9  HD  A00 X   1      16.935  11.103  91.9680  0.00  0.00     0.000 HD
ATOM      9   O  A00 X   1      15.389  13.585  91.7120  0.00  0.00     0.000 O
ATOM     11  HD  A00 X   1      14.528  13.674  91.7160  0.00  0.00     0.000 HD
ENDROOT
BRANCH 2 11
ATOM     11   O  A00 X   1      19.534  13.754  92.4210  0.00  0.00     0.000 O
ATOM     12   O  A00 X   1      20.653  12.834  90.5050  0.00  0.00     0.000 OA
ATOM     13   O  A00 X   1      20.914  11.753  92.6690  0.00  0.00     0.000 OA
ATOM     14   O  A00 X   1      21.859  13.899  92.2720  0.00  0.00     0.000 OA
ATOM     15   S  A00 X   1      20.807  12.981  91.9300  0.00  0.00     0.000 S
ENDBRANCH 2 11
BRANCH 5 16
ATOM     16   C  A00 X   1      16.250  11.560  94.8190  0.00  0.00     0.000 C
ATOM     17   O  A00 X   1      16.304  11.729  96.0200  0.00  0.00     0.000 OA
ATOM     18   O  A00 X   1      16.559  10.478  94.3630  0.00  0.00     0.000 OA
ENDBRANCH 5 16
BRANCH 1 19
ATOM     19  O4  A00 X   2      18.478  13.857  95.4830  0.00  0.00     0.000 O
BRANCH 19 23
ATOM     20  C1  A00 X   2      18.406  18.067  96.2780  0.00  0.00     0.000 C
ATOM     21  C2  A00 X   2      19.734  17.459  95.7660  0.00  0.00     0.000 C
ATOM     22  C3  A00 X   2      19.495  16.076  95.1250  0.00  0.00     0.000 C
ATOM     23  C4  A00 X   2      18.748  15.145  96.1070  0.00  0.00     0.000 C
ATOM     24  C5  A00 X   2      17.452  15.873  96.5580  0.00  0.00     0.000 C
ATOM     25  O5  A00 X   2      17.817  17.118  97.2070  0.00  0.00     0.000 O
ATOM     26   O  A00 X   2      20.742  15.586  94.6050  0.00  0.00     0.000 O
ATOM     28  HD  A00 X   2      21.167  15.736  95.3450  0.00  0.00     0.000 HD
BRANCH 21 30
ATOM     28   N  A00 X   2      20.456  18.420  96.6060  0.00  0.00     0.000 N
ATOM     30  HD  A00 X   2      21.029  18.103  96.0390  0.00  0.00     0.000 HD
ATOM     30   O  A00 X   2      22.467  18.951  95.5420  0.00  0.00     0.000 OA
ATOM     31   S  A00 X   2      22.028  18.296  96.7220  0.00  0.00     0.000 S
ATOM     32   O  A00 X   2      22.332  18.979  97.9410  0.00  0.00     0.000 OA
ATOM     33   O  A00 X   2      22.334  16.901  96.8440  0.00  0.00     0.000 OA
ENDBRANCH 21 30
BRANCH 24 34
ATOM     34   C  A00 X   2      16.409  15.063  97.3650  0.00  0.00     0.000 C
ATOM     35   O  A00 X   2      17.110  13.419 100.5360  0.00  0.00     0.000 OA
ATOM     36   O  A00 X   2      17.043  14.247  98.3690  0.00  0.00     0.000 O
ATOM     37   O  A00 X   2      17.468  15.722 100.1340  0.00  0.00     0.000 OA
ATOM     38   S  A00 X   2      16.648  14.583  99.8540  0.00  0.00     0.000 S
ATOM     39   O  A00 X   2      15.228  14.768  99.8630  0.00  0.00     0.000 OA
ENDBRANCH 24 34
BRANCH 20 40
ATOM     40  O4  A00 X   3      17.565  18.192  95.1220  0.00  0.00     0.000 O
BRANCH 40 44
ATOM     41  C1  A00 X   3      14.280  17.772  93.6540  0.00  0.00     0.000 C
ATOM     42  C2  A00 X   3      15.524  18.282  92.8960  0.00  0.00     0.000 C
ATOM     43  C3  A00 X   3      16.208  19.441  93.6670  0.00  0.00     0.000 C
ATOM     44  C4  A00 X   3      16.483  19.148  95.1360  0.00  0.00     0.000 C
ATOM     45  C5  A00 X   3      15.186  18.646  95.8300  0.00  0.00     0.000 C
ATOM     46  O5  A00 X   3      14.570  17.561  95.0640  0.00  0.00     0.000 O
ATOM     47   O  A00 X   3      17.322  20.050  93.0160  0.00  0.00     0.000 O
ATOM     49  HD  A00 X   3      17.640  20.065  93.8210  0.00  0.00     0.000 HD
BRANCH 42 49
ATOM     49   O  A00 X   3      16.415  17.156  92.7370  0.00  0.00     0.000 O
ATOM     50   O  A00 X   3      18.589  16.784  91.8060  0.00  0.00     0.000 OA
ATOM     51   O  A00 X   3      17.075  18.181  90.6460  0.00  0.00     0.000 OA
ATOM     52   O  A00 X   3      16.598  15.870  90.7800  0.00  0.00     0.000 OA
ATOM     53   S  A00 X   3      17.226  16.975  91.4210  0.00  0.00     0.000 S
ENDBRANCH 42 49
BRANCH 45 54
ATOM     54   C  A00 X   3      14.220  19.798  96.1300  0.00  0.00     0.000 C
ATOM     55   O  A00 X   3      14.466  20.926  95.7540  0.00  0.00     0.000 OA
ATOM     56   O  A00 X   3      13.187  19.602  96.7520  0.00  0.00     0.000 OA
ENDBRANCH 45 54
BRANCH 41 57
ATOM     57  O4  A00 X   4      13.126  18.608  93.4110  0.00  0.00     0.000 O
BRANCH 57 61
ATOM     58  C1  A00 X   4       8.902  17.770  93.1060  0.00  0.00     0.000 C
ATOM     59  C2  A00 X   4       9.622  17.473  94.4450  0.00  0.00     0.000 C
ATOM     60  C3  A00 X   4      11.011  18.134  94.5560  0.00  0.00     0.000 C
ATOM     61  C4  A00 X   4      11.862  17.896  93.2900  0.00  0.00     0.000 C
ATOM     62  C5  A00 X   4      11.042  18.457  92.1020  0.00  0.00     0.000 C
ATOM     63  O5  A00 X   4       9.806  17.707  91.9790  0.00  0.00     0.000 O
BRANCH 59 66
ATOM     64   N  A00 X   4       9.911  16.457  95.4730  0.00  0.00     0.000 N
ATOM     66  HD  A00 X   4      10.396  15.778  95.2400  0.00  0.00     0.000 HD
ATOM     66   O  A00 X   4       7.591  15.820  95.3530  0.00  0.00     0.000 OA
ATOM     67   S  A00 X   4       8.682  15.822  96.2770  0.00  0.00     0.000 S
ATOM     68   O  A00 X   4       9.221  14.532  96.5970  0.00  0.00     0.000 OA
ATOM     69   O  A00 X   4       8.615  16.725  97.3910  0.00  0.00     0.000 OA
ENDBRANCH 59 66
BRANCH 62 70
ATOM     70   C  A00 X   4      11.783  18.409  90.7440  0.00  0.00     0.000 C
ATOM     71   O  A00 X   4      12.641  15.521  88.7370  0.00  0.00     0.000 OA
ATOM     72   O  A00 X   4      13.952  17.347  89.4370  0.00  0.00     0.000 OA
ATOM     73   O  A00 X   4      11.685  17.084  90.1970  0.00  0.00     0.000 O
ATOM     74   O  A00 X   4      13.384  15.593  91.0300  0.00  0.00     0.000 OA
ATOM     75   S  A00 X   4      13.018  16.328  89.8630  0.00  0.00     0.000 S
ENDBRANCH 62 70
ENDBRANCH 57 61
ENDBRANCH 41 57
ENDBRANCH 40 44
ENDBRANCH 20 40
ENDBRANCH 19 23
ENDBRANCH 1 19
TORSDOF 14
ENDMDL
MODEL 82
REMARK VINA RESULT:       0.1     81.576     85.579
ROOT
ATOM      1  C1  A00 X   1      36.033  35.852  33.3900  0.00  0.00     0.000 C
ATOM      2  C2  A00 X   1      34.587  35.803  32.8290  0.00  0.00     0.000 C
ATOM      3  C3  A00 X   1      34.191  34.500  32.0600  0.00  0.00     0.000 C
ATOM      4  C4  A00 X   1      35.373  33.590  31.6360  0.00  0.00     0.000 C
ATOM      5  C5  A00 X   1      36.692  34.358  31.5510  0.00  0.00     0.000 C
ATOM      6  O5  A00 X   1      36.931  34.826  32.8970  0.00  0.00     0.000 O
ATOM      7   O  A00 X   1      33.510  34.864  30.8620  0.00  0.00     0.000 O
ATOM      9  HD  A00 X   1      34.044  34.212  30.6640  0.00  0.00     0.000 HD
ATOM      9   O  A00 X   1      35.518  32.477  32.5180  0.00  0.00     0.000 O
ATOM     11  HD  A00 X   1      36.052  31.825  32.3200  0.00  0.00     0.000 HD
ENDROOT
BRANCH 2 11
ATOM     11   O  A00 X   1      33.682  35.989  33.9350  0.00  0.00     0.000 O
ATOM     12   O  A00 X   1      31.307  36.154  33.6180  0.00  0.00     0.000 OA
ATOM     13   O  A00 X   1      32.755  37.864  32.6740  0.00  0.00     0.000 OA
ATOM     14   O  A00 X   1      32.493  37.674  35.0300  0.00  0.00     0.000 OA
ATOM     15   S  A00 X   1      32.478  36.979  33.7710  0.00  0.00     0.000 S
ENDBRANCH 2 11
BRANCH 5 16
ATOM     16   C  A00 X   1      36.726  35.471  30.4990  0.00  0.00     0.000 C
ATOM     17   O  A00 X   1      37.657  36.251  30.5090  0.00  0.00     0.000 OA
ATOM     18   O  A00 X   1      35.862  35.597  29.6550  0.00  0.00     0.000 OA
ENDBRANCH 5 16
BRANCH 1 19
ATOM     19  O4  A00 X   2      36.630  37.168  33.2900  0.00  0.00     0.000 O
BRANCH 19 23
ATOM     20  C1  A00 X   2      38.691  36.848  37.0330  0.00  0.00     0.000 C
ATOM     21  C2  A00 X   2      37.357  37.635  37.0170  0.00  0.00     0.000 C
ATOM     22  C3  A00 X   2      36.539  37.302  35.7510  0.00  0.00     0.000 C
ATOM     23  C4  A00 X   2      37.387  37.531  34.4800  0.00  0.00     0.000 C
ATOM     24  C5  A00 X   2      38.696  36.708  34.6280  0.00  0.00     0.000 C
ATOM     25  O5  A00 X   2      39.405  37.166  35.8090  0.00  0.00     0.000 O
ATOM     26   O  A00 X   2      35.285  38.001  35.8160  0.00  0.00     0.000 O
ATOM     28  HD  A00 X   2      35.660  38.762  35.9920  0.00  0.00     0.000 HD
BRANCH 21 30
ATOM     28   N  A00 X   2      37.917  38.533  38.0310  0.00  0.00     0.000 N
ATOM     30  HD  A00 X   2      37.061  38.664  38.0250  0.00  0.00     0.000 HD
ATOM     30   O  A00 X   2      36.168  39.277  39.3890  0.00  0.00     0.000 OA
ATOM     31   S  A00 X   2      37.090  39.812  38.4510  0.00  0.00     0.000 S
ATOM     32   O  A00 X   2      38.076  40.687  39.0060  0.00  0.00     0.000 OA
ATOM     33   O  A00 X   2      36.543  40.376  37.2530  0.00  0.00     0.000 OA
ENDBRANCH 21 30
BRANCH 24 34
ATOM     34   C  A00 X   2      39.617  36.581  33.3910  0.00  0.00     0.000 C
ATOM     35   O  A00 X   2      41.074  39.416  31.6320  0.00  0.00     0.000 OA
ATOM     36   O  A00 X   2      39.749  37.842  32.7060  0.00  0.00     0.000 O
ATOM     37   O  A00 X   2      41.346  39.016  33.9470  0.00  0.00     0.000 OA
ATOM     38   S  A00 X   2      41.208  38.427  32.6500  0.00  0.00     0.000 S
ATOM     39   O  A00 X   2      42.070  37.332  32.3230  0.00  0.00     0.000 OA
ENDBRANCH 24 34
BRANCH 20 40
ATOM     40  O4  A00 X   3      38.323  35.461  37.0280  0.00  0.00     0.000 O
BRANCH 40 44
ATOM     41  C1  A00 X   3      38.935  32.193  35.5910  0.00  0.00     0.000 C
ATOM     42  C2  A00 X   3      37.837  32.505  36.6310  0.00  0.00     0.000 C
ATOM     43  C3  A00 X   3      38.426  33.262  37.8490  0.00  0.00     0.000 C
ATOM     44  C4  A00 X   3      39.273  34.477  37.4910  0.00  0.00     0.000 C
ATOM     45  C5  A00 X   3      40.355  34.082  36.4470  0.00  0.00     0.000 C
ATOM     46  O5  A00 X   3      39.756  33.362  35.3210  0.00  0.00     0.000 O
ATOM     47   O  A00 X   3      37.517  33.528  38.9160  0.00  0.00     0.000 O
ATOM     49  HD  A00 X   3      37.946  34.280  38.9440  0.00  0.00     0.000 HD
BRANCH 42 49
ATOM     49   O  A00 X   3      36.828  33.291  35.9590  0.00  0.00     0.000 O
ATOM     50   O  A00 X   3      34.788  34.382  36.5720  0.00  0.00     0.000 OA
ATOM     51   O  A00 X   3      35.243  32.235  37.4520  0.00  0.00     0.000 OA
ATOM     52   O  A00 X   3      34.801  32.434  35.1390  0.00  0.00     0.000 OA
ATOM     53   S  A00 X   3      35.322  33.086  36.2910  0.00  0.00     0.000 S
ENDBRANCH 42 49
BRANCH 45 54
ATOM     54   C  A00 X   3      41.520  33.327  37.0960  0.00  0.00     0.000 C
ATOM     55   O  A00 X   3      41.397  32.824  38.1940  0.00  0.00     0.000 OA
ATOM     56   O  A00 X   3      42.593  33.219  36.5210  0.00  0.00     0.000 OA
ENDBRANCH 45 54
BRANCH 41 57
ATOM     57  O4  A00 X   4      39.690  31.014  35.9510  0.00  0.00     0.000 O
BRANCH 57 61
ATOM     58  C1  A00 X   4      41.841  28.064  33.6470  0.00  0.00     0.000 C
ATOM     59  C2  A00 X   4      42.502  29.445  33.8840  0.00  0.00     0.000 C
ATOM     60  C3  A00 X   4      41.822  30.268  34.9970  0.00  0.00     0.000 C
ATOM     61  C4  A00 X   4      40.288  30.298  34.8330  0.00  0.00     0.000 C
ATOM     62  C5  A00 X   4      39.821  28.821  34.8310  0.00  0.00     0.000 C
ATOM     63  O5  A00 X   4      40.398  28.139  33.6880  0.00  0.00     0.000 O
BRANCH 59 66
ATOM     64   N  A00 X   4      42.397  30.265  32.6630  0.00  0.00     0.000 N
ATOM     66  HD  A00 X   4      41.731  30.108  32.1320  0.00  0.00     0.000 HD
ATOM     66   O  A00 X   4      44.333  29.099  31.8340  0.00  0.00     0.000 OA
ATOM     67   S  A00 X   4      43.672  30.359  31.7020  0.00  0.00     0.000 S
ATOM     68   O  A00 X   4      43.028  30.589  30.4420  0.00  0.00     0.000 OA
ATOM     69   O  A00 X   4      44.319  31.516  32.2520  0.00  0.00     0.000 OA
ENDBRANCH 59 66
BRANCH 62 70
ATOM     70   C  A00 X   4      38.284  28.644  34.7850  0.00  0.00     0.000 C
ATOM     71   O  A00 X   4      36.128  28.348  31.8910  0.00  0.00     0.000 OA
ATOM     72   O  A00 X   4      35.956  29.717  33.8000  0.00  0.00     0.000 OA
ATOM     73   O  A00 X   4      37.884  28.323  33.4430  0.00  0.00     0.000 O
ATOM     74   O  A00 X   4      37.572  30.273  32.0620  0.00  0.00     0.000 OA
ATOM     75   S  A00 X   4      36.836  29.260  32.7470  0.00  0.00     0.000 S
ENDBRANCH 62 70
ENDBRANCH 57 61
ENDBRANCH 41 57
ENDBRANCH 40 44
ENDBRANCH 20 40
ENDBRANCH 19 23
ENDBRANCH 1 19
TORSDOF 14
ENDMDL
MODEL 83
REMARK VINA RESULT:       0.1    107.443    112.410
ROOT
ATOM      1  C1  A00 X   1      99.655  34.423  53.2990  0.00  0.00     0.000 C
ATOM      2  C2  A00 X   1     100.481  33.544  54.2760  0.00  0.00     0.000 C
ATOM      3  C3  A00 X   1     100.636  32.039  53.8820  0.00  0.00     0.000 C
ATOM      4  C4  A00 X   1      99.663  31.530  52.7880  0.00  0.00     0.000 C
ATOM      5  C5  A00 X   1      98.407  32.395  52.6850  0.00  0.00     0.000 C
ATOM      6  O5  A00 X   1      98.892  33.701  52.3000  0.00  0.00     0.000 O
ATOM      7   O  A00 X   1     100.401  31.237  55.0380  0.00  0.00     0.000 O
ATOM      9  HD  A00 X   1     100.011  30.845  54.3710  0.00  0.00     0.000 HD
ATOM      9   O  A00 X   1     100.303  31.455  51.5140  0.00  0.00     0.000 O
ATOM     11  HD  A00 X   1      99.913  31.063  50.8480  0.00  0.00     0.000 HD
ENDROOT
BRANCH 2 11
ATOM     11   O  A00 X   1     101.789  34.135  54.3980  0.00  0.00     0.000 O
ATOM     12   O  A00 X   1     103.435  33.272  55.9190  0.00  0.00     0.000 OA
ATOM     13   O  A00 X   1     101.372  34.209  56.8040  0.00  0.00     0.000 OA
ATOM     14   O  A00 X   1     102.981  35.613  55.7570  0.00  0.00     0.000 OA
ATOM     15   S  A00 X   1     102.420  34.291  55.8250  0.00  0.00     0.000 S
ENDBRANCH 2 11
BRANCH 5 16
ATOM     16   C  A00 X   1      97.528  32.412  53.9390  0.00  0.00     0.000 C
ATOM     17   O  A00 X   1      96.627  33.223  54.0060  0.00  0.00     0.000 OA
ATOM     18   O  A00 X   1      97.694  31.640  54.8620  0.00  0.00     0.000 OA
ENDBRANCH 5 16
BRANCH 1 19
ATOM     19  O4  A00 X   2      98.837  35.405  53.9810  0.00  0.00     0.000 O
BRANCH 19 23
ATOM     20  C1  A00 X   2      99.444  38.422  50.9980  0.00  0.00     0.000 C
ATOM     21  C2  A00 X   2     100.306  38.501  52.2810  0.00  0.00     0.000 C
ATOM     22  C3  A00 X   2     100.296  37.155  53.0340  0.00  0.00     0.000 C
ATOM     23  C4  A00 X   2      98.846  36.700  53.3140  0.00  0.00     0.000 C
ATOM     24  C5  A00 X   2      98.086  36.679  51.9600  0.00  0.00     0.000 C
ATOM     25  O5  A00 X   2      98.106  38.014  51.3920  0.00  0.00     0.000 O
ATOM     26   O  A00 X   2     101.163  37.259  54.1760  0.00  0.00     0.000 O
ATOM     28  HD  A00 X   2     100.799  37.996  54.4490  0.00  0.00     0.000 HD
BRANCH 21 30
ATOM     28   N  A00 X   2     100.249  39.963  52.1830  0.00  0.00     0.000 N
ATOM     30  HD  A00 X   2     100.890  39.773  52.7350  0.00  0.00     0.000 HD
ATOM     30   O  A00 X   2     102.240  40.828  53.0470  0.00  0.00     0.000 OA
ATOM     31   S  A00 X   2     100.856  40.826  53.3610  0.00  0.00     0.000 S
ATOM     32   O  A00 X   2     100.203  42.092  53.2240  0.00  0.00     0.000 OA
ATOM     33   O  A00 X   2     100.469  40.197  54.5890  0.00  0.00     0.000 OA
ENDBRANCH 21 30
BRANCH 24 34
ATOM     34   C  A00 X   2      96.678  36.038  51.9280  0.00  0.00     0.000 C
ATOM     35   O  A00 X   2      93.885  37.143  53.9860  0.00  0.00     0.000 OA
ATOM     36   O  A00 X   2      95.898  36.432  53.0740  0.00  0.00     0.000 O
ATOM     37   O  A00 X   2      95.093  38.559  52.5270  0.00  0.00     0.000 OA
ATOM     38   S  A00 X   2      94.588  37.239  52.7490  0.00  0.00     0.000 S
ATOM     39   O  A00 X   2      93.966  36.572  51.6450  0.00  0.00     0.000 OA
ENDBRANCH 24 34
BRANCH 20 40
ATOM     40  O4  A00 X   3     100.040  37.395  50.1920  0.00  0.00     0.000 O
BRANCH 40 44
ATOM     41  C1  A00 X   3      99.458  34.463  48.1460  0.00  0.00     0.000 C
ATOM     42  C2  A00 X   3     100.851  35.033  48.4910  0.00  0.00     0.000 C
ATOM     43  C3  A00 X   3     100.921  36.551  48.1840  0.00  0.00     0.000 C
ATOM     44  C4  A00 X   3      99.778  37.369  48.7730  0.00  0.00     0.000 C
ATOM     45  C5  A00 X   3      98.413  36.738  48.3790  0.00  0.00     0.000 C
ATOM     46  O5  A00 X   3      98.396  35.304  48.6760  0.00  0.00     0.000 O
ATOM     47   O  A00 X   3     102.191  37.169  48.3830  0.00  0.00     0.000 O
ATOM     49  HD  A00 X   3     101.702  37.816  48.6870  0.00  0.00     0.000 HD
BRANCH 42 49
ATOM     49   O  A00 X   3     101.082  34.766  49.8910  0.00  0.00     0.000 O
ATOM     50   O  A00 X   3     102.799  35.252  51.4870  0.00  0.00     0.000 OA
ATOM     51   O  A00 X   3     103.424  34.594  49.3040  0.00  0.00     0.000 OA
ATOM     52   O  A00 X   3     102.394  32.998  50.7100  0.00  0.00     0.000 OA
ATOM     53   S  A00 X   3     102.504  34.380  50.3930  0.00  0.00     0.000 S
ENDBRANCH 42 49
BRANCH 45 54
ATOM     54   C  A00 X   3      98.038  37.058  46.9270  0.00  0.00     0.000 C
ATOM     55   O  A00 X   3      98.878  37.444  46.1410  0.00  0.00     0.000 OA
ATOM     56   O  A00 X   3      96.887  36.931  46.5360  0.00  0.00     0.000 OA
ENDBRANCH 45 54
BRANCH 41 57
ATOM     57  O4  A00 X   4      99.332  34.178  46.7340  0.00  0.00     0.000 O
BRANCH 57 61
ATOM     58  C1  A00 X   4      96.975  31.342  44.4890  0.00  0.00     0.000 C
ATOM     59  C2  A00 X   4      96.282  32.616  45.0330  0.00  0.00     0.000 C
ATOM     60  C3  A00 X   4      97.272  33.706  45.4920  0.00  0.00     0.000 C
ATOM     61  C4  A00 X   4      98.380  33.129  46.3980  0.00  0.00     0.000 C
ATOM     62  C5  A00 X   4      99.078  32.015  45.5780  0.00  0.00     0.000 C
ATOM     63  O5  A00 X   4      98.120  30.965  45.2880  0.00  0.00     0.000 O
BRANCH 59 66
ATOM     64   N  A00 X   4      95.481  32.280  46.2240  0.00  0.00     0.000 N
ATOM     66  HD  A00 X   4      95.736  31.603  46.6990  0.00  0.00     0.000 HD
ATOM     66   O  A00 X   4      93.741  31.556  44.7250  0.00  0.00     0.000 OA
ATOM     67   S  A00 X   4      93.904  32.082  46.0440  0.00  0.00     0.000 S
ATOM     68   O  A00 X   4      93.636  31.164  47.1130  0.00  0.00     0.000 OA
ATOM     69   O  A00 X   4      93.451  33.421  46.2920  0.00  0.00     0.000 OA
ENDBRANCH 59 66
BRANCH 62 70
ATOM     70   C  A00 X   4     100.302  31.383  46.2830  0.00  0.00     0.000 C
ATOM     71   O  A00 X   4     100.411  28.507  48.4780  0.00  0.00     0.000 OA
ATOM     72   O  A00 X   4     101.326  30.662  48.7270  0.00  0.00     0.000 OA
ATOM     73   O  A00 X   4      99.922  30.119  46.8500  0.00  0.00     0.000 O
ATOM     74   O  A00 X   4      98.933  30.327  49.0370  0.00  0.00     0.000 OA
ATOM     75   S  A00 X   4     100.136  29.913  48.3900  0.00  0.00     0.000 S
ENDBRANCH 62 70
ENDBRANCH 57 61
ENDBRANCH 41 57
ENDBRANCH 40 44
ENDBRANCH 20 40
ENDBRANCH 19 23
ENDBRANCH 1 19
TORSDOF 14
ENDMDL
MODEL 84
REMARK VINA RESULT:       0.1     89.909     95.177
ROOT
ATOM      1  C1  A00 X   1      92.100  51.686  89.5770  0.00  0.00     0.000 C
ATOM      2  C2  A00 X   1      91.565  51.693  91.0340  0.00  0.00     0.000 C
ATOM      3  C3  A00 X   1      92.390  52.531  92.0650  0.00  0.00     0.000 C
ATOM      4  C4  A00 X   1      93.814  52.941  91.6070  0.00  0.00     0.000 C
ATOM      5  C5  A00 X   1      94.351  52.027  90.5070  0.00  0.00     0.000 C
ATOM      6  O5  A00 X   1      93.440  52.209  89.4000  0.00  0.00     0.000 O
ATOM      7   O  A00 X   1      92.553  51.762  93.2540  0.00  0.00     0.000 O
ATOM      9  HD  A00 X   1      93.310  52.154  93.0980  0.00  0.00     0.000 HD
ATOM      9   O  A00 X   1      93.850  54.298  91.1670  0.00  0.00     0.000 O
ATOM     11  HD  A00 X   1      94.606  54.691  91.0110  0.00  0.00     0.000 HD
ENDROOT
BRANCH 2 11
ATOM     11   O  A00 X   1      90.212  52.189  91.0020  0.00  0.00     0.000 O
ATOM     12   O  A00 X   1      88.842  52.268  92.9730  0.00  0.00     0.000 OA
ATOM     13   O  A00 X   1      89.579  50.112  92.1220  0.00  0.00     0.000 OA
ATOM     14   O  A00 X   1      88.011  51.418  90.9000  0.00  0.00     0.000 OA
ATOM     15   S  A00 X   1      89.110  51.438  91.8260  0.00  0.00     0.000 S
ENDBRANCH 2 11
BRANCH 5 16
ATOM     16   C  A00 X   1      94.535  50.561  90.9140  0.00  0.00     0.000 C
ATOM     17   O  A00 X   1      94.764  49.742  90.0480  0.00  0.00     0.000 OA
ATOM     18   O  A00 X   1      94.467  50.193  92.0690  0.00  0.00     0.000 OA
ENDBRANCH 5 16
BRANCH 1 19
ATOM     19  O4  A00 X   2      91.945  50.400  88.9290  0.00  0.00     0.000 O
BRANCH 19 23
ATOM     20  C1  A00 X   2      91.023  52.103  85.1060  0.00  0.00     0.000 C
ATOM     21  C2  A00 X   2      89.838  51.620  85.9770  0.00  0.00     0.000 C
ATOM     22  C3  A00 X   2      90.273  51.448  87.4480  0.00  0.00     0.000 C
ATOM     23  C4  A00 X   2      91.506  50.521  87.5450  0.00  0.00     0.000 C
ATOM     24  C5  A00 X   2      92.609  51.100  86.6180  0.00  0.00     0.000 C
ATOM     25  O5  A00 X   2      92.102  51.142  85.2580  0.00  0.00     0.000 O
ATOM     26   O  A00 X   2      89.125  51.066  88.2260  0.00  0.00     0.000 O
ATOM     28  HD  A00 X   2      88.907  50.428  87.6830  0.00  0.00     0.000 HD
BRANCH 21 30
ATOM     28   N  A00 X   2      89.144  51.224  84.7490  0.00  0.00     0.000 N
ATOM     30  HD  A00 X   2      88.549  51.242  85.3780  0.00  0.00     0.000 HD
ATOM     30   O  A00 X   2      86.848  51.486  85.0940  0.00  0.00     0.000 OA
ATOM     31   S  A00 X   2      87.778  50.437  84.8690  0.00  0.00     0.000 S
ATOM     32   O  A00 X   2      87.653  49.779  83.6060  0.00  0.00     0.000 OA
ATOM     33   O  A00 X   2      87.936  49.474  85.9180  0.00  0.00     0.000 OA
ENDBRANCH 21 30
BRANCH 24 34
ATOM     34   C  A00 X   2      94.027  50.489  86.7070  0.00  0.00     0.000 C
ATOM     35   O  A00 X   2      94.772  46.971  86.1350  0.00  0.00     0.000 OA
ATOM     36   O  A00 X   2      93.972  49.051  86.7860  0.00  0.00     0.000 O
ATOM     37   O  A00 X   2      93.663  48.358  84.5730  0.00  0.00     0.000 OA
ATOM     38   S  A00 X   2      94.661  48.287  85.5970  0.00  0.00     0.000 S
ATOM     39   O  A00 X   2      95.906  48.951  85.3560  0.00  0.00     0.000 OA
ENDBRANCH 24 34
BRANCH 20 40
ATOM     40  O4  A00 X   3      91.422  53.365  85.6590  0.00  0.00     0.000 O
BRANCH 40 44
ATOM     41  C1  A00 X   3      94.192  55.446  86.7170  0.00  0.00     0.000 C
ATOM     42  C2  A00 X   3      92.703  55.830  86.8480  0.00  0.00     0.000 C
ATOM     43  C3  A00 X   3      91.961  55.646  85.4990  0.00  0.00     0.000 C
ATOM     44  C4  A00 X   3      92.172  54.289  84.8400  0.00  0.00     0.000 C
ATOM     45  C5  A00 X   3      93.691  53.977  84.7400  0.00  0.00     0.000 C
ATOM     46  O5  A00 X   3      94.352  54.174  86.0310  0.00  0.00     0.000 O
ATOM     47   O  A00 X   3      90.594  56.054  85.4790  0.00  0.00     0.000 O
ATOM     49  HD  A00 X   3      90.507  55.345  84.9900  0.00  0.00     0.000 HD
BRANCH 42 49
ATOM     49   O  A00 X   3      92.139  54.991  87.8800  0.00  0.00     0.000 O
ATOM     50   O  A00 X   3      89.974  54.645  88.8410  0.00  0.00     0.000 OA
ATOM     51   O  A00 X   3      90.672  56.854  88.3660  0.00  0.00     0.000 OA
ATOM     52   O  A00 X   3      91.768  55.672  90.0960  0.00  0.00     0.000 OA
ATOM     53   S  A00 X   3      91.072  55.559  88.8600  0.00  0.00     0.000 S
ENDBRANCH 42 49
BRANCH 45 54
ATOM     54   C  A00 X   3      94.356  54.755  83.5970  0.00  0.00     0.000 C
ATOM     55   O  A00 X   3      95.434  54.410  83.1590  0.00  0.00     0.000 OA
ATOM     56   O  A00 X   3      93.814  55.735  83.1100  0.00  0.00     0.000 OA
ENDBRANCH 45 54
BRANCH 41 57
ATOM     57  O4  A00 X   4      94.973  56.522  86.1480  0.00  0.00     0.000 O
BRANCH 57 61
ATOM     58  C1  A00 X   4      99.118  57.674  86.5000  0.00  0.00     0.000 C
ATOM     59  C2  A00 X   4      98.756  56.480  85.5810  0.00  0.00     0.000 C
ATOM     60  C3  A00 X   4      97.252  56.391  85.2540  0.00  0.00     0.000 C
ATOM     61  C4  A00 X   4      96.380  56.528  86.5200  0.00  0.00     0.000 C
ATOM     62  C5  A00 X   4      96.758  57.885  87.1650  0.00  0.00     0.000 C
ATOM     63  O5  A00 X   4      98.153  57.854  87.5610  0.00  0.00     0.000 O
BRANCH 59 66
ATOM     64   N  A00 X   4      99.091  55.210  86.2490  0.00  0.00     0.000 N
ATOM     66  HD  A00 X   4      99.079  55.198  87.1150  0.00  0.00     0.000 HD
ATOM     66   O  A00 X   4     101.360  55.537  85.5150  0.00  0.00     0.000 OA
ATOM     67   S  A00 X   4     100.457  54.481  85.8500  0.00  0.00     0.000 S
ATOM     68   O  A00 X   4     100.746  53.786  87.0700  0.00  0.00     0.000 OA
ATOM     69   O  A00 X   4      99.991  53.635  84.7870  0.00  0.00     0.000 OA
ENDBRANCH 59 66
BRANCH 62 70
ATOM     70   C  A00 X   4      95.904  58.258  88.4000  0.00  0.00     0.000 C
ATOM     71   O  A00 X   4      96.509  57.482  91.8840  0.00  0.00     0.000 OA
ATOM     72   O  A00 X   4      94.572  57.226  90.5690  0.00  0.00     0.000 OA
ATOM     73   O  A00 X   4      96.645  57.963  89.5950  0.00  0.00     0.000 O
ATOM     74   O  A00 X   4      96.427  55.668  90.2970  0.00  0.00     0.000 OA
ATOM     75   S  A00 X   4      95.997  56.986  90.6380  0.00  0.00     0.000 S
ENDBRANCH 62 70
ENDBRANCH 57 61
ENDBRANCH 41 57
ENDBRANCH 40 44
ENDBRANCH 20 40
ENDBRANCH 19 23
ENDBRANCH 1 19
TORSDOF 14
ENDMDL
MODEL 85
REMARK VINA RESULT:       0.1     61.048     65.161
ROOT
ATOM      1  C1  A00 X   1      64.990  58.638 113.2120  0.00  0.00     0.000 C
ATOM      2  C2  A00 X   1      65.566  59.709 114.1770  0.00  0.00     0.000 C
ATOM      3  C3  A00 X   1      64.526  60.688 114.8160  0.00  0.00     0.000 C
ATOM      4  C4  A00 X   1      63.130  60.714 114.1420  0.00  0.00     0.000 C
ATOM      5  C5  A00 X   1      63.178  60.219 112.6960  0.00  0.00     0.000 C
ATOM      6  O5  A00 X   1      63.618  58.846 112.7930  0.00  0.00     0.000 O
ATOM      7   O  A00 X   1      65.039  62.015 114.7360  0.00  0.00     0.000 O
ATOM      9  HD  A00 X   1      64.196  62.055 114.5430  0.00  0.00     0.000 HD
ATOM      9   O  A00 X   1      62.179  59.950 114.8820  0.00  0.00     0.000 O
ATOM     11  HD  A00 X   1      61.336  59.990 114.6890  0.00  0.00     0.000 HD
ENDROOT
BRANCH 2 11
ATOM     11   O  A00 X   1      66.268  59.018 115.2290  0.00  0.00     0.000 O
ATOM     12   O  A00 X   1      67.141  60.174 117.1440  0.00  0.00     0.000 OA
ATOM     13   O  A00 X   1      68.036  60.679 114.9400  0.00  0.00     0.000 OA
ATOM     14   O  A00 X   1      68.442  58.564 115.9490  0.00  0.00     0.000 OA
ATOM     15   S  A00 X   1      67.544  59.683 115.8510  0.00  0.00     0.000 S
ENDBRANCH 2 11
BRANCH 5 16
ATOM     16   C  A00 X   1      64.028  61.070 111.7480  0.00  0.00     0.000 C
ATOM     17   O  A00 X   1      64.290  60.629 110.6480  0.00  0.00     0.000 OA
ATOM     18   O  A00 X   1      64.443  62.170 112.0540  0.00  0.00     0.000 OA
ENDBRANCH 5 16
BRANCH 1 19
ATOM     19  O4  A00 X   2      65.855  58.381 112.0780  0.00  0.00     0.000 O
BRANCH 19 23
ATOM     20  C1  A00 X   2      65.129  54.158 112.0940  0.00  0.00     0.000 C
ATOM     21  C2  A00 X   2      66.423  54.663 112.7770  0.00  0.00     0.000 C
ATOM     22  C3  A00 X   2      66.334  56.175 113.0730  0.00  0.00     0.000 C
ATOM     23  C4  A00 X   2      65.988  56.961 111.7880  0.00  0.00     0.000 C
ATOM     24  C5  A00 X   2      64.690  56.349 111.1920  0.00  0.00     0.000 C
ATOM     25  O5  A00 X   2      64.928  54.949 110.8920  0.00  0.00     0.000 O
ATOM     26   O  A00 X   2      67.526  56.580 113.7670  0.00  0.00     0.000 O
ATOM     28  HD  A00 X   2      68.051  56.206 113.1880  0.00  0.00     0.000 HD
BRANCH 21 30
ATOM     28   N  A00 X   2      67.095  53.442 112.3240  0.00  0.00     0.000 N
ATOM     30  HD  A00 X   2      67.596  53.790 112.9380  0.00  0.00     0.000 HD
ATOM     30   O  A00 X   2      68.718  52.874 113.9060  0.00  0.00     0.000 OA
ATOM     31   S  A00 X   2      68.653  53.303 112.5540  0.00  0.00     0.000 S
ATOM     32   O  A00 X   2      69.052  52.325 111.5900  0.00  0.00     0.000 OA
ATOM     33   O  A00 X   2      69.241  54.573 112.2470  0.00  0.00     0.000 OA
ENDBRANCH 21 30
BRANCH 24 34
ATOM     34   C  A00 X   2      64.002  57.101 110.0280  0.00  0.00     0.000 C
ATOM     35   O  A00 X   2      65.625  57.892 106.8670  0.00  0.00     0.000 OA
ATOM     36   O  A00 X   2      64.968  57.578 109.0710  0.00  0.00     0.000 O
ATOM     37   O  A00 X   2      65.458  55.707 107.7550  0.00  0.00     0.000 OA
ATOM     38   S  A00 X   2      64.826  56.984 107.6210  0.00  0.00     0.000 S
ATOM     39   O  A00 X   2      63.428  57.003 107.3110  0.00  0.00     0.000 OA
ENDBRANCH 24 34
BRANCH 20 40
ATOM     40  O4  A00 X   3      64.070  54.422 113.0250  0.00  0.00     0.000 O
BRANCH 40 44
ATOM     41  C1  A00 X   3      60.724  55.731 113.4930  0.00  0.00     0.000 C
ATOM     42  C2  A00 X   3      61.632  55.208 114.6280  0.00  0.00     0.000 C
ATOM     43  C3  A00 X   3      62.190  53.802 114.2890  0.00  0.00     0.000 C
ATOM     44  C4  A00 X   3      62.831  53.689 112.9120  0.00  0.00     0.000 C
ATOM     45  C5  A00 X   3      61.858  54.229 111.8260  0.00  0.00     0.000 C
ATOM     46  O5  A00 X   3      61.348  55.552 112.1920  0.00  0.00     0.000 O
ATOM     47   O  A00 X   3      62.973  53.181 115.3060  0.00  0.00     0.000 O
ATOM     49  HD  A00 X   3      63.446  52.923 114.6280  0.00  0.00     0.000 HD
BRANCH 42 49
ATOM     49   O  A00 X   3      62.695  56.171 114.7970  0.00  0.00     0.000 O
ATOM     50   O  A00 X   3      64.661  56.361 116.1500  0.00  0.00     0.000 OA
ATOM     51   O  A00 X   3      62.674  55.539 117.1330  0.00  0.00     0.000 OA
ATOM     52   O  A00 X   3      62.752  57.809 116.4780  0.00  0.00     0.000 OA
ATOM     53   S  A00 X   3      63.240  56.499 116.2180  0.00  0.00     0.000 S
ENDBRANCH 42 49
BRANCH 45 54
ATOM     54   C  A00 X   3      60.746  53.221 111.5090  0.00  0.00     0.000 C
ATOM     55   O  A00 X   3      60.489  52.320 112.2810  0.00  0.00     0.000 OA
ATOM     56   O  A00 X   3      60.102  53.305 110.4750  0.00  0.00     0.000 OA
ENDBRANCH 45 54
BRANCH 41 57
ATOM     57  O4  A00 X   4      59.389  55.186 113.5840  0.00  0.00     0.000 O
BRANCH 57 61
ATOM     58  C1  A00 X   4      55.520  56.611 112.3020  0.00  0.00     0.000 C
ATOM     59  C2  A00 X   4      56.473  56.002 111.2440  0.00  0.00     0.000 C
ATOM     60  C3  A00 X   4      57.648  55.213 111.8570  0.00  0.00     0.000 C
ATOM     61  C4  A00 X   4      58.345  56.005 112.9840  0.00  0.00     0.000 C
ATOM     62  C5  A00 X   4      57.250  56.328 114.0310  0.00  0.00     0.000 C
ATOM     63  O5  A00 X   4      56.242  57.175 113.4210  0.00  0.00     0.000 O
BRANCH 59 66
ATOM     64   N  A00 X   4      57.088  57.083 110.4530  0.00  0.00     0.000 N
ATOM     66  HD  A00 X   4      57.178  57.856 110.8340  0.00  0.00     0.000 HD
ATOM     66   O  A00 X   4      55.082  57.112 109.1210  0.00  0.00     0.000 OA
ATOM     67   S  A00 X   4      56.476  57.408 109.0110  0.00  0.00     0.000 S
ATOM     68   O  A00 X   4      56.804  58.800 108.8990  0.00  0.00     0.000 OA
ATOM     69   O  A00 X   4      57.282  56.546 108.1940  0.00  0.00     0.000 OA
ENDBRANCH 59 66
BRANCH 62 70
ATOM     70   C  A00 X   4      57.779  57.031 115.3030  0.00  0.00     0.000 C
ATOM     71   O  A00 X   4      58.206  60.574 115.9170  0.00  0.00     0.000 OA
ATOM     72   O  A00 X   4      59.684  58.771 116.2460  0.00  0.00     0.000 OA
ATOM     73   O  A00 X   4      57.545  58.445 115.1970  0.00  0.00     0.000 O
ATOM     74   O  A00 X   4      59.281  59.600 113.9910  0.00  0.00     0.000 OA
ATOM     75   S  A00 X   4      58.780  59.404 115.3130  0.00  0.00     0.000 S
ENDBRANCH 62 70
ENDBRANCH 57 61
ENDBRANCH 41 57
ENDBRANCH 40 44
ENDBRANCH 20 40
ENDBRANCH 19 23
ENDBRANCH 1 19
TORSDOF 14
ENDMDL
MODEL 86
REMARK VINA RESULT:       0.1    127.219    131.898
ROOT
ATOM      1  C1  A00 X   1     112.288  60.349  44.5450  0.00  0.00     0.000 C
ATOM      2  C2  A00 X   1     113.106  59.310  45.3570  0.00  0.00     0.000 C
ATOM      3  C3  A00 X   1     112.756  57.807  45.1010  0.00  0.00     0.000 C
ATOM      4  C4  A00 X   1     111.417  57.549  44.3650  0.00  0.00     0.000 C
ATOM      5  C5  A00 X   1     110.445  58.720  44.5060  0.00  0.00     0.000 C
ATOM      6  O5  A00 X   1     111.115  59.831  43.8690  0.00  0.00     0.000 O
ATOM      7   O  A00 X   1     112.664  57.138  46.3560  0.00  0.00     0.000 O
ATOM      9  HD  A00 X   1     112.015  56.846  45.8630  0.00  0.00     0.000 HD
ATOM      9   O  A00 X   1     111.627  57.260  42.9830  0.00  0.00     0.000 O
ATOM     11  HD  A00 X   1     110.978  56.969  42.4900  0.00  0.00     0.000 HD
ENDROOT
BRANCH 2 11
ATOM     11   O  A00 X   1     114.501  59.524  45.0640  0.00  0.00     0.000 O
ATOM     12   O  A00 X   1     116.209  58.038  45.8640  0.00  0.00     0.000 OA
ATOM     13   O  A00 X   1     114.890  59.306  47.4660  0.00  0.00     0.000 OA
ATOM     14   O  A00 X   1     116.432  60.412  46.0310  0.00  0.00     0.000 OA
ATOM     15   S  A00 X   1     115.559  59.280  46.1950  0.00  0.00     0.000 S
ENDBRANCH 2 11
BRANCH 5 16
ATOM     16   C  A00 X   1     109.993  59.018  45.9390  0.00  0.00     0.000 C
ATOM     17   O  A00 X   1     110.144  58.162  46.7860  0.00  0.00     0.000 OA
ATOM     18   O  A00 X   1     109.496  60.080  46.2580  0.00  0.00     0.000 OA
ENDBRANCH 5 16
BRANCH 1 19
ATOM     19  O4  A00 X   2     111.975  61.538  45.3100  0.00  0.00     0.000 O
BRANCH 19 23
ATOM     20  C1  A00 X   2     112.452  64.185  41.9740  0.00  0.00     0.000 C
ATOM     21  C2  A00 X   2     113.651  64.031  42.9400  0.00  0.00     0.000 C
ATOM     22  C3  A00 X   2     113.499  62.762  43.8050  0.00  0.00     0.000 C
ATOM     23  C4  A00 X   2     112.137  62.760  44.5340  0.00  0.00     0.000 C
ATOM     24  C5  A00 X   2     111.025  62.940  43.4640  0.00  0.00     0.000 C
ATOM     25  O5  A00 X   2     111.240  64.199  42.7740  0.00  0.00     0.000 O
ATOM     26   O  A00 X   2     114.666  62.626  44.6340  0.00  0.00     0.000 O
ATOM     28  HD  A00 X   2     114.621  63.443  44.9180  0.00  0.00     0.000 HD
BRANCH 21 30
ATOM     28   N  A00 X   2     113.972  65.441  42.7040  0.00  0.00     0.000 N
ATOM     30  HD  A00 X   2     114.671  65.082  43.0690  0.00  0.00     0.000 HD
ATOM     30   O  A00 X   2     116.289  65.696  42.8680  0.00  0.00     0.000 OA
ATOM     31   S  A00 X   2     115.120  66.111  43.5600  0.00  0.00     0.000 S
ATOM     32   O  A00 X   2     114.833  67.509  43.4770  0.00  0.00     0.000 OA
ATOM     33   O  A00 X   2     114.966  65.651  44.9080  0.00  0.00     0.000 OA
ENDBRANCH 21 30
BRANCH 24 34
ATOM     34   C  A00 X   2     109.556  62.743  43.9040  0.00  0.00     0.000 C
ATOM     35   O  A00 X   2     106.956  65.264  43.5240  0.00  0.00     0.000 OA
ATOM     36   O  A00 X   2     108.854  64.001  43.9610  0.00  0.00     0.000 O
ATOM     37   O  A00 X   2     108.274  64.445  41.7390  0.00  0.00     0.000 OA
ATOM     38   S  A00 X   2     107.632  64.132  42.9800  0.00  0.00     0.000 S
ATOM     39   O  A00 X   2     106.912  62.897  43.0620  0.00  0.00     0.000 OA
ENDBRANCH 24 34
BRANCH 20 40
ATOM     40  O4  A00 X   3     112.467  63.013  41.1460  0.00  0.00     0.000 O
BRANCH 40 44
ATOM     41  C1  A00 X   3     110.677  60.367  39.4380  0.00  0.00     0.000 C
ATOM     42  C2  A00 X   3     112.211  60.539  39.4300  0.00  0.00     0.000 C
ATOM     43  C3  A00 X   3     112.606  61.986  39.0380  0.00  0.00     0.000 C
ATOM     44  C4  A00 X   3     111.887  63.074  39.8250  0.00  0.00     0.000 C
ATOM     45  C5  A00 X   3     110.351  62.835  39.7820  0.00  0.00     0.000 C
ATOM     46  O5  A00 X   3     110.026  61.456  40.1490  0.00  0.00     0.000 O
ATOM     47   O  A00 X   3     114.004  62.238  38.9130  0.00  0.00     0.000 O
ATOM     49  HD  A00 X   3     113.787  62.989  39.2850  0.00  0.00     0.000 HD
BRANCH 42 49
ATOM     49   O  A00 X   3     112.681  60.204  40.7550  0.00  0.00     0.000 O
ATOM     50   O  A00 X   3     114.785  60.200  41.8960  0.00  0.00     0.000 OA
ATOM     51   O  A00 X   3     114.696  59.424  39.6650  0.00  0.00     0.000 OA
ATOM     52   O  A00 X   3     113.639  58.143  41.3470  0.00  0.00     0.000 OA
ATOM     53   S  A00 X   3     114.030  59.450  40.9430  0.00  0.00     0.000 S
ENDBRANCH 42 49
BRANCH 45 54
ATOM     54   C  A00 X   3     109.748  63.260  38.4380  0.00  0.00     0.000 C
ATOM     55   O  A00 X   3     110.457  63.682  37.5470  0.00  0.00     0.000 OA
ATOM     56   O  A00 X   3     108.546  63.183  38.2390  0.00  0.00     0.000 OA
ENDBRANCH 45 54
BRANCH 41 57
ATOM     57  O4  A00 X   4     110.158  60.141  38.1090  0.00  0.00     0.000 O
BRANCH 57 61
ATOM     58  C1  A00 X   4     106.899  57.756  36.5820  0.00  0.00     0.000 C
ATOM     59  C2  A00 X   4     106.571  58.948  37.5160  0.00  0.00     0.000 C
ATOM     60  C3  A00 X   4     107.750  59.925  37.7020  0.00  0.00     0.000 C
ATOM     61  C4  A00 X   4     109.064  59.183  38.0260  0.00  0.00     0.000 C
ATOM     62  C5  A00 X   4     109.305  58.193  36.8590  0.00  0.00     0.000 C
ATOM     63  O5  A00 X   4     108.223  57.228  36.8220  0.00  0.00     0.000 O
BRANCH 59 66
ATOM     64   N  A00 X   4     106.022  59.086  38.8770  0.00  0.00     0.000 N
ATOM     66  HD  A00 X   4     106.367  58.592  39.5000  0.00  0.00     0.000 HD
ATOM     66   O  A00 X   4     104.021  58.018  38.0700  0.00  0.00     0.000 OA
ATOM     67   S  A00 X   4     104.441  58.945  39.0740  0.00  0.00     0.000 S
ATOM     68   O  A00 X   4     104.391  58.459  40.4220  0.00  0.00     0.000 OA
ATOM     69   O  A00 X   4     104.044  60.316  38.9280  0.00  0.00     0.000 OA
ENDBRANCH 59 66
BRANCH 62 70
ATOM     70   C  A00 X   4     110.646  57.426  36.9480  0.00  0.00     0.000 C
ATOM     71   O  A00 X   4     111.612  54.823  39.2720  0.00  0.00     0.000 OA
ATOM     72   O  A00 X   4     112.731  56.789  38.6190  0.00  0.00     0.000 OA
ATOM     73   O  A00 X   4     110.500  56.318  37.8520  0.00  0.00     0.000 O
ATOM     74   O  A00 X   4     110.846  56.931  40.1570  0.00  0.00     0.000 OA
ATOM     75   S  A00 X   4     111.475  56.239  39.0780  0.00  0.00     0.000 S
ENDBRANCH 62 70
ENDBRANCH 57 61
ENDBRANCH 41 57
ENDBRANCH 40 44
ENDBRANCH 20 40
ENDBRANCH 19 23
ENDBRANCH 1 19
TORSDOF 14
ENDMDL
MODEL 87
REMARK VINA RESULT:       0.1     73.972     77.712
ROOT
ATOM      1  C1  A00 X   1      75.016  59.236 111.3280  0.00  0.00     0.000 C
ATOM      2  C2  A00 X   1      73.557  59.748 111.4600  0.00  0.00     0.000 C
ATOM      3  C3  A00 X   1      72.662  59.612 110.1840  0.00  0.00     0.000 C
ATOM      4  C4  A00 X   1      73.422  59.333 108.8620  0.00  0.00     0.000 C
ATOM      5  C5  A00 X   1      74.884  59.774 108.9320  0.00  0.00     0.000 C
ATOM      6  O5  A00 X   1      75.463  58.961 109.9770  0.00  0.00     0.000 O
ATOM      7   O  A00 X   1      71.950  60.831 109.9920  0.00  0.00     0.000 O
ATOM      9  HD  A00 X   1      72.217  60.567 109.2120  0.00  0.00     0.000 HD
ATOM      9   O  A00 X   1      73.351  57.954 108.5000  0.00  0.00     0.000 O
ATOM     11  HD  A00 X   1      73.618  57.689 107.7200  0.00  0.00     0.000 HD
ENDROOT
BRANCH 2 11
ATOM     11   O  A00 X   1      72.938  59.033 112.5460  0.00  0.00     0.000 O
ATOM     12   O  A00 X   1      70.723  59.557 113.3140  0.00  0.00     0.000 OA
ATOM     13   O  A00 X   1      72.486  61.219 113.5380  0.00  0.00     0.000 OA
ATOM     14   O  A00 X   1      72.535  59.228 114.8380  0.00  0.00     0.000 OA
ATOM     15   S  A00 X   1      72.107  59.835 113.6070  0.00  0.00     0.000 S
ENDBRANCH 2 11
BRANCH 5 16
ATOM     16   C  A00 X   1      75.098  61.277 109.1350  0.00  0.00     0.000 C
ATOM     17   O  A00 X   1      74.173  62.031 108.9130  0.00  0.00     0.000 OA
ATOM     18   O  A00 X   1      76.155  61.739 109.5170  0.00  0.00     0.000 OA
ENDBRANCH 5 16
BRANCH 1 19
ATOM     19  O4  A00 X   2      75.968  60.063 112.0410  0.00  0.00     0.000 O
BRANCH 19 23
ATOM     20  C1  A00 X   2      78.405  56.748 113.2390  0.00  0.00     0.000 C
ATOM     21  C2  A00 X   2      77.397  57.304 114.2730  0.00  0.00     0.000 C
ATOM     22  C3  A00 X   2      76.323  58.170 113.5830  0.00  0.00     0.000 C
ATOM     23  C4  A00 X   2      76.982  59.278 112.7310  0.00  0.00     0.000 C
ATOM     24  C5  A00 X   2      77.978  58.596 111.7530  0.00  0.00     0.000 C
ATOM     25  O5  A00 X   2      78.974  57.878 112.5270  0.00  0.00     0.000 O
ATOM     26   O  A00 X   2      75.375  58.605 114.5730  0.00  0.00     0.000 O
ATOM     28  HD  A00 X   2      75.991  58.892 115.1090  0.00  0.00     0.000 HD
BRANCH 21 30
ATOM     28   N  A00 X   2      78.364  56.989 115.3290  0.00  0.00     0.000 N
ATOM     30  HD  A00 X   2      77.602  57.121 115.7190  0.00  0.00     0.000 HD
ATOM     30   O  A00 X   2      77.176  56.440 117.2640  0.00  0.00     0.000 OA
ATOM     31   S  A00 X   2      78.054  57.458 116.8070  0.00  0.00     0.000 S
ATOM     32   O  A00 X   2      79.339  57.474 117.4340  0.00  0.00     0.000 OA
ATOM     33   O  A00 X   2      77.523  58.786 116.7260  0.00  0.00     0.000 OA
ENDBRANCH 21 30
BRANCH 24 34
ATOM     34   C  A00 X   2      78.601  59.461 110.6320  0.00  0.00     0.000 C
ATOM     35   O  A00 X   2      80.562  62.470 111.2280  0.00  0.00     0.000 OA
ATOM     36   O  A00 X   2      79.005  60.752 111.1320  0.00  0.00     0.000 O
ATOM     37   O  A00 X   2      81.067  60.357 112.1630  0.00  0.00     0.000 OA
ATOM     38   S  A00 X   2      80.544  61.058 111.0300  0.00  0.00     0.000 S
ATOM     39   O  A00 X   2      80.959  60.622 109.7310  0.00  0.00     0.000 OA
ENDBRANCH 24 34
BRANCH 20 40
ATOM     40  O4  A00 X   3      77.630  55.950 112.3320  0.00  0.00     0.000 O
BRANCH 40 44
ATOM     41  C1  A00 X   3      76.958  55.122 108.8700  0.00  0.00     0.000 C
ATOM     42  C2  A00 X   3      76.194  54.540 110.0780  0.00  0.00     0.000 C
ATOM     43  C3  A00 X   3      77.176  53.978 111.1380  0.00  0.00     0.000 C
ATOM     44  C4  A00 X   3      78.289  54.938 111.5410  0.00  0.00     0.000 C
ATOM     45  C5  A00 X   3      79.012  55.476 110.2750  0.00  0.00     0.000 C
ATOM     46  O5  A00 X   3      78.047  55.986 109.2980  0.00  0.00     0.000 O
ATOM     47   O  A00 X   3      76.579  53.335 112.2620  0.00  0.00     0.000 O
ATOM     49  HD  A00 X   3      77.218  53.735 112.6880  0.00  0.00     0.000 HD
BRANCH 42 49
ATOM     49   O  A00 X   3      75.384  55.606 110.6210  0.00  0.00     0.000 O
ATOM     50   O  A00 X   3      73.912  55.885 112.4870  0.00  0.00     0.000 OA
ATOM     51   O  A00 X   3      73.814  53.875 111.2470  0.00  0.00     0.000 OA
ATOM     52   O  A00 X   3      73.087  55.872 110.2140  0.00  0.00     0.000 OA
ATOM     53   S  A00 X   3      73.963  55.307 111.1810  0.00  0.00     0.000 S
ENDBRANCH 42 49
BRANCH 45 54
ATOM     54   C  A00 X   3      79.974  54.437 109.6860  0.00  0.00     0.000 C
ATOM     55   O  A00 X   3      80.849  54.772 108.9140  0.00  0.00     0.000 OA
ATOM     56   O  A00 X   3      79.877  53.256 109.9820  0.00  0.00     0.000 OA
ENDBRANCH 45 54
BRANCH 41 57
ATOM     57  O4  A00 X   4      77.358  54.088 107.9420  0.00  0.00     0.000 O
BRANCH 57 61
ATOM     58  C1  A00 X   4      78.096  54.056 103.6890  0.00  0.00     0.000 C
ATOM     59  C2  A00 X   4      79.180  54.646 104.6240  0.00  0.00     0.000 C
ATOM     60  C3  A00 X   4      78.975  54.283 106.1090  0.00  0.00     0.000 C
ATOM     61  C4  A00 X   4      77.519  54.524 106.5620  0.00  0.00     0.000 C
ATOM     62  C5  A00 X   4      76.624  53.676 105.6250  0.00  0.00     0.000 C
ATOM     63  O5  A00 X   4      76.772  54.153 104.2630  0.00  0.00     0.000 O
BRANCH 59 66
ATOM     64   N  A00 X   4      79.140  56.118 104.5660  0.00  0.00     0.000 N
ATOM     66  HD  A00 X   4      78.383  56.491 104.3720  0.00  0.00     0.000 HD
ATOM     66   O  A00 X   4      80.463  55.975 102.5590  0.00  0.00     0.000 OA
ATOM     67   S  A00 X   4      80.212  56.869 103.6460  0.00  0.00     0.000 S
ATOM     68   O  A00 X   4      79.479  58.055 103.3120  0.00  0.00     0.000 OA
ATOM     69   O  A00 X   4      81.264  57.077 104.6000  0.00  0.00     0.000 OA
ENDBRANCH 59 66
BRANCH 62 70
ATOM     70   C  A00 X   4      75.121  53.700 105.9930  0.00  0.00     0.000 C
ATOM     71   O  A00 X   4      72.552  55.985 104.8610  0.00  0.00     0.000 OA
ATOM     72   O  A00 X   4      73.116  55.264 107.0300  0.00  0.00     0.000 OA
ATOM     73   O  A00 X   4      74.434  54.616 105.1260  0.00  0.00     0.000 O
ATOM     74   O  A00 X   4      74.528  56.896 105.8990  0.00  0.00     0.000 OA
ATOM     75   S  A00 X   4      73.632  55.791 105.7860  0.00  0.00     0.000 S
ENDBRANCH 62 70
ENDBRANCH 57 61
ENDBRANCH 41 57
ENDBRANCH 40 44
ENDBRANCH 20 40
ENDBRANCH 19 23
ENDBRANCH 1 19
TORSDOF 14
ENDMDL
MODEL 88
REMARK VINA RESULT:       0.1     19.295     24.032
ROOT
ATOM      1  C1  A00 X   1      15.862  12.335  93.5570  0.00  0.00     0.000 C
ATOM      2  C2  A00 X   1      16.488  11.374  92.5110  0.00  0.00     0.000 C
ATOM      3  C3  A00 X   1      15.499  10.752  91.4700  0.00  0.00     0.000 C
ATOM      4  C4  A00 X   1      13.994  10.872  91.8240  0.00  0.00     0.000 C
ATOM      5  C5  A00 X   1      13.767  11.068  93.3230  0.00  0.00     0.000 C
ATOM      6  O5  A00 X   1      14.415  12.323  93.6300  0.00  0.00     0.000 O
ATOM      7   O  A00 X   1      15.777   9.359  91.3500  0.00  0.00     0.000 O
ATOM      9  HD  A00 X   1      14.916   9.448  91.3550  0.00  0.00     0.000 HD
ATOM      9   O  A00 X   1      13.370  11.931  91.0990  0.00  0.00     0.000 O
ATOM     11  HD  A00 X   1      12.509  12.020  91.1030  0.00  0.00     0.000 HD
ENDROOT
BRANCH 2 11
ATOM     11   O  A00 X   1      17.515  12.099  91.8080  0.00  0.00     0.000 O
ATOM     12   O  A00 X   1      18.648  11.172  89.9050  0.00  0.00     0.000 OA
ATOM     13   O  A00 X   1      18.903  10.107  92.0770  0.00  0.00     0.000 OA
ATOM     14   O  A00 X   1      19.841  12.255  91.6700  0.00  0.00     0.000 OA
ATOM     15   S  A00 X   1      18.794  11.330  91.3290  0.00  0.00     0.000 S
ENDBRANCH 2 11
BRANCH 5 16
ATOM     16   C  A00 X   1      14.232   9.906  94.2060  0.00  0.00     0.000 C
ATOM     17   O  A00 X   1      14.290  10.076  95.4070  0.00  0.00     0.000 OA
ATOM     18   O  A00 X   1      14.536   8.822  93.7500  0.00  0.00     0.000 OA
ENDBRANCH 5 16
BRANCH 1 19
ATOM     19  O4  A00 X   2      16.459  12.202  94.8700  0.00  0.00     0.000 O
BRANCH 19 23
ATOM     20  C1  A00 X   2      16.392  16.414  95.6590  0.00  0.00     0.000 C
ATOM     21  C2  A00 X   2      17.723  15.801  95.1610  0.00  0.00     0.000 C
ATOM     22  C3  A00 X   2      17.486  14.418  94.5200  0.00  0.00     0.000 C
ATOM     23  C4  A00 X   2      16.726  13.490  95.4950  0.00  0.00     0.000 C
ATOM     24  C5  A00 X   2      15.428  14.222  95.9320  0.00  0.00     0.000 C
ATOM     25  O5  A00 X   2      15.791  15.468  96.5830  0.00  0.00     0.000 O
ATOM     26   O  A00 X   2      18.737  13.924  94.0130  0.00  0.00     0.000 O
ATOM     28  HD  A00 X   2      19.155  14.073  94.7570  0.00  0.00     0.000 HD
BRANCH 21 30
ATOM     28   N  A00 X   2      18.438  16.763  96.0060  0.00  0.00     0.000 N
ATOM     30  HD  A00 X   2      19.016  16.442  95.4470  0.00  0.00     0.000 HD
ATOM     30   O  A00 X   2      20.462  17.285  94.9630  0.00  0.00     0.000 OA
ATOM     31   S  A00 X   2      20.007  16.635  96.1410  0.00  0.00     0.000 S
ATOM     32   O  A00 X   2      20.300  17.323  97.3610  0.00  0.00     0.000 OA
ATOM     33   O  A00 X   2      20.309  15.241  96.2710  0.00  0.00     0.000 OA
ENDBRANCH 21 30
BRANCH 24 34
ATOM     34   C  A00 X   2      14.375  13.417  96.7290  0.00  0.00     0.000 C
ATOM     35   O  A00 X   2      15.006  11.872  99.9650  0.00  0.00     0.000 OA
ATOM     36   O  A00 X   2      14.992  12.640  97.7740  0.00  0.00     0.000 O
ATOM     37   O  A00 X   2      15.337  14.169  99.5100  0.00  0.00     0.000 OA
ATOM     38   S  A00 X   2      14.546  13.009  99.2370  0.00  0.00     0.000 S
ATOM     39   O  A00 X   2      13.123  13.169  99.1980  0.00  0.00     0.000 OA
ENDBRANCH 24 34
BRANCH 20 40
ATOM     40  O4  A00 X   3      15.563  16.540  94.4950  0.00  0.00     0.000 O
BRANCH 40 44
ATOM     41  C1  A00 X   3      12.273  16.013  93.0720  0.00  0.00     0.000 C
ATOM     42  C2  A00 X   3      13.493  16.551  92.2930  0.00  0.00     0.000 C
ATOM     43  C3  A00 X   3      14.153  17.736  93.0450  0.00  0.00     0.000 C
ATOM     44  C4  A00 X   3      14.455  17.465  94.5130  0.00  0.00     0.000 C
ATOM     45  C5  A00 X   3      13.181  16.932  95.2290  0.00  0.00     0.000 C
ATOM     46  O5  A00 X   3      12.586  15.824  94.4800  0.00  0.00     0.000 O
ATOM     47   O  A00 X   3      15.241  18.370  92.3750  0.00  0.00     0.000 O
ATOM     49  HD  A00 X   3      15.569  18.401  93.1760  0.00  0.00     0.000 HD
BRANCH 42 49
ATOM     49   O  A00 X   3      14.413  15.449  92.1330  0.00  0.00     0.000 O
ATOM     50   O  A00 X   3      16.592  15.133  91.1950  0.00  0.00     0.000 OA
ATOM     51   O  A00 X   3      15.037  16.486  90.0380  0.00  0.00     0.000 OA
ATOM     52   O  A00 X   3      14.624  14.164  90.1790  0.00  0.00     0.000 OA
ATOM     53   S  A00 X   3      15.223  15.286  90.8140  0.00  0.00     0.000 S
ENDBRANCH 42 49
BRANCH 45 54
ATOM     54   C  A00 X   3      12.186  18.060  95.5290  0.00  0.00     0.000 C
ATOM     55   O  A00 X   3      12.252  19.118  94.9380  0.00  0.00     0.000 OA
ATOM     56   O  A00 X   3      11.312  17.914  96.3700  0.00  0.00     0.000 OA
ENDBRANCH 45 54
BRANCH 41 57
ATOM     57  O4  A00 X   4      11.094  16.814  92.8350  0.00  0.00     0.000 O
BRANCH 57 61
ATOM     58  C1  A00 X   4       6.864  15.955  92.9610  0.00  0.00     0.000 C
ATOM     59  C2  A00 X   4       7.620  16.156  94.2980  0.00  0.00     0.000 C
ATOM     60  C3  A00 X   4       9.010  16.802  94.1280  0.00  0.00     0.000 C
ATOM     61  C4  A00 X   4       9.828  16.116  93.0120  0.00  0.00     0.000 C
ATOM     62  C5  A00 X   4       8.976  16.216  91.7230  0.00  0.00     0.000 C
ATOM     63  O5  A00 X   4       7.738  15.483  91.9110  0.00  0.00     0.000 O
BRANCH 59 66
ATOM     64   N  A00 X   4       7.975  15.306  95.4490  0.00  0.00     0.000 N
ATOM     66  HD  A00 X   4       8.345  14.541  95.2820  0.00  0.00     0.000 HD
ATOM     66   O  A00 X   4       5.617  14.959  95.7930  0.00  0.00     0.000 OA
ATOM     67   S  A00 X   4       6.842  14.982  96.5300  0.00  0.00     0.000 S
ATOM     68   O  A00 X   4       7.297  13.710  97.0090  0.00  0.00     0.000 OA
ATOM     69   O  A00 X   4       7.051  16.066  97.4480  0.00  0.00     0.000 OA
ENDBRANCH 59 66
BRANCH 62 70
ATOM     70   C  A00 X   4       9.680  15.675  90.4560  0.00  0.00     0.000 C
ATOM     71   O  A00 X   4       9.715  12.297  89.1560  0.00  0.00     0.000 OA
ATOM     72   O  A00 X   4      11.477  13.810  89.5420  0.00  0.00     0.000 OA
ATOM     73   O  A00 X   4       9.222  14.339  90.1920  0.00  0.00     0.000 O
ATOM     74   O  A00 X   4      10.438  12.665  91.4260  0.00  0.00     0.000 OA
ATOM     75   S  A00 X   4      10.296  13.199  90.1100  0.00  0.00     0.000 S
ENDBRANCH 62 70
ENDBRANCH 57 61
ENDBRANCH 41 57
ENDBRANCH 40 44
ENDBRANCH 20 40
ENDBRANCH 19 23
ENDBRANCH 1 19
TORSDOF 14
ENDMDL
MODEL 89
REMARK VINA RESULT:       0.2    107.006    111.611
ROOT
ATOM      1  C1  A00 X   1      31.033  88.865  26.4470  0.00  0.00     0.000 C
ATOM      2  C2  A00 X   1      30.133  88.786  27.7090  0.00  0.00     0.000 C
ATOM      3  C3  A00 X   1      29.667  87.354  28.1330  0.00  0.00     0.000 C
ATOM      4  C4  A00 X   1      29.843  86.249  27.0600  0.00  0.00     0.000 C
ATOM      5  C5  A00 X   1      29.918  86.824  25.6460  0.00  0.00     0.000 C
ATOM      6  O5  A00 X   1      31.100  87.656  25.6500  0.00  0.00     0.000 O
ATOM      7   O  A00 X   1      28.276  87.399  28.4430  0.00  0.00     0.000 O
ATOM      9  HD  A00 X   1      28.415  86.669  27.9980  0.00  0.00     0.000 HD
ATOM      9   O  A00 X   1      30.998  85.451  27.3180  0.00  0.00     0.000 O
ATOM     11  HD  A00 X   1      31.137  84.721  26.8730  0.00  0.00     0.000 HD
ENDROOT
BRANCH 2 11
ATOM     11   O  A00 X   1      30.856  89.387  28.8010  0.00  0.00     0.000 O
ATOM     12   O  A00 X   1      30.047  89.299  31.0610  0.00  0.00     0.000 OA
ATOM     13   O  A00 X   1      28.763  90.503  29.3830  0.00  0.00     0.000 OA
ATOM     14   O  A00 X   1      30.876  91.325  30.1020  0.00  0.00     0.000 OA
ATOM     15   S  A00 X   1      30.057  90.160  29.9060  0.00  0.00     0.000 S
ENDBRANCH 2 11
BRANCH 5 16
ATOM     16   C  A00 X   1      28.656  87.555  25.1760  0.00  0.00     0.000 C
ATOM     17   O  A00 X   1      27.618  87.364  25.7740  0.00  0.00     0.000 OA
ATOM     18   O  A00 X   1      28.660  88.321  24.2330  0.00  0.00     0.000 OA
ENDBRANCH 5 16
BRANCH 1 19
ATOM     19  O4  A00 X   2      30.748  90.024  25.6260  0.00  0.00     0.000 O
BRANCH 19 23
ATOM     20  C1  A00 X   2      34.865  90.750  24.6820  0.00  0.00     0.000 C
ATOM     21  C2  A00 X   2      34.238  91.577  25.8300  0.00  0.00     0.000 C
ATOM     22  C3  A00 X   2      32.935  90.922  26.3320  0.00  0.00     0.000 C
ATOM     23  C4  A00 X   2      31.957  90.688  25.1590  0.00  0.00     0.000 C
ATOM     24  C5  A00 X   2      32.706  89.869  24.0720  0.00  0.00     0.000 C
ATOM     25  O5  A00 X   2      33.866  90.624  23.6350  0.00  0.00     0.000 O
ATOM     26   O  A00 X   2      32.430  91.687  27.4400  0.00  0.00     0.000 O
ATOM     28  HD  A00 X   2      32.489  92.438  27.0130  0.00  0.00     0.000 HD
BRANCH 21 30
ATOM     28   N  A00 X   2      35.078  92.708  25.4240  0.00  0.00     0.000 N
ATOM     30  HD  A00 X   2      34.786  92.886  26.2200  0.00  0.00     0.000 HD
ATOM     30   O  A00 X   2      35.600  93.949  27.3340  0.00  0.00     0.000 OA
ATOM     31   S  A00 X   2      34.862  94.105  26.1300  0.00  0.00     0.000 S
ATOM     32   O  A00 X   2      35.413  95.043  25.2020  0.00  0.00     0.000 OA
ATOM     33   O  A00 X   2      33.449  94.302  26.2560  0.00  0.00     0.000 OA
ENDBRANCH 21 30
BRANCH 24 34
ATOM     34   C  A00 X   2      31.881  89.304  22.8920  0.00  0.00     0.000 C
ATOM     35   O  A00 X   2      29.926  91.352  20.6040  0.00  0.00     0.000 OA
ATOM     36   O  A00 X   2      30.947  90.281  22.3920  0.00  0.00     0.000 O
ATOM     37   O  A00 X   2      32.234  91.663  21.0110  0.00  0.00     0.000 OA
ATOM     38   S  A00 X   2      31.168  90.716  20.8970  0.00  0.00     0.000 S
ATOM     39   O  A00 X   2      31.423  89.515  20.1590  0.00  0.00     0.000 OA
ENDBRANCH 24 34
BRANCH 20 40
ATOM     40  O4  A00 X   3      35.140  89.457  25.2400  0.00  0.00     0.000 O
BRANCH 40 44
ATOM     41  C1  A00 X   3      35.079  85.854  24.8680  0.00  0.00     0.000 C
ATOM     42  C2  A00 X   3      35.569  86.600  26.1280  0.00  0.00     0.000 C
ATOM     43  C3  A00 X   3      36.604  87.694  25.7580  0.00  0.00     0.000 C
ATOM     44  C4  A00 X   3      36.162  88.632  24.6420  0.00  0.00     0.000 C
ATOM     45  C5  A00 X   3      35.690  87.809  23.4100  0.00  0.00     0.000 C
ATOM     46  O5  A00 X   3      34.723  86.783  23.8070  0.00  0.00     0.000 O
ATOM     47   O  A00 X   3      37.191  88.392  26.8540  0.00  0.00     0.000 O
ATOM     49  HD  A00 X   3      37.112  89.069  26.3200  0.00  0.00     0.000 HD
BRANCH 42 49
ATOM     49   O  A00 X   3      34.403  87.170  26.7620  0.00  0.00     0.000 O
ATOM     50   O  A00 X   3      33.966  88.532  28.6820  0.00  0.00     0.000 OA
ATOM     51   O  A00 X   3      35.558  86.793  28.8550  0.00  0.00     0.000 OA
ATOM     52   O  A00 X   3      33.282  86.214  28.5910  0.00  0.00     0.000 OA
ATOM     53   S  A00 X   3      34.282  87.187  28.3140  0.00  0.00     0.000 S
ENDBRANCH 42 49
BRANCH 45 54
ATOM     54   C  A00 X   3      36.874  87.246  22.6150  0.00  0.00     0.000 C
ATOM     55   O  A00 X   3      36.698  86.697  21.5470  0.00  0.00     0.000 OA
ATOM     56   O  A00 X   3      38.015  87.338  23.0430  0.00  0.00     0.000 OA
ENDBRANCH 45 54
BRANCH 41 57
ATOM     57  O4  A00 X   4      36.010  84.826  24.4600  0.00  0.00     0.000 O
BRANCH 57 61
ATOM     58  C1  A00 X   4      35.498  80.964  22.6010  0.00  0.00     0.000 C
ATOM     59  C2  A00 X   4      35.049  82.226  21.8240  0.00  0.00     0.000 C
ATOM     60  C3  A00 X   4      35.600  83.540  22.4140  0.00  0.00     0.000 C
ATOM     61  C4  A00 X   4      35.401  83.610  23.9430  0.00  0.00     0.000 C
ATOM     62  C5  A00 X   4      36.108  82.364  24.5320  0.00  0.00     0.000 C
ATOM     63  O5  A00 X   4      35.460  81.166  24.0320  0.00  0.00     0.000 O
BRANCH 59 66
ATOM     64   N  A00 X   4      34.902  82.682  20.4300  0.00  0.00     0.000 N
ATOM     66  HD  A00 X   4      34.442  83.402  20.2900  0.00  0.00     0.000 HD
ATOM     66   O  A00 X   4      33.478  80.775  20.0610  0.00  0.00     0.000 OA
ATOM     67   S  A00 X   4      34.365  81.637  19.3440  0.00  0.00     0.000 S
ATOM     68   O  A00 X   4      33.738  82.530  18.4140  0.00  0.00     0.000 OA
ATOM     69   O  A00 X   4      35.608  81.087  18.8840  0.00  0.00     0.000 OA
ENDBRANCH 59 66
BRANCH 62 70
ATOM     70   C  A00 X   4      36.113  82.311  26.0780  0.00  0.00     0.000 C
ATOM     71   O  A00 X   4      33.331  81.775  28.3320  0.00  0.00     0.000 OA
ATOM     72   O  A00 X   4      35.016  83.420  28.3390  0.00  0.00     0.000 OA
ATOM     73   O  A00 X   4      34.840  81.831  26.5410  0.00  0.00     0.000 O
ATOM     74   O  A00 X   4      33.189  83.576  26.7340  0.00  0.00     0.000 OA
ATOM     75   S  A00 X   4      34.030  82.740  27.5300  0.00  0.00     0.000 S
ENDBRANCH 62 70
ENDBRANCH 57 61
ENDBRANCH 41 57
ENDBRANCH 40 44
ENDBRANCH 20 40
ENDBRANCH 19 23
ENDBRANCH 1 19
TORSDOF 14
ENDMDL
MODEL 90
REMARK VINA RESULT:       0.2     10.610     15.421
ROOT
ATOM      1  C1  A00 X   1      16.650  28.709 107.6110  0.00  0.00     0.000 C
ATOM      2  C2  A00 X   1      15.931  27.647 108.4850  0.00  0.00     0.000 C
ATOM      3  C3  A00 X   1      16.435  27.517 109.9600  0.00  0.00     0.000 C
ATOM      4  C4  A00 X   1      17.803  28.181 110.2610  0.00  0.00     0.000 C
ATOM      5  C5  A00 X   1      18.649  28.358 109.0000  0.00  0.00     0.000 C
ATOM      6  O5  A00 X   1      17.877  29.248 108.1620  0.00  0.00     0.000 O
ATOM      7   O  A00 X   1      16.579  26.134 110.2740  0.00  0.00     0.000 O
ATOM      9  HD  A00 X   1      17.261  26.545 110.6150  0.00  0.00     0.000 HD
ATOM      9   O  A00 X   1      17.640  29.441 110.9120  0.00  0.00     0.000 O
ATOM     11  HD  A00 X   1      18.321  29.853 111.2520  0.00  0.00     0.000 HD
ENDROOT
BRANCH 2 11
ATOM     11   O  A00 X   1      14.526  27.966 108.4960  0.00  0.00     0.000 O
ATOM     12   O  A00 X   1      12.924  26.606 109.6590  0.00  0.00     0.000 OA
ATOM     13   O  A00 X   1      14.147  25.661 107.7800  0.00  0.00     0.000 OA
ATOM     14   O  A00 X   1      12.535  27.375 107.4290  0.00  0.00     0.000 OA
ATOM     15   S  A00 X   1      13.484  26.804 108.3460  0.00  0.00     0.000 S
ENDBRANCH 2 11
BRANCH 5 16
ATOM     16   C  A00 X   1      19.051  27.054 108.3020  0.00  0.00     0.000 C
ATOM     17   O  A00 X   1      19.530  27.115 107.1880  0.00  0.00     0.000 OA
ATOM     18   O  A00 X   1      18.914  25.966 108.8250  0.00  0.00     0.000 OA
ENDBRANCH 5 16
BRANCH 1 19
ATOM     19  O4  A00 X   2      16.831  28.278 106.2400  0.00  0.00     0.000 O
BRANCH 19 23
ATOM     20  C1  A00 X   2      16.184  32.176 104.5830  0.00  0.00     0.000 C
ATOM     21  C2  A00 X   2      14.970  31.219 104.6520  0.00  0.00     0.000 C
ATOM     22  C3  A00 X   2      15.238  30.062 105.6380  0.00  0.00     0.000 C
ATOM     23  C4  A00 X   2      16.554  29.337 105.2790  0.00  0.00     0.000 C
ATOM     24  C5  A00 X   2      17.683  30.402 105.2240  0.00  0.00     0.000 C
ATOM     25  O5  A00 X   2      17.346  31.388 104.2130  0.00  0.00     0.000 O
ATOM     26   O  A00 X   2      14.059  29.242 105.7180  0.00  0.00     0.000 O
ATOM     28  HD  A00 X   2      13.990  29.170 104.8580  0.00  0.00     0.000 HD
BRANCH 21 30
ATOM     28   N  A00 X   2      14.486  31.799 103.3960  0.00  0.00     0.000 N
ATOM     30  HD  A00 X   2      13.821  31.370 103.7460  0.00  0.00     0.000 HD
ATOM     30   O  A00 X   2      12.151  31.742 103.4200  0.00  0.00     0.000 OA
ATOM     31   S  A00 X   2      13.223  31.154 102.6990  0.00  0.00     0.000 S
ATOM     32   O  A00 X   2      13.337  31.573 101.3360  0.00  0.00     0.000 OA
ATOM     33   O  A00 X   2      13.367  29.731 102.7950  0.00  0.00     0.000 OA
ENDBRANCH 21 30
BRANCH 24 34
ATOM     34   C  A00 X   2      19.144  29.906 105.1100  0.00  0.00     0.000 C
ATOM     35   O  A00 X   2      20.373  27.774 102.4270  0.00  0.00     0.000 OA
ATOM     36   O  A00 X   2      19.255  28.816 104.1740  0.00  0.00     0.000 O
ATOM     37   O  A00 X   2      19.298  29.851 102.0770  0.00  0.00     0.000 OA
ATOM     38   S  A00 X   2      20.168  29.095 102.9240  0.00  0.00     0.000 S
ATOM     39   O  A00 X   2      21.343  29.746 103.4190  0.00  0.00     0.000 OA
ENDBRANCH 24 34
BRANCH 20 40
ATOM     40  O4  A00 X   3      16.353  32.685 105.9150  0.00  0.00     0.000 O
BRANCH 40 44
ATOM     41  C1  A00 X   3      18.470  33.645 108.6930  0.00  0.00     0.000 C
ATOM     42  C2  A00 X   3      16.929  33.750 108.6830  0.00  0.00     0.000 C
ATOM     43  C3  A00 X   3      16.432  34.491 107.4150  0.00  0.00     0.000 C
ATOM     44  C4  A00 X   3      17.003  33.960 106.1060  0.00  0.00     0.000 C
ATOM     45  C5  A00 X   3      18.554  33.888 106.1930  0.00  0.00     0.000 C
ATOM     46  O5  A00 X   3      18.978  33.191 107.4090  0.00  0.00     0.000 O
ATOM     47   O  A00 X   3      15.026  34.723 107.3410  0.00  0.00     0.000 O
ATOM     49  HD  A00 X   3      15.153  34.533 106.5050  0.00  0.00     0.000 HD
BRANCH 42 49
ATOM     49   O  A00 X   3      16.413  32.402 108.7440  0.00  0.00     0.000 O
ATOM     50   O  A00 X   3      14.268  31.358 108.5460  0.00  0.00     0.000 OA
ATOM     51   O  A00 X   3      14.446  33.376 109.7650  0.00  0.00     0.000 OA
ATOM     52   O  A00 X   3      15.452  31.430 110.6530  0.00  0.00     0.000 OA
ATOM     53   S  A00 X   3      15.065  32.109 109.4650  0.00  0.00     0.000 S
ENDBRANCH 42 49
BRANCH 45 54
ATOM     54   C  A00 X   3      19.195  35.272 106.0360  0.00  0.00     0.000 C
ATOM     55   O  A00 X   3      20.402  35.402 106.0680  0.00  0.00     0.000 OA
ATOM     56   O  A00 X   3      18.505  36.267 105.8780  0.00  0.00     0.000 OA
ENDBRANCH 45 54
BRANCH 41 57
ATOM     57  O4  A00 X   4      19.084  34.863 109.1710  0.00  0.00     0.000 O
BRANCH 57 61
ATOM     58  C1  A00 X   4      22.633  35.663 111.4970  0.00  0.00     0.000 C
ATOM     59  C2  A00 X   4      22.797  35.081 110.0700  0.00  0.00     0.000 C
ATOM     60  C3  A00 X   4      21.516  35.176 109.2170  0.00  0.00     0.000 C
ATOM     61  C4  A00 X   4      20.275  34.675 109.9870  0.00  0.00     0.000 C
ATOM     62  C5  A00 X   4      20.185  35.535 111.2730  0.00  0.00     0.000 C
ATOM     63  O5  A00 X   4      21.363  35.302 112.0860  0.00  0.00     0.000 O
BRANCH 59 66
ATOM     64   N  A00 X   4      23.144  33.651 109.9960  0.00  0.00     0.000 N
ATOM     66  HD  A00 X   4      22.846  33.134 110.6240  0.00  0.00     0.000 HD
ATOM     66   O  A00 X   4      25.408  34.276 110.5280  0.00  0.00     0.000 OA
ATOM     67   S  A00 X   4      24.686  33.253 109.8390  0.00  0.00     0.000 S
ATOM     68   O  A00 X   4      24.686  31.966 110.4710  0.00  0.00     0.000 OA
ATOM     69   O  A00 X   4      24.791  33.207 108.4090  0.00  0.00     0.000 OA
ENDBRANCH 59 66
BRANCH 62 70
ATOM     70   C  A00 X   4      18.930  35.254 112.1330  0.00  0.00     0.000 C
ATOM     71   O  A00 X   4      18.083  32.265 113.9910  0.00  0.00     0.000 OA
ATOM     72   O  A00 X   4      16.811  33.540 112.4740  0.00  0.00     0.000 OA
ATOM     73   O  A00 X   4      19.128  34.044 112.8820  0.00  0.00     0.000 O
ATOM     74   O  A00 X   4      18.558  32.062 111.6360  0.00  0.00     0.000 OA
ATOM     75   S  A00 X   4      18.083  32.889 112.6980  0.00  0.00     0.000 S
ENDBRANCH 62 70
ENDBRANCH 57 61
ENDBRANCH 41 57
ENDBRANCH 40 44
ENDBRANCH 20 40
ENDBRANCH 19 23
ENDBRANCH 1 19
TORSDOF 14
ENDMDL
MODEL 91
REMARK VINA RESULT:       0.2    130.526    134.977
ROOT
ATOM      1  C1  A00 X   1     113.357  63.342  43.3000  0.00  0.00     0.000 C
ATOM      2  C2  A00 X   1     113.255  62.139  44.2760  0.00  0.00     0.000 C
ATOM      3  C3  A00 X   1     112.015  61.203  44.0860  0.00  0.00     0.000 C
ATOM      4  C4  A00 X   1     110.869  61.780  43.2160  0.00  0.00     0.000 C
ATOM      5  C5  A00 X   1     110.902  63.308  43.1570  0.00  0.00     0.000 C
ATOM      6  O5  A00 X   1     112.164  63.624  42.5270  0.00  0.00     0.000 O
ATOM      7   O  A00 X   1     111.451  60.926  45.3660  0.00  0.00     0.000 O
ATOM      9  HD  A00 X   1     110.792  61.063  44.8210  0.00  0.00     0.000 HD
ATOM      9   O  A00 X   1     110.899  61.246  41.8930  0.00  0.00     0.000 O
ATOM     11  HD  A00 X   1     110.240  61.383  41.3480  0.00  0.00     0.000 HD
ENDROOT
BRANCH 2 11
ATOM     11   O  A00 X   1     114.458  61.358  44.1360  0.00  0.00     0.000 O
ATOM     12   O  A00 X   1     114.726  59.234  45.2240  0.00  0.00     0.000 OA
ATOM     13   O  A00 X   1     114.492  61.242  46.5760  0.00  0.00     0.000 OA
ATOM     14   O  A00 X   1     116.447  60.892  45.2660  0.00  0.00     0.000 OA
ATOM     15   S  A00 X   1     115.039  60.630  45.3970  0.00  0.00     0.000 S
ENDBRANCH 2 11
BRANCH 5 16
ATOM     16   C  A00 X   1     110.694  64.012  44.5020  0.00  0.00     0.000 C
ATOM     17   O  A00 X   1     110.916  65.203  44.5740  0.00  0.00     0.000 OA
ATOM     18   O  A00 X   1     110.310  63.425  45.4930  0.00  0.00     0.000 OA
ENDBRANCH 5 16
BRANCH 1 19
ATOM     19  O4  A00 X   2     113.869  64.538  43.9360  0.00  0.00     0.000 O
BRANCH 19 23
ATOM     20  C1  A00 X   2     116.168  65.747  40.5280  0.00  0.00     0.000 C
ATOM     21  C2  A00 X   2     116.902  64.963  41.6430  0.00  0.00     0.000 C
ATOM     22  C3  A00 X   2     115.894  64.238  42.5590  0.00  0.00     0.000 C
ATOM     23  C4  A00 X   2     114.849  65.233  43.1130  0.00  0.00     0.000 C
ATOM     24  C5  A00 X   2     114.202  65.963  41.9040  0.00  0.00     0.000 C
ATOM     25  O5  A00 X   2     115.241  66.662  41.1700  0.00  0.00     0.000 O
ATOM     26   O  A00 X   2     116.624  63.473  43.5330  0.00  0.00     0.000 O
ATOM     28  HD  A00 X   2     117.124  64.142  43.7590  0.00  0.00     0.000 HD
BRANCH 21 30
ATOM     28   N  A00 X   2     117.733  63.802  41.9760  0.00  0.00     0.000 N
ATOM     30  HD  A00 X   2     118.248  64.373  41.5760  0.00  0.00     0.000 HD
ATOM     30   O  A00 X   2     119.974  64.438  41.7970  0.00  0.00     0.000 OA
ATOM     31   S  A00 X   2     119.062  63.561  41.1540  0.00  0.00     0.000 S
ATOM     32   O  A00 X   2     119.328  62.168  41.3420  0.00  0.00     0.000 OA
ATOM     33   O  A00 X   2     118.763  63.829  39.7780  0.00  0.00     0.000 OA
ENDBRANCH 21 30
BRANCH 24 34
ATOM     34   C  A00 X   2     112.961  66.847  42.1700  0.00  0.00     0.000 C
ATOM     35   O  A00 X   2     112.765  70.389  41.3510  0.00  0.00     0.000 OA
ATOM     36   O  A00 X   2     113.288  68.248  42.0790  0.00  0.00     0.000 O
ATOM     37   O  A00 X   2     113.288  68.698  39.7830  0.00  0.00     0.000 OA
ATOM     38   S  A00 X   2     112.533  69.041  40.9500  0.00  0.00     0.000 S
ATOM     39   O  A00 X   2     111.166  68.619  41.0030  0.00  0.00     0.000 OA
ENDBRANCH 24 34
BRANCH 20 40
ATOM     40  O4  A00 X   3     115.434  64.764  39.7820  0.00  0.00     0.000 O
BRANCH 40 44
ATOM     41  C1  A00 X   3     112.541  63.620  37.9270  0.00  0.00     0.000 C
ATOM     42  C2  A00 X   3     113.827  62.795  38.1490  0.00  0.00     0.000 C
ATOM     43  C3  A00 X   3     115.086  63.614  37.7640  0.00  0.00     0.000 C
ATOM     44  C4  A00 X   3     115.153  65.003  38.3870  0.00  0.00     0.000 C
ATOM     45  C5  A00 X   3     113.828  65.771  38.1170  0.00  0.00     0.000 C
ATOM     46  O5  A00 X   3     112.667  64.957  38.4850  0.00  0.00     0.000 O
ATOM     47   O  A00 X   3     116.330  62.921  37.8460  0.00  0.00     0.000 O
ATOM     49  HD  A00 X   3     116.606  63.683  38.1500  0.00  0.00     0.000 HD
BRANCH 42 49
ATOM     49   O  A00 X   3     113.851  62.414  39.5420  0.00  0.00     0.000 O
ATOM     50   O  A00 X   3     115.319  61.184  40.9780  0.00  0.00     0.000 OA
ATOM     51   O  A00 X   3     114.906  60.368  38.7980  0.00  0.00     0.000 OA
ATOM     52   O  A00 X   3     113.139  60.334  40.3660  0.00  0.00     0.000 OA
ATOM     53   S  A00 X   3     114.331  60.995  39.9620  0.00  0.00     0.000 S
ENDBRANCH 42 49
BRANCH 45 54
ATOM     54   C  A00 X   3     113.762  66.301  36.6790  0.00  0.00     0.000 C
ATOM     55   O  A00 X   3     112.950  67.148  36.3690  0.00  0.00     0.000 OA
ATOM     56   O  A00 X   3     114.524  65.880  35.8220  0.00  0.00     0.000 OA
ENDBRANCH 45 54
BRANCH 41 57
ATOM     57  O4  A00 X   4     112.125  63.598  36.5430  0.00  0.00     0.000 O
BRANCH 57 61
ATOM     58  C1  A00 X   4     108.265  63.844  34.6240  0.00  0.00     0.000 C
ATOM     59  C2  A00 X   4     108.769  65.063  35.4360  0.00  0.00     0.000 C
ATOM     60  C3  A00 X   4     110.275  65.005  35.7630  0.00  0.00     0.000 C
ATOM     61  C4  A00 X   4     110.685  63.629  36.3300  0.00  0.00     0.000 C
ATOM     62  C5  A00 X   4     110.278  62.580  35.2650  0.00  0.00     0.000 C
ATOM     63  O5  A00 X   4     108.837  62.604  35.0990  0.00  0.00     0.000 O
BRANCH 59 66
ATOM     64   N  A00 X   4     108.116  65.190  36.7520  0.00  0.00     0.000 N
ATOM     66  HD  A00 X   4     107.849  64.463  37.1380  0.00  0.00     0.000 HD
ATOM     66   O  A00 X   4     106.242  66.188  35.6140  0.00  0.00     0.000 OA
ATOM     67   S  A00 X   4     106.884  66.201  36.8910  0.00  0.00     0.000 S
ATOM     68   O  A00 X   4     106.154  65.574  37.9540  0.00  0.00     0.000 OA
ATOM     69   O  A00 X   4     107.579  67.395  37.2790  0.00  0.00     0.000 OA
ENDBRANCH 59 66
BRANCH 62 70
ATOM     70   C  A00 X   4     110.710  61.133  35.6060  0.00  0.00     0.000 C
ATOM     71   O  A00 X   4     109.494  58.971  38.2420  0.00  0.00     0.000 OA
ATOM     72   O  A00 X   4     111.691  59.523  37.6020  0.00  0.00     0.000 OA
ATOM     73   O  A00 X   4     109.795  60.578  36.5640  0.00  0.00     0.000 O
ATOM     74   O  A00 X   4     110.355  61.143  38.8380  0.00  0.00     0.000 OA
ATOM     75   S  A00 X   4     110.383  60.051  37.9190  0.00  0.00     0.000 S
ENDBRANCH 62 70
ENDBRANCH 57 61
ENDBRANCH 41 57
ENDBRANCH 40 44
ENDBRANCH 20 40
ENDBRANCH 19 23
ENDBRANCH 1 19
TORSDOF 14
ENDMDL
MODEL 92
REMARK VINA RESULT:       0.2    106.328    111.006
ROOT
ATOM      1  C1  A00 X   1     101.450  31.419  55.8370  0.00  0.00     0.000 C
ATOM      2  C2  A00 X   1     102.747  30.624  56.1450  0.00  0.00     0.000 C
ATOM      3  C3  A00 X   1     102.839  29.191  55.5240  0.00  0.00     0.000 C
ATOM      4  C4  A00 X   1     101.504  28.603  54.9980  0.00  0.00     0.000 C
ATOM      5  C5  A00 X   1     100.287  29.260  55.6510  0.00  0.00     0.000 C
ATOM      6  O5  A00 X   1     100.366  30.649  55.2600  0.00  0.00     0.000 O
ATOM      7   O  A00 X   1     103.313  28.289  56.5220  0.00  0.00     0.000 O
ATOM      9  HD  A00 X   1     102.681  27.883  56.0900  0.00  0.00     0.000 HD
ATOM      9   O  A00 X   1     101.408  28.715  53.5780  0.00  0.00     0.000 O
ATOM     11  HD  A00 X   1     100.777  28.309  53.1460  0.00  0.00     0.000 HD
ENDROOT
BRANCH 2 11
ATOM     11   O  A00 X   1     103.863  31.408  55.6830  0.00  0.00     0.000 O
ATOM     12   O  A00 X   1     106.104  30.546  55.6720  0.00  0.00     0.000 OA
ATOM     13   O  A00 X   1     104.952  30.839  57.7940  0.00  0.00     0.000 OA
ATOM     14   O  A00 X   1     105.604  32.729  56.5050  0.00  0.00     0.000 OA
ATOM     15   S  A00 X   1     105.214  31.345  56.4750  0.00  0.00     0.000 S
ENDBRANCH 2 11
BRANCH 5 16
ATOM     16   C  A00 X   1     100.175  29.054  57.1650  0.00  0.00     0.000 C
ATOM     17   O  A00 X   1      99.366  29.716  57.7820  0.00  0.00     0.000 OA
ATOM     18   O  A00 X   1     100.859  28.251  57.7660  0.00  0.00     0.000 OA
ENDBRANCH 5 16
BRANCH 1 19
ATOM     19  O4  A00 X   2     100.996  32.210  56.9620  0.00  0.00     0.000 O
BRANCH 19 23
ATOM     20  C1  A00 X   2      99.825  35.538  54.5280  0.00  0.00     0.000 C
ATOM     21  C2  A00 X   2     101.191  35.627  55.2510  0.00  0.00     0.000 C
ATOM     22  C3  A00 X   2     101.661  34.231  55.7130  0.00  0.00     0.000 C
ATOM     23  C4  A00 X   2     100.572  33.547  56.5690  0.00  0.00     0.000 C
ATOM     24  C5  A00 X   2      99.255  33.537  55.7450  0.00  0.00     0.000 C
ATOM     25  O5  A00 X   2      98.886  34.907  55.4380  0.00  0.00     0.000 O
ATOM     26   O  A00 X   2     102.960  34.358  56.3150  0.00  0.00     0.000 O
ATOM     28  HD  A00 X   2     102.713  35.007  56.8320  0.00  0.00     0.000 HD
BRANCH 21 30
ATOM     28   N  A00 X   2     100.968  37.071  55.3660  0.00  0.00     0.000 N
ATOM     30  HD  A00 X   2     101.803  36.931  55.5500  0.00  0.00     0.000 HD
ATOM     30   O  A00 X   2     103.050  38.132  55.3550  0.00  0.00     0.000 OA
ATOM     31   S  A00 X   2     101.965  37.925  56.2480  0.00  0.00     0.000 S
ATOM     32   O  A00 X   2     101.214  39.099  56.5680  0.00  0.00     0.000 OA
ATOM     33   O  A00 X   2     102.235  37.169  57.4340  0.00  0.00     0.000 OA
ENDBRANCH 21 30
BRANCH 24 34
ATOM     34   C  A00 X   2      98.068  32.704  56.2820  0.00  0.00     0.000 C
ATOM     35   O  A00 X   2      96.542  33.201  59.5510  0.00  0.00     0.000 OA
ATOM     36   O  A00 X   2      97.912  32.875  57.7050  0.00  0.00     0.000 O
ATOM     37   O  A00 X   2      96.767  34.903  57.9250  0.00  0.00     0.000 OA
ATOM     38   S  A00 X   2      96.546  33.509  58.1580  0.00  0.00     0.000 S
ATOM     39   O  A00 X   2      95.525  32.862  57.3900  0.00  0.00     0.000 OA
ENDBRANCH 24 34
BRANCH 20 40
ATOM     40  O4  A00 X   3     100.042  34.685  53.3950  0.00  0.00     0.000 O
BRANCH 40 44
ATOM     41  C1  A00 X   3      98.801  31.872  51.4780  0.00  0.00     0.000 C
ATOM     42  C2  A00 X   3     100.122  32.618  51.1920  0.00  0.00     0.000 C
ATOM     43  C3  A00 X   3      99.890  34.149  51.1120  0.00  0.00     0.000 C
ATOM     44  C4  A00 X   3      99.116  34.734  52.2870  0.00  0.00     0.000 C
ATOM     45  C5  A00 X   3      97.801  33.936  52.5090  0.00  0.00     0.000 C
ATOM     46  O5  A00 X   3      98.066  32.497  52.5670  0.00  0.00     0.000 O
ATOM     47   O  A00 X   3     101.029  34.934  50.7660  0.00  0.00     0.000 O
ATOM     49  HD  A00 X   3     100.696  35.473  51.3560  0.00  0.00     0.000 HD
BRANCH 42 49
ATOM     49   O  A00 X   3     101.039  32.277  52.2550  0.00  0.00     0.000 O
ATOM     50   O  A00 X   3     103.258  32.906  52.8970  0.00  0.00     0.000 OA
ATOM     51   O  A00 X   3     102.792  32.542  50.6080  0.00  0.00     0.000 OA
ATOM     52   O  A00 X   3     102.758  30.688  52.0730  0.00  0.00     0.000 OA
ATOM     53   S  A00 X   3     102.555  32.091  51.9560  0.00  0.00     0.000 S
ENDBRANCH 42 49
BRANCH 45 54
ATOM     54   C  A00 X   3      96.729  34.311  51.4780  0.00  0.00     0.000 C
ATOM     55   O  A00 X   3      96.906  35.233  50.7090  0.00  0.00     0.000 OA
ATOM     56   O  A00 X   3      95.680  33.689  51.4130  0.00  0.00     0.000 OA
ENDBRANCH 45 54
BRANCH 41 57
ATOM     57  O4  A00 X   4      98.022  31.686  50.2750  0.00  0.00     0.000 O
BRANCH 57 61
ATOM     58  C1  A00 X   4      95.541  28.462  48.8280  0.00  0.00     0.000 C
ATOM     59  C2  A00 X   4      95.014  29.338  49.9920  0.00  0.00     0.000 C
ATOM     60  C3  A00 X   4      95.801  30.651  50.1780  0.00  0.00     0.000 C
ATOM     61  C4  A00 X   4      97.326  30.410  50.1810  0.00  0.00     0.000 C
ATOM     62  C5  A00 X   4      97.660  29.715  48.8380  0.00  0.00     0.000 C
ATOM     63  O5  A00 X   4      96.986  28.432  48.7840  0.00  0.00     0.000 O
BRANCH 59 66
ATOM     64   N  A00 X   4      95.124  28.645  51.2880  0.00  0.00     0.000 N
ATOM     66  HD  A00 X   4      95.759  28.063  51.3780  0.00  0.00     0.000 HD
ATOM     66   O  A00 X   4      93.091  27.483  50.7270  0.00  0.00     0.000 OA
ATOM     67   S  A00 X   4      93.823  27.922  51.8740  0.00  0.00     0.000 S
ATOM     68   O  A00 X   4      94.433  26.882  52.6510  0.00  0.00     0.000 OA
ATOM     69   O  A00 X   4      93.268  28.991  52.6540  0.00  0.00     0.000 OA
ENDBRANCH 59 66
BRANCH 62 70
ATOM     70   C  A00 X   4      99.172  29.487  48.6030  0.00  0.00     0.000 C
ATOM     71   O  A00 X   4     101.187  26.610  49.4780  0.00  0.00     0.000 OA
ATOM     72   O  A00 X   4     101.548  28.906  49.8520  0.00  0.00     0.000 OA
ATOM     73   O  A00 X   4      99.494  28.115  48.8820  0.00  0.00     0.000 O
ATOM     74   O  A00 X   4      99.926  27.705  51.2170  0.00  0.00     0.000 OA
ATOM     75   S  A00 X   4     100.594  27.825  49.9610  0.00  0.00     0.000 S
ENDBRANCH 62 70
ENDBRANCH 57 61
ENDBRANCH 41 57
ENDBRANCH 40 44
ENDBRANCH 20 40
ENDBRANCH 19 23
ENDBRANCH 1 19
TORSDOF 14
ENDMDL
MODEL 93
REMARK VINA RESULT:       0.2     71.515     75.279
ROOT
ATOM      1  C1  A00 X   1      72.955  60.602 111.8840  0.00  0.00     0.000 C
ATOM      2  C2  A00 X   1      71.489  61.100 112.0010  0.00  0.00     0.000 C
ATOM      3  C3  A00 X   1      70.626  61.004 110.7000  0.00  0.00     0.000 C
ATOM      4  C4  A00 X   1      71.418  60.780 109.3860  0.00  0.00     0.000 C
ATOM      5  C5  A00 X   1      72.875  61.227 109.5070  0.00  0.00     0.000 C
ATOM      6  O5  A00 X   1      73.435  60.380 110.5350  0.00  0.00     0.000 O
ATOM      7   O  A00 X   1      69.909  62.226 110.5360  0.00  0.00     0.000 O
ATOM      9  HD  A00 X   1      70.196  61.992 109.7530  0.00  0.00     0.000 HD
ATOM      9   O  A00 X   1      71.366  59.415 108.9720  0.00  0.00     0.000 O
ATOM     11  HD  A00 X   1      71.653  59.181 108.1900  0.00  0.00     0.000 HD
ENDROOT
BRANCH 2 11
ATOM     11   O  A00 X   1      70.850  60.340 113.0450  0.00  0.00     0.000 O
ATOM     12   O  A00 X   1      68.480  60.441 113.4190  0.00  0.00     0.000 OA
ATOM     13   O  A00 X   1      69.823  62.443 113.7450  0.00  0.00     0.000 OA
ATOM     14   O  A00 X   1      70.043  60.591 115.2220  0.00  0.00     0.000 OA
ATOM     15   S  A00 X   1      69.715  61.017 113.8880  0.00  0.00     0.000 S
ENDBRANCH 2 11
BRANCH 5 16
ATOM     16   C  A00 X   1      73.073  62.723 109.7710  0.00  0.00     0.000 C
ATOM     17   O  A00 X   1      74.177  63.116 110.0890  0.00  0.00     0.000 OA
ATOM     18   O  A00 X   1      72.170  63.529 109.6650  0.00  0.00     0.000 OA
ENDBRANCH 5 16
BRANCH 1 19
ATOM     19  O4  A00 X   2      73.884  61.408 112.6490  0.00  0.00     0.000 O
BRANCH 19 23
ATOM     20  C1  A00 X   2      75.884  58.011 114.3300  0.00  0.00     0.000 C
ATOM     21  C2  A00 X   2      74.883  58.770 115.2340  0.00  0.00     0.000 C
ATOM     22  C3  A00 X   2      73.947  59.661 114.3910  0.00  0.00     0.000 C
ATOM     23  C4  A00 X   2      74.768  60.603 113.4810  0.00  0.00     0.000 C
ATOM     24  C5  A00 X   2      75.740  59.727 112.6450  0.00  0.00     0.000 C
ATOM     25  O5  A00 X   2      76.609  58.998 113.5500  0.00  0.00     0.000 O
ATOM     26   O  A00 X   2      72.996  60.290 115.2660  0.00  0.00     0.000 O
ATOM     28  HD  A00 X   2      73.607  60.569 115.8120  0.00  0.00     0.000 HD
BRANCH 21 30
ATOM     28   N  A00 X   2      73.723  58.379 116.0420  0.00  0.00     0.000 N
ATOM     30  HD  A00 X   2      74.425  58.250 116.5320  0.00  0.00     0.000 HD
ATOM     30   O  A00 X   2      74.400  58.251 118.2740  0.00  0.00     0.000 OA
ATOM     31   S  A00 X   2      73.940  57.383 117.2490  0.00  0.00     0.000 S
ATOM     32   O  A00 X   2      72.641  56.826 117.4670  0.00  0.00     0.000 OA
ATOM     33   O  A00 X   2      74.848  56.368 116.8020  0.00  0.00     0.000 OA
ENDBRANCH 21 30
BRANCH 24 34
ATOM     34   C  A00 X   2      76.515  60.403 111.4890  0.00  0.00     0.000 C
ATOM     35   O  A00 X   2      80.085  59.991 110.9090  0.00  0.00     0.000 OA
ATOM     36   O  A00 X   2      77.938  60.351 111.7120  0.00  0.00     0.000 O
ATOM     37   O  A00 X   2      78.553  58.195 111.0470  0.00  0.00     0.000 OA
ATOM     38   S  A00 X   2      78.757  59.550 110.6350  0.00  0.00     0.000 S
ATOM     39   O  A00 X   2      78.239  59.941 109.3590  0.00  0.00     0.000 OA
ENDBRANCH 24 34
BRANCH 20 40
ATOM     40  O4  A00 X   3      75.082  57.204 113.4560  0.00  0.00     0.000 O
BRANCH 40 44
ATOM     41  C1  A00 X   3      73.728  55.150 110.7960  0.00  0.00     0.000 C
ATOM     42  C2  A00 X   3      73.255  55.111 112.2660  0.00  0.00     0.000 C
ATOM     43  C3  A00 X   3      74.457  54.950 113.2320  0.00  0.00     0.000 C
ATOM     44  C4  A00 X   3      75.595  55.935 112.9960  0.00  0.00     0.000 C
ATOM     45  C5  A00 X   3      76.018  55.913 111.5000  0.00  0.00     0.000 C
ATOM     46  O5  A00 X   3      74.852  56.057 110.6260  0.00  0.00     0.000 O
ATOM     47   O  A00 X   3      74.132  54.815 114.6140  0.00  0.00     0.000 O
ATOM     49  HD  A00 X   3      74.832  55.315 114.7120  0.00  0.00     0.000 HD
BRANCH 42 49
ATOM     49   O  A00 X   3      72.541  56.342 112.5130  0.00  0.00     0.000 O
ATOM     50   O  A00 X   3      71.405  57.343 114.3670  0.00  0.00     0.000 OA
ATOM     51   O  A00 X   3      71.116  55.032 113.9660  0.00  0.00     0.000 OA
ATOM     52   O  A00 X   3      70.205  56.567 112.4170  0.00  0.00     0.000 OA
ATOM     53   S  A00 X   3      71.239  56.337 113.3660  0.00  0.00     0.000 S
ENDBRANCH 42 49
BRANCH 45 54
ATOM     54   C  A00 X   3      76.871  54.683 111.1690  0.00  0.00     0.000 C
ATOM     55   O  A00 X   3      77.544  54.650 110.1600  0.00  0.00     0.000 OA
ATOM     56   O  A00 X   3      76.888  53.715 111.9140  0.00  0.00     0.000 OA
ENDBRANCH 45 54
BRANCH 41 57
ATOM     57  O4  A00 X   4      73.961  53.822 110.2750  0.00  0.00     0.000 O
BRANCH 57 61
ATOM     58  C1  A00 X   4      74.000  52.284 106.2420  0.00  0.00     0.000 C
ATOM     59  C2  A00 X   4      75.354  52.579 106.9350  0.00  0.00     0.000 C
ATOM     60  C3  A00 X   4      75.233  52.773 108.4610  0.00  0.00     0.000 C
ATOM     61  C4  A00 X   4      74.086  53.739 108.8270  0.00  0.00     0.000 C
ATOM     62  C5  A00 X   4      72.798  53.140 108.2110  0.00  0.00     0.000 C
ATOM     63  O5  A00 X   4      72.931  53.104 106.7670  0.00  0.00     0.000 O
BRANCH 59 66
ATOM     64   N  A00 X   4      75.970  53.827 106.4510  0.00  0.00     0.000 N
ATOM     66  HD  A00 X   4      75.440  54.453 106.1720  0.00  0.00     0.000 HD
ATOM     66   O  A00 X   4      76.758  52.581 104.5470  0.00  0.00     0.000 OA
ATOM     67   S  A00 X   4      77.107  53.725 105.3300  0.00  0.00     0.000 S
ATOM     68   O  A00 X   4      76.942  54.992 104.6790  0.00  0.00     0.000 OA
ATOM     69   O  A00 X   4      78.274  53.638 106.1610  0.00  0.00     0.000 OA
ENDBRANCH 59 66
BRANCH 62 70
ATOM     70   C  A00 X   4      71.507  53.917 108.5660  0.00  0.00     0.000 C
ATOM     71   O  A00 X   4      69.990  56.700 106.8150  0.00  0.00     0.000 OA
ATOM     72   O  A00 X   4      70.497  56.416 109.0970  0.00  0.00     0.000 OA
ATOM     73   O  A00 X   4      71.151  54.772 107.4670  0.00  0.00     0.000 O
ATOM     74   O  A00 X   4      72.289  56.895 107.5160  0.00  0.00     0.000 OA
ATOM     75   S  A00 X   4      71.009  56.308 107.7480  0.00  0.00     0.000 S
ENDBRANCH 62 70
ENDBRANCH 57 61
ENDBRANCH 41 57
ENDBRANCH 40 44
ENDBRANCH 20 40
ENDBRANCH 19 23
ENDBRANCH 1 19
TORSDOF 14
ENDMDL
MODEL 94
REMARK VINA RESULT:       0.3     71.719     75.959
ROOT
ATOM      1  C1  A00 X   1      72.955  60.602 111.8840  0.00  0.00     0.000 C
ATOM      2  C2  A00 X   1      71.520  61.056 112.2650  0.00  0.00     0.000 C
ATOM      3  C3  A00 X   1      70.457  61.006 111.1190  0.00  0.00     0.000 C
ATOM      4  C4  A00 X   1      71.026  60.869 109.6840  0.00  0.00     0.000 C
ATOM      5  C5  A00 X   1      72.476  61.346 109.5900  0.00  0.00     0.000 C
ATOM      6  O5  A00 X   1      73.211  60.461 110.4650  0.00  0.00     0.000 O
ATOM      7   O  A00 X   1      69.703  62.216 111.1420  0.00  0.00     0.000 O
ATOM      9  HD  A00 X   1      69.862  62.030 110.3110  0.00  0.00     0.000 HD
ATOM      9   O  A00 X   1      70.929  59.527 109.2090  0.00  0.00     0.000 O
ATOM     11  HD  A00 X   1      71.088  59.340 108.3790  0.00  0.00     0.000 HD
ENDROOT
BRANCH 2 11
ATOM     11   O  A00 X   1      71.073  60.228 113.3560  0.00  0.00     0.000 O
ATOM     12   O  A00 X   1      68.822  60.327 114.1860  0.00  0.00     0.000 OA
ATOM     13   O  A00 X   1      70.252  62.284 114.3890  0.00  0.00     0.000 OA
ATOM     14   O  A00 X   1      70.704  60.325 115.6600  0.00  0.00     0.000 OA
ATOM     15   S  A00 X   1      70.138  60.853 114.4480  0.00  0.00     0.000 S
ENDBRANCH 2 11
BRANCH 5 16
ATOM     16   C  A00 X   1      72.690  62.832 109.8990  0.00  0.00     0.000 C
ATOM     17   O  A00 X   1      73.825  63.236 110.0490  0.00  0.00     0.000 OA
ATOM     18   O  A00 X   1      71.768  63.617 109.9930  0.00  0.00     0.000 OA
ENDBRANCH 5 16
BRANCH 1 19
ATOM     19  O4  A00 X   2      73.983  61.390 112.5310  0.00  0.00     0.000 O
BRANCH 19 23
ATOM     20  C1  A00 X   2      76.594  58.050 113.1580  0.00  0.00     0.000 C
ATOM     21  C2  A00 X   2      75.677  58.471 114.3320  0.00  0.00     0.000 C
ATOM     22  C3  A00 X   2      74.524  59.367 113.8350  0.00  0.00     0.000 C
ATOM     23  C4  A00 X   2      75.075  60.573 113.0420  0.00  0.00     0.000 C
ATOM     24  C5  A00 X   2      75.987  60.022 111.9120  0.00  0.00     0.000 C
ATOM     25  O5  A00 X   2      77.068  59.262 112.5130  0.00  0.00     0.000 O
ATOM     26   O  A00 X   2      73.665  59.673 114.9470  0.00  0.00     0.000 O
ATOM     28  HD  A00 X   2      74.324  59.926 115.4500  0.00  0.00     0.000 HD
BRANCH 21 30
ATOM     28   N  A00 X   2      74.687  58.289 115.3980  0.00  0.00     0.000 N
ATOM     30  HD  A00 X   2      75.368  57.794 115.6010  0.00  0.00     0.000 HD
ATOM     30   O  A00 X   2      75.760  57.311 117.2280  0.00  0.00     0.000 OA
ATOM     31   S  A00 X   2      74.755  56.980 116.2820  0.00  0.00     0.000 S
ATOM     32   O  A00 X   2      73.435  56.865 116.8180  0.00  0.00     0.000 OA
ATOM     33   O  A00 X   2      75.031  55.887 115.3980  0.00  0.00     0.000 OA
ENDBRANCH 21 30
BRANCH 24 34
ATOM     34   C  A00 X   2      76.482  61.011 110.8310  0.00  0.00     0.000 C
ATOM     35   O  A00 X   2      79.992  61.634 110.0890  0.00  0.00     0.000 OA
ATOM     36   O  A00 X   2      77.882  61.313 111.0000  0.00  0.00     0.000 O
ATOM     37   O  A00 X   2      78.991  59.492 110.0380  0.00  0.00     0.000 OA
ATOM     38   S  A00 X   2      78.809  60.892 109.8020  0.00  0.00     0.000 S
ATOM     39   O  A00 X   2      78.124  61.279 108.6050  0.00  0.00     0.000 OA
ENDBRANCH 24 34
BRANCH 20 40
ATOM     40  O4  A00 X   3      75.752  57.322 112.2510  0.00  0.00     0.000 O
BRANCH 40 44
ATOM     41  C1  A00 X   3      74.670  56.368 108.9280  0.00  0.00     0.000 C
ATOM     42  C2  A00 X   3      74.083  55.805 110.2400  0.00  0.00     0.000 C
ATOM     43  C3  A00 X   3      75.209  55.303 111.1810  0.00  0.00     0.000 C
ATOM     44  C4  A00 X   3      76.335  56.303 111.4110  0.00  0.00     0.000 C
ATOM     45  C5  A00 X   3      76.875  56.819 110.0480  0.00  0.00     0.000 C
ATOM     46  O5  A00 X   3      75.779  57.273 109.1890  0.00  0.00     0.000 O
ATOM     47   O  A00 X   3      74.779  54.680 112.3900  0.00  0.00     0.000 O
ATOM     49  HD  A00 X   3      75.455  55.109 112.7190  0.00  0.00     0.000 HD
BRANCH 42 49
ATOM     49   O  A00 X   3      73.318  56.866 110.8520  0.00  0.00     0.000 O
ATOM     50   O  A00 X   3      72.048  57.150 112.8610  0.00  0.00     0.000 OA
ATOM     51   O  A00 X   3      71.852  55.120 111.6650  0.00  0.00     0.000 OA
ATOM     52   O  A00 X   3      70.987  57.091 110.6890  0.00  0.00     0.000 OA
ATOM     53   S  A00 X   3      71.970  56.553 111.5650  0.00  0.00     0.000 S
ENDBRANCH 42 49
BRANCH 45 54
ATOM     54   C  A00 X   3      77.785  55.788 109.3700  0.00  0.00     0.000 C
ATOM     55   O  A00 X   3      78.422  56.081 108.3790  0.00  0.00     0.000 OA
ATOM     56   O  A00 X   3      77.884  54.654 109.8130  0.00  0.00     0.000 OA
ENDBRANCH 45 54
BRANCH 41 57
ATOM     57  O4  A00 X   4      74.979  55.317 107.9860  0.00  0.00     0.000 O
BRANCH 57 61
ATOM     58  C1  A00 X   4      74.917  55.111 103.6740  0.00  0.00     0.000 C
ATOM     59  C2  A00 X   4      75.912  56.083 104.3560  0.00  0.00     0.000 C
ATOM     60  C3  A00 X   4      76.099  55.814 105.8630  0.00  0.00     0.000 C
ATOM     61  C4  A00 X   4      74.747  55.651 106.5880  0.00  0.00     0.000 C
ATOM     62  C5  A00 X   4      74.008  54.490 105.8760  0.00  0.00     0.000 C
ATOM     63  O5  A00 X   4      73.754  54.862 104.4970  0.00  0.00     0.000 O
BRANCH 59 66
ATOM     64   N  A00 X   4      75.421  57.470 104.2640  0.00  0.00     0.000 N
ATOM     66  HD  A00 X   4      74.564  57.588 104.2180  0.00  0.00     0.000 HD
ATOM     66   O  A00 X   4      76.327  57.537 102.0340  0.00  0.00     0.000 OA
ATOM     67   S  A00 X   4      76.025  58.413 103.1230  0.00  0.00     0.000 S
ATOM     68   O  A00 X   4      74.920  59.303 102.9110  0.00  0.00     0.000 OA
ATOM     69   O  A00 X   4      77.125  59.000 103.8350  0.00  0.00     0.000 OA
ENDBRANCH 59 66
BRANCH 62 70
ATOM     70   C  A00 X   4      72.664  54.098 106.5350  0.00  0.00     0.000 C
ATOM     71   O  A00 X   4      69.571  55.977 106.6560  0.00  0.00     0.000 OA
ATOM     72   O  A00 X   4      70.775  54.891 108.3640  0.00  0.00     0.000 OA
ATOM     73   O  A00 X   4      71.646  55.026 106.1260  0.00  0.00     0.000 O
ATOM     74   O  A00 X   4      71.584  57.015 107.4850  0.00  0.00     0.000 OA
ATOM     75   S  A00 X   4      70.869  55.803 107.2460  0.00  0.00     0.000 S
ENDBRANCH 62 70
ENDBRANCH 57 61
ENDBRANCH 41 57
ENDBRANCH 40 44
ENDBRANCH 20 40
ENDBRANCH 19 23
ENDBRANCH 1 19
TORSDOF 14
ENDMDL
MODEL 95
REMARK VINA RESULT:       0.3    139.619    145.005
ROOT
ATOM      1  C1  A00 X   1      95.654 113.910  38.2470  0.00  0.00     0.000 C
ATOM      2  C2  A00 X   1      95.860 114.578  36.8620  0.00  0.00     0.000 C
ATOM      3  C3  A00 X   1      94.695 114.403  35.8330  0.00  0.00     0.000 C
ATOM      4  C4  A00 X   1      93.661 113.300  36.1760  0.00  0.00     0.000 C
ATOM      5  C5  A00 X   1      94.235 112.246  37.1230  0.00  0.00     0.000 C
ATOM      6  O5  A00 X   1      94.553 112.972  38.3310  0.00  0.00     0.000 O
ATOM      7   O  A00 X   1      95.250 114.059  34.5660  0.00  0.00     0.000 O
ATOM      9  HD  A00 X   1      94.545 113.568  34.6780  0.00  0.00     0.000 HD
ATOM      9   O  A00 X   1      92.471 113.855  36.7360  0.00  0.00     0.000 O
ATOM     11  HD  A00 X   1      91.767 113.364  36.8490  0.00  0.00     0.000 HD
ENDROOT
BRANCH 2 11
ATOM     11   O  A00 X   1      96.085 115.984  37.0820  0.00  0.00     0.000 O
ATOM     12   O  A00 X   1      96.071 117.571  35.2800  0.00  0.00     0.000 OA
ATOM     13   O  A00 X   1      97.781 115.841  35.3300  0.00  0.00     0.000 OA
ATOM     14   O  A00 X   1      97.781 117.583  36.9500  0.00  0.00     0.000 OA
ATOM     15   S  A00 X   1      96.979 116.778  36.0690  0.00  0.00     0.000 S
ENDBRANCH 2 11
BRANCH 5 16
ATOM     16   C  A00 X   1      95.413 111.444  36.5610  0.00  0.00     0.000 C
ATOM     17   O  A00 X   1      96.055 110.746  37.3200  0.00  0.00     0.000 OA
ATOM     18   O  A00 X   1      95.722 111.475  35.3870  0.00  0.00     0.000 OA
ENDBRANCH 5 16
BRANCH 1 19
ATOM     19  O4  A00 X   2      96.874 113.342  38.7830  0.00  0.00     0.000 O
BRANCH 19 23
ATOM     20  C1  A00 X   2      96.364 115.179  42.6210  0.00  0.00     0.000 C
ATOM     21  C2  A00 X   2      97.437 115.777  41.6800  0.00  0.00     0.000 C
ATOM     22  C3  A00 X   2      97.211 115.315  40.2250  0.00  0.00     0.000 C
ATOM     23  C4  A00 X   2      97.138 113.773  40.1490  0.00  0.00     0.000 C
ATOM     24  C5  A00 X   2      96.044 113.300  41.1460  0.00  0.00     0.000 C
ATOM     25  O5  A00 X   2      96.411 113.734  42.4820  0.00  0.00     0.000 O
ATOM     26   O  A00 X   2      98.188 115.950  39.3830  0.00  0.00     0.000 O
ATOM     28  HD  A00 X   2      98.850 115.719  39.8920  0.00  0.00     0.000 HD
BRANCH 21 30
ATOM     28   N  A00 X   2      97.697 117.138  41.2010  0.00  0.00     0.000 N
ATOM     30  HD  A00 X   2      98.103 117.058  41.9620  0.00  0.00     0.000 HD
ATOM     30   O  A00 X   2      99.487 118.009  42.4230  0.00  0.00     0.000 OA
ATOM     31   S  A00 X   2      98.098 118.248  42.2520  0.00  0.00     0.000 S
ATOM     32   O  A00 X   2      97.773 119.474  41.5910  0.00  0.00     0.000 OA
ATOM     33   O  A00 X   2      97.262 118.066  43.4010  0.00  0.00     0.000 OA
ENDBRANCH 21 30
BRANCH 24 34
ATOM     34   C  A00 X   2      95.612 111.816  41.0980  0.00  0.00     0.000 C
ATOM     35   O  A00 X   2      95.252 109.698  44.0380  0.00  0.00     0.000 OA
ATOM     36   O  A00 X   2      95.896 111.148  42.3430  0.00  0.00     0.000 O
ATOM     37   O  A00 X   2      94.130 111.760  43.7490  0.00  0.00     0.000 OA
ATOM     38   S  A00 X   2      94.640 110.588  43.1060  0.00  0.00     0.000 S
ATOM     39   O  A00 X   2      93.814 109.959  42.1200  0.00  0.00     0.000 OA
ENDBRANCH 24 34
BRANCH 20 40
ATOM     40  O4  A00 X   3      95.105 115.667  42.1340  0.00  0.00     0.000 O
BRANCH 40 44
ATOM     41  C1  A00 X   3      91.638 116.327  41.3160  0.00  0.00     0.000 C
ATOM     42  C2  A00 X   3      92.741 117.404  41.4120  0.00  0.00     0.000 C
ATOM     43  C3  A00 X   3      93.518 117.286  42.7480  0.00  0.00     0.000 C
ATOM     44  C4  A00 X   3      94.023 115.884  43.0650  0.00  0.00     0.000 C
ATOM     45  C5  A00 X   3      92.859 114.860  42.9530  0.00  0.00     0.000 C
ATOM     46  O5  A00 X   3      92.147 115.015  41.6820  0.00  0.00     0.000 O
ATOM     47   O  A00 X   3      94.506 118.287  42.9850  0.00  0.00     0.000 O
ATOM     49  HD  A00 X   3      94.946 117.615  43.3100  0.00  0.00     0.000 HD
BRANCH 42 49
ATOM     49   O  A00 X   3      93.613 117.219  40.2760  0.00  0.00     0.000 O
ATOM     50   O  A00 X   3      95.594 118.259  39.4250  0.00  0.00     0.000 OA
ATOM     51   O  A00 X   3      93.867 119.626  40.2850  0.00  0.00     0.000 OA
ATOM     52   O  A00 X   3      93.474 118.443  38.2770  0.00  0.00     0.000 OA
ATOM     53   S  A00 X   3      94.180 118.450  39.5110  0.00  0.00     0.000 S
ENDBRANCH 42 49
BRANCH 45 54
ATOM     54   C  A00 X   3      91.932 114.918  44.1730  0.00  0.00     0.000 C
ATOM     55   O  A00 X   3      91.210 113.982  44.4470  0.00  0.00     0.000 OA
ATOM     56   O  A00 X   3      91.904 115.907  44.8900  0.00  0.00     0.000 OA
ENDBRANCH 45 54
BRANCH 41 57
ATOM     57  O4  A00 X   4      90.447 116.717  42.0360  0.00  0.00     0.000 O
BRANCH 57 61
ATOM     58  C1  A00 X   4      86.333 115.440  41.7510  0.00  0.00     0.000 C
ATOM     59  C2  A00 X   4      87.245 114.773  42.8110  0.00  0.00     0.000 C
ATOM     60  C3  A00 X   4      88.557 115.541  43.0640  0.00  0.00     0.000 C
ATOM     61  C4  A00 X   4      89.262 115.924  41.7450  0.00  0.00     0.000 C
ATOM     62  C5  A00 X   4      88.242 116.761  40.9330  0.00  0.00     0.000 C
ATOM     63  O5  A00 X   4      87.088 115.939  40.6230  0.00  0.00     0.000 O
BRANCH 59 66
ATOM     64   N  A00 X   4      87.755 113.400  42.6480  0.00  0.00     0.000 N
ATOM     66  HD  A00 X   4      87.962 113.142  41.8470  0.00  0.00     0.000 HD
ATOM     66   O  A00 X   4      85.534 112.620  43.1560  0.00  0.00     0.000 OA
ATOM     67   S  A00 X   4      86.895 112.195  43.2540  0.00  0.00     0.000 S
ATOM     68   O  A00 X   4      87.275 111.134  42.3670  0.00  0.00     0.000 OA
ATOM     69   O  A00 X   4      87.476 112.103  44.5640  0.00  0.00     0.000 OA
ENDBRANCH 59 66
BRANCH 62 70
ATOM     70   C  A00 X   4      88.806 117.336  39.6120  0.00  0.00     0.000 C
ATOM     71   O  A00 X   4      89.120 115.711  36.3920  0.00  0.00     0.000 OA
ATOM     72   O  A00 X   4      90.684 116.946  37.6460  0.00  0.00     0.000 OA
ATOM     73   O  A00 X   4      88.510 116.431  38.5360  0.00  0.00     0.000 O
ATOM     74   O  A00 X   4      90.136 114.667  38.3130  0.00  0.00     0.000 OA
ATOM     75   S  A00 X   4      89.709 115.879  37.6900  0.00  0.00     0.000 S
ENDBRANCH 62 70
ENDBRANCH 57 61
ENDBRANCH 41 57
ENDBRANCH 40 44
ENDBRANCH 20 40
ENDBRANCH 19 23
ENDBRANCH 1 19
TORSDOF 14
ENDMDL
MODEL 96
REMARK VINA RESULT:       0.3    138.531    143.916
ROOT
ATOM      1  C1  A00 X   1      96.118 112.172  38.4760  0.00  0.00     0.000 C
ATOM      2  C2  A00 X   1      96.037 112.908  37.1120  0.00  0.00     0.000 C
ATOM      3  C3  A00 X   1      94.724 112.689  36.2900  0.00  0.00     0.000 C
ATOM      4  C4  A00 X   1      93.840 111.500  36.7470  0.00  0.00     0.000 C
ATOM      5  C5  A00 X   1      94.637 110.454  37.5270  0.00  0.00     0.000 C
ATOM      6  O5  A00 X   1      95.112 111.154  38.6990  0.00  0.00     0.000 O
ATOM      7   O  A00 X   1      95.072 112.435  34.9310  0.00  0.00     0.000 O
ATOM      9  HD  A00 X   1      94.431 111.890  35.1360  0.00  0.00     0.000 HD
ATOM      9   O  A00 X   1      92.732 111.944  37.5300  0.00  0.00     0.000 O
ATOM     11  HD  A00 X   1      92.091 111.399  37.7350  0.00  0.00     0.000 HD
ENDROOT
BRANCH 2 11
ATOM     11   O  A00 X   1      96.204 114.317  37.3620  0.00  0.00     0.000 O
ATOM     12   O  A00 X   1      95.774 115.967  35.6720  0.00  0.00     0.000 OA
ATOM     13   O  A00 X   1      97.575 114.366  35.3420  0.00  0.00     0.000 OA
ATOM     14   O  A00 X   1      97.743 116.039  37.0240  0.00  0.00     0.000 OA
ATOM     15   S  A00 X   1      96.855 115.212  36.2530  0.00  0.00     0.000 S
ENDBRANCH 2 11
BRANCH 5 16
ATOM     16   C  A00 X   1      95.750 109.763  36.7330  0.00  0.00     0.000 C
ATOM     17   O  A00 X   1      96.558 109.085  37.3340  0.00  0.00     0.000 OA
ATOM     18   O  A00 X   1      95.848 109.863  35.5260  0.00  0.00     0.000 OA
ENDBRANCH 5 16
BRANCH 1 19
ATOM     19  O4  A00 X   2      97.447 111.675  38.7670  0.00  0.00     0.000 O
BRANCH 19 23
ATOM     20  C1  A00 X   2      97.493 113.318  42.7240  0.00  0.00     0.000 C
ATOM     21  C2  A00 X   2      98.345 114.029  41.6460  0.00  0.00     0.000 C
ATOM     22  C3  A00 X   2      97.900 113.609  40.2290  0.00  0.00     0.000 C
ATOM     23  C4  A00 X   2      97.915 112.071  40.0880  0.00  0.00     0.000 C
ATOM     24  C5  A00 X   2      97.045 111.481  41.2310  0.00  0.00     0.000 C
ATOM     25  O5  A00 X   2      97.609 111.887  42.5050  0.00  0.00     0.000 O
ATOM     26   O  A00 X   2      98.673 114.346  39.2660  0.00  0.00     0.000 O
ATOM     28  HD  A00 X   2      99.427 114.144  39.6420  0.00  0.00     0.000 HD
BRANCH 21 30
ATOM     28   N  A00 X   2      98.428 115.423  41.2000  0.00  0.00     0.000 N
ATOM     30  HD  A00 X   2      98.965 115.344  41.8750  0.00  0.00     0.000 HD
ATOM     30   O  A00 X   2     100.343 116.375  42.1410  0.00  0.00     0.000 OA
ATOM     31   S  A00 X   2      98.933 116.518  42.2220  0.00  0.00     0.000 S
ATOM     32   O  A00 X   2      98.418 117.742  41.6900  0.00  0.00     0.000 OA
ATOM     33   O  A00 X   2      98.323 116.230  43.4860  0.00  0.00     0.000 OA
ENDBRANCH 21 30
BRANCH 24 34
ATOM     34   C  A00 X   2      96.708 109.972  41.1820  0.00  0.00     0.000 C
ATOM     35   O  A00 X   2      97.003 107.721  44.0280  0.00  0.00     0.000 OA
ATOM     36   O  A00 X   2      97.247 109.278  42.3250  0.00  0.00     0.000 O
ATOM     37   O  A00 X   2      95.716 109.705  44.0400  0.00  0.00     0.000 OA
ATOM     38   S  A00 X   2      96.182 108.599  43.2610  0.00  0.00     0.000 S
ATOM     39   O  A00 X   2      95.240 107.951  42.3990  0.00  0.00     0.000 OA
ENDBRANCH 24 34
BRANCH 20 40
ATOM     40  O4  A00 X   3      96.140 113.732  42.4840  0.00  0.00     0.000 O
BRANCH 40 44
ATOM     41  C1  A00 X   3      92.548 114.170  42.3040  0.00  0.00     0.000 C
ATOM     42  C2  A00 X   3      93.578 115.319  42.2660  0.00  0.00     0.000 C
ATOM     43  C3  A00 X   3      94.581 115.206  43.4420  0.00  0.00     0.000 C
ATOM     44  C4  A00 X   3      95.224 113.833  43.5960  0.00  0.00     0.000 C
ATOM     45  C5  A00 X   3      94.127 112.733  43.6320  0.00  0.00     0.000 C
ATOM     46  O5  A00 X   3      93.197 112.884  42.5100  0.00  0.00     0.000 O
ATOM     47   O  A00 X   3      95.528 116.266  43.5570  0.00  0.00     0.000 O
ATOM     49  HD  A00 X   3      96.061 115.616  43.7680  0.00  0.00     0.000 HD
BRANCH 42 49
ATOM     49   O  A00 X   3      94.250 115.243  40.9890  0.00  0.00     0.000 O
ATOM     50   O  A00 X   3      95.981 116.457  39.8670  0.00  0.00     0.000 OA
ATOM     51   O  A00 X   3      94.344 117.659  41.0780  0.00  0.00     0.000 OA
ATOM     52   O  A00 X   3      93.686 116.531  39.1080  0.00  0.00     0.000 OA
ATOM     53   S  A00 X   3      94.594 116.541  40.2030  0.00  0.00     0.000 S
ENDBRANCH 42 49
BRANCH 45 54
ATOM     54   C  A00 X   3      93.425 112.675  44.9940  0.00  0.00     0.000 C
ATOM     55   O  A00 X   3      93.461 113.625  45.7490  0.00  0.00     0.000 OA
ATOM     56   O  A00 X   3      92.818 111.674  45.3430  0.00  0.00     0.000 OA
ENDBRANCH 45 54
BRANCH 41 57
ATOM     57  O4  A00 X   4      91.477 114.443  43.2360  0.00  0.00     0.000 O
BRANCH 57 61
ATOM     58  C1  A00 X   4      87.468 112.882  43.5920  0.00  0.00     0.000 C
ATOM     59  C2  A00 X   4      88.591 112.242  44.4450  0.00  0.00     0.000 C
ATOM     60  C3  A00 X   4      89.875 113.094  44.5100  0.00  0.00     0.000 C
ATOM     61  C4  A00 X   4      90.313 113.577  43.1110  0.00  0.00     0.000 C
ATOM     62  C5  A00 X   4      89.116 114.370  42.5290  0.00  0.00     0.000 C
ATOM     63  O5  A00 X   4      87.982 113.478  42.3790  0.00  0.00     0.000 O
BRANCH 59 66
ATOM     64   N  A00 X   4      89.154 110.917  44.1300  0.00  0.00     0.000 N
ATOM     66  HD  A00 X   4      89.236 110.706  43.2940  0.00  0.00     0.000 HD
ATOM     66   O  A00 X   4      87.110 109.959  44.9680  0.00  0.00     0.000 OA
ATOM     67   S  A00 X   4      88.492 109.631  44.8120  0.00  0.00     0.000 S
ATOM     68   O  A00 X   4      88.782 108.635  43.8210  0.00  0.00     0.000 OA
ATOM     69   O  A00 X   4      89.295 109.532  45.9980  0.00  0.00     0.000 OA
ENDBRANCH 59 66
BRANCH 62 70
ATOM     70   C  A00 X   4      89.403 115.035  41.1610  0.00  0.00     0.000 C
ATOM     71   O  A00 X   4      89.258 113.563  37.8570  0.00  0.00     0.000 OA
ATOM     72   O  A00 X   4      90.933 114.859  38.8870  0.00  0.00     0.000 OA
ATOM     73   O  A00 X   4      88.984 114.153  40.1070  0.00  0.00     0.000 O
ATOM     74   O  A00 X   4      90.658 112.522  39.5210  0.00  0.00     0.000 OA
ATOM     75   S  A00 X   4      90.052 113.723  39.0420  0.00  0.00     0.000 S
ENDBRANCH 62 70
ENDBRANCH 57 61
ENDBRANCH 41 57
ENDBRANCH 40 44
ENDBRANCH 20 40
ENDBRANCH 19 23
ENDBRANCH 1 19
TORSDOF 14
ENDMDL
MODEL 97
REMARK VINA RESULT:       0.3     86.870     92.227
ROOT
ATOM      1  C1  A00 X   1      35.925  47.469  30.9950  0.00  0.00     0.000 C
ATOM      2  C2  A00 X   1      37.392  47.133  31.3720  0.00  0.00     0.000 C
ATOM      3  C3  A00 X   1      38.048  45.947  30.5910  0.00  0.00     0.000 C
ATOM      4  C4  A00 X   1      37.065  45.030  29.8180  0.00  0.00     0.000 C
ATOM      5  C5  A00 X   1      35.645  45.105  30.3790  0.00  0.00     0.000 C
ATOM      6  O5  A00 X   1      35.245  46.480  30.1830  0.00  0.00     0.000 O
ATOM      7   O  A00 X   1      38.736  45.112  31.5200  0.00  0.00     0.000 O
ATOM      9  HD  A00 X   1      38.332  44.591  30.9580  0.00  0.00     0.000 HD
ATOM      9   O  A00 X   1      37.051  45.339  28.4240  0.00  0.00     0.000 O
ATOM     11  HD  A00 X   1      36.647  44.818  27.8630  0.00  0.00     0.000 HD
ENDROOT
BRANCH 2 11
ATOM     11   O  A00 X   1      38.181  48.322  31.1690  0.00  0.00     0.000 O
ATOM     12   O  A00 X   1      40.519  48.402  31.7080  0.00  0.00     0.000 OA
ATOM     13   O  A00 X   1      38.898  48.067  33.4900  0.00  0.00     0.000 OA
ATOM     14   O  A00 X   1      39.022  50.151  32.3500  0.00  0.00     0.000 OA
ATOM     15   S  A00 X   1      39.229  48.731  32.2600  0.00  0.00     0.000 S
ENDBRANCH 2 11
BRANCH 5 16
ATOM     16   C  A00 X   1      35.493  44.622  31.8250  0.00  0.00     0.000 C
ATOM     17   O  A00 X   1      34.449  44.840  32.4030  0.00  0.00     0.000 OA
ATOM     18   O  A00 X   1      36.375  44.024  32.4080  0.00  0.00     0.000 OA
ENDBRANCH 5 16
BRANCH 1 19
ATOM     19  O4  A00 X   2      35.125  47.853  32.1400  0.00  0.00     0.000 O
BRANCH 19 23
ATOM     20  C1  A00 X   2      32.931  50.838  29.9850  0.00  0.00     0.000 C
ATOM     21  C2  A00 X   2      34.114  51.314  30.8630  0.00  0.00     0.000 C
ATOM     22  C3  A00 X   2      35.048  50.138  31.2120  0.00  0.00     0.000 C
ATOM     23  C4  A00 X   2      34.250  48.982  31.8570  0.00  0.00     0.000 C
ATOM     24  C5  A00 X   2      33.090  48.611  30.8930  0.00  0.00     0.000 C
ATOM     25  O5  A00 X   2      32.247  49.778  30.7050  0.00  0.00     0.000 O
ATOM     26   O  A00 X   2      36.162  50.642  31.9680  0.00  0.00     0.000 O
ATOM     28  HD  A00 X   2      35.656  51.071  32.5250  0.00  0.00     0.000 HD
BRANCH 21 30
ATOM     28   N  A00 X   2      33.353  52.533  31.1570  0.00  0.00     0.000 N
ATOM     30  HD  A00 X   2      34.174  52.688  31.3860  0.00  0.00     0.000 HD
ATOM     30   O  A00 X   2      34.872  54.282  31.4610  0.00  0.00     0.000 OA
ATOM     31   S  A00 X   2      33.928  53.547  32.2250  0.00  0.00     0.000 S
ATOM     32   O  A00 X   2      32.778  54.289  32.6410  0.00  0.00     0.000 OA
ATOM     33   O  A00 X   2      34.439  52.769  33.3140  0.00  0.00     0.000 OA
ENDBRANCH 21 30
BRANCH 24 34
ATOM     34   C  A00 X   2      32.277  47.330  31.1950  0.00  0.00     0.000 C
ATOM     35   O  A00 X   2      30.471  46.744  34.3020  0.00  0.00     0.000 OA
ATOM     36   O  A00 X   2      31.977  47.221  32.6010  0.00  0.00     0.000 O
ATOM     37   O  A00 X   2      30.135  48.629  32.9140  0.00  0.00     0.000 OA
ATOM     38   S  A00 X   2      30.446  47.233  32.9630  0.00  0.00     0.000 S
ATOM     39   O  A00 X   2      29.799  46.376  32.0160  0.00  0.00     0.000 OA
ENDBRANCH 24 34
BRANCH 20 40
ATOM     40  O4  A00 X   3      33.525  50.302  28.7930  0.00  0.00     0.000 O
BRANCH 40 44
ATOM     41  C1  A00 X   3      33.576  47.639  26.3380  0.00  0.00     0.000 C
ATOM     42  C2  A00 X   3      34.542  48.843  26.3500  0.00  0.00     0.000 C
ATOM     43  C3  A00 X   3      33.762  50.179  26.4590  0.00  0.00     0.000 C
ATOM     44  C4  A00 X   3      32.738  50.224  27.5850  0.00  0.00     0.000 C
ATOM     45  C5  A00 X   3      31.802  48.985  27.5030  0.00  0.00     0.000 C
ATOM     46  O5  A00 X   3      32.579  47.749  27.3910  0.00  0.00     0.000 O
ATOM     47   O  A00 X   3      34.549  51.367  26.3920  0.00  0.00     0.000 O
ATOM     49  HD  A00 X   3      33.995  51.634  27.0010  0.00  0.00     0.000 HD
BRANCH 42 49
ATOM     49   O  A00 X   3      35.434  48.659  27.4710  0.00  0.00     0.000 O
ATOM     50   O  A00 X   3      37.236  49.878  28.4700  0.00  0.00     0.000 OA
ATOM     51   O  A00 X   3      37.107  49.760  26.1120  0.00  0.00     0.000 OA
ATOM     52   O  A00 X   3      37.608  47.787  27.3140  0.00  0.00     0.000 OA
ATOM     53   S  A00 X   3      36.938  49.041  27.3500  0.00  0.00     0.000 S
ENDBRANCH 42 49
BRANCH 45 54
ATOM     54   C  A00 X   3      30.752  49.140  26.3970  0.00  0.00     0.000 C
ATOM     55   O  A00 X   3      30.871  49.998  25.5460  0.00  0.00     0.000 OA
ATOM     56   O  A00 X   3      29.777  48.405  26.3520  0.00  0.00     0.000 OA
ENDBRANCH 45 54
BRANCH 41 57
ATOM     57  O4  A00 X   4      33.019  47.414  25.0230  0.00  0.00     0.000 O
BRANCH 57 61
ATOM     58  C1  A00 X   4      31.680  43.869  22.9550  0.00  0.00     0.000 C
ATOM     59  C2  A00 X   4      30.703  44.572  23.9290  0.00  0.00     0.000 C
ATOM     60  C3  A00 X   4      31.146  45.996  24.3230  0.00  0.00     0.000 C
ATOM     61  C4  A00 X   4      32.631  46.039  24.7430  0.00  0.00     0.000 C
ATOM     62  C5  A00 X   4      33.439  45.488  23.5420  0.00  0.00     0.000 C
ATOM     63  O5  A00 X   4      33.062  44.107  23.3070  0.00  0.00     0.000 O
BRANCH 59 66
ATOM     64   N  A00 X   4      29.249  44.760  24.0770  0.00  0.00     0.000 N
ATOM     66  HD  A00 X   4      28.960  45.072  24.8320  0.00  0.00     0.000 HD
ATOM     66   O  A00 X   4      29.044  42.361  24.1110  0.00  0.00     0.000 OA
ATOM     67   S  A00 X   4      28.289  43.521  23.7560  0.00  0.00     0.000 S
ATOM     68   O  A00 X   4      27.181  43.823  24.6140  0.00  0.00     0.000 OA
ATOM     69   O  A00 X   4      28.034  43.754  22.3620  0.00  0.00     0.000 OA
ENDBRANCH 59 66
BRANCH 62 70
ATOM     70   C  A00 X   4      34.974  45.553  23.7300  0.00  0.00     0.000 C
ATOM     71   O  A00 X   4      37.256  42.894  24.6400  0.00  0.00     0.000 OA
ATOM     72   O  A00 X   4      37.014  45.071  25.5050  0.00  0.00     0.000 OA
ATOM     73   O  A00 X   4      35.496  44.219  23.8450  0.00  0.00     0.000 O
ATOM     74   O  A00 X   4      35.387  43.355  26.0910  0.00  0.00     0.000 OA
ATOM     75   S  A00 X   4      36.316  43.861  25.1330  0.00  0.00     0.000 S
ENDBRANCH 62 70
ENDBRANCH 57 61
ENDBRANCH 41 57
ENDBRANCH 40 44
ENDBRANCH 20 40
ENDBRANCH 19 23
ENDBRANCH 1 19
TORSDOF 14
ENDMDL
MODEL 98
REMARK VINA RESULT:       0.3     72.697     76.904
ROOT
ATOM      1  C1  A00 X   1      71.918  61.479 105.3840  0.00  0.00     0.000 C
ATOM      2  C2  A00 X   1      70.627  61.178 104.5770  0.00  0.00     0.000 C
ATOM      3  C3  A00 X   1      70.586  59.802 103.8330  0.00  0.00     0.000 C
ATOM      4  C4  A00 X   1      71.951  59.082 103.6850  0.00  0.00     0.000 C
ATOM      5  C5  A00 X   1      73.129  60.050 103.7900  0.00  0.00     0.000 C
ATOM      6  O5  A00 X   1      73.037  60.596 105.1260  0.00  0.00     0.000 O
ATOM      7   O  A00 X   1      70.094  60.011 102.5110  0.00  0.00     0.000 O
ATOM      9  HD  A00 X   1      70.749  59.448 102.4530  0.00  0.00     0.000 HD
ATOM      9   O  A00 X   1      72.098  58.038 104.6470  0.00  0.00     0.000 O
ATOM     11  HD  A00 X   1      72.752  57.474 104.5890  0.00  0.00     0.000 HD
ENDROOT
BRANCH 2 11
ATOM     11   O  A00 X   1      69.513  61.251 105.4880  0.00  0.00     0.000 O
ATOM     12   O  A00 X   1      67.243  61.368 104.7120  0.00  0.00     0.000 OA
ATOM     13   O  A00 X   1      68.772  63.188 104.1980  0.00  0.00     0.000 OA
ATOM     14   O  A00 X   1      68.057  62.811 106.4350  0.00  0.00     0.000 OA
ATOM     15   S  A00 X   1      68.322  62.214 105.1540  0.00  0.00     0.000 S
ENDBRANCH 2 11
BRANCH 5 16
ATOM     16   C  A00 X   1      73.190  61.119 102.6940  0.00  0.00     0.000 C
ATOM     17   O  A00 X   1      73.968  62.042 102.8250  0.00  0.00     0.000 OA
ATOM     18   O  A00 X   1      72.494  61.073 101.7000  0.00  0.00     0.000 OA
ENDBRANCH 5 16
BRANCH 1 19
ATOM     19  O4  A00 X   2      72.314  62.870 105.3100  0.00  0.00     0.000 O
BRANCH 19 23
ATOM     20  C1  A00 X   2      74.429  65.339 108.1020  0.00  0.00     0.000 C
ATOM     21  C2  A00 X   2      75.271  64.472 107.1350  0.00  0.00     0.000 C
ATOM     22  C3  A00 X   2      74.417  63.994 105.9410  0.00  0.00     0.000 C
ATOM     23  C4  A00 X   2      73.143  63.276 106.4370  0.00  0.00     0.000 C
ATOM     24  C5  A00 X   2      72.402  64.237 107.4070  0.00  0.00     0.000 C
ATOM     25  O5  A00 X   2      73.283  64.550 108.5170  0.00  0.00     0.000 O
ATOM     26   O  A00 X   2      75.258  63.253 105.0400  0.00  0.00     0.000 O
ATOM     28  HD  A00 X   2      75.576  62.751 105.6700  0.00  0.00     0.000 HD
BRANCH 21 30
ATOM     28   N  A00 X   2      76.260  64.306 108.2040  0.00  0.00     0.000 N
ATOM     30  HD  A00 X   2      76.646  64.068 107.4670  0.00  0.00     0.000 HD
ATOM     30   O  A00 X   2      78.370  64.111 107.2210  0.00  0.00     0.000 OA
ATOM     31   S  A00 X   2      77.468  63.314 107.9740  0.00  0.00     0.000 S
ATOM     32   O  A00 X   2      77.904  62.997 109.2980  0.00  0.00     0.000 OA
ATOM     33   O  A00 X   2      76.941  62.147 107.3310  0.00  0.00     0.000 OA
ENDBRANCH 21 30
BRANCH 24 34
ATOM     34   C  A00 X   2      70.977  63.849 107.8660  0.00  0.00     0.000 C
ATOM     35   O  A00 X   2      70.125  62.871 111.2680  0.00  0.00     0.000 OA
ATOM     36   O  A00 X   2      71.004  63.178 109.1420  0.00  0.00     0.000 O
ATOM     37   O  A00 X   2      71.186  64.908 110.7050  0.00  0.00     0.000 OA
ATOM     38   S  A00 X   2      70.239  63.914 110.3020  0.00  0.00     0.000 S
ATOM     39   O  A00 X   2      68.998  64.365 109.7470  0.00  0.00     0.000 OA
ENDBRANCH 24 34
BRANCH 20 40
ATOM     40  O4  A00 X   3      73.984  66.462 107.3270  0.00  0.00     0.000 O
BRANCH 40 44
ATOM     41  C1  A00 X   3      70.930  68.361 106.8920  0.00  0.00     0.000 C
ATOM     42  C2  A00 X   3      72.189  68.507 106.0110  0.00  0.00     0.000 C
ATOM     43  C3  A00 X   3      73.456  68.708 106.8830  0.00  0.00     0.000 C
ATOM     44  C4  A00 X   3      73.624  67.687 108.0010  0.00  0.00     0.000 C
ATOM     45  C5  A00 X   3      72.320  67.602 108.8440  0.00  0.00     0.000 C
ATOM     46  O5  A00 X   3      71.150  67.423 107.9810  0.00  0.00     0.000 O
ATOM     47   O  A00 X   3      74.670  68.941 106.1720  0.00  0.00     0.000 O
ATOM     49  HD  A00 X   3      74.999  68.434 106.7930  0.00  0.00     0.000 HD
BRANCH 42 49
ATOM     49   O  A00 X   3      72.285  67.310 105.2090  0.00  0.00     0.000 O
ATOM     50   O  A00 X   3      73.782  66.452 103.5490  0.00  0.00     0.000 OA
ATOM     51   O  A00 X   3      73.187  68.739 103.4770  0.00  0.00     0.000 OA
ATOM     52   O  A00 X   3      71.527  67.128 102.9940  0.00  0.00     0.000 OA
ATOM     53   S  A00 X   3      72.722  67.396 103.7170  0.00  0.00     0.000 S
ENDBRANCH 42 49
BRANCH 45 54
ATOM     54   C  A00 X   3      72.185  68.790 109.8030  0.00  0.00     0.000 C
ATOM     55   O  A00 X   3      72.924  69.749 109.7080  0.00  0.00     0.000 OA
ATOM     56   O  A00 X   3      71.335  68.793 110.6800  0.00  0.00     0.000 OA
ENDBRANCH 45 54
BRANCH 41 57
ATOM     57  O4  A00 X   4      70.425  69.647 107.3190  0.00  0.00     0.000 O
BRANCH 57 61
ATOM     58  C1  A00 X   4      66.462  70.821 108.5670  0.00  0.00     0.000 C
ATOM     59  C2  A00 X   4      67.593  70.786 109.6250  0.00  0.00     0.000 C
ATOM     60  C3  A00 X   4      69.006  70.710 109.0120  0.00  0.00     0.000 C
ATOM     61  C4  A00 X   4      69.100  69.622 107.9210  0.00  0.00     0.000 C
ATOM     62  C5  A00 X   4      68.023  69.971 106.8630  0.00  0.00     0.000 C
ATOM     63  O5  A00 X   4      66.711  69.903 107.4780  0.00  0.00     0.000 O
BRANCH 59 66
ATOM     64   N  A00 X   4      67.504  69.604 110.5010  0.00  0.00     0.000 N
ATOM     66  HD  A00 X   4      67.151  68.887 110.1700  0.00  0.00     0.000 HD
ATOM     66   O  A00 X   4      65.818  70.783 111.7520  0.00  0.00     0.000 OA
ATOM     67   S  A00 X   4      66.814  69.774 111.9340  0.00  0.00     0.000 S
ATOM     68   O  A00 X   4      66.316  68.445 112.1400  0.00  0.00     0.000 OA
ATOM     69   O  A00 X   4      67.962  70.102 112.7310  0.00  0.00     0.000 OA
ENDBRANCH 59 66
BRANCH 62 70
ATOM     70   C  A00 X   4      68.034  69.048 105.6220  0.00  0.00     0.000 C
ATOM     71   O  A00 X   4      66.607  65.741 105.2500  0.00  0.00     0.000 OA
ATOM     72   O  A00 X   4      68.751  66.556 104.7160  0.00  0.00     0.000 OA
ATOM     73   O  A00 X   4      67.142  67.944 105.8430  0.00  0.00     0.000 O
ATOM     74   O  A00 X   4      68.172  66.126 107.0440  0.00  0.00     0.000 OA
ATOM     75   S  A00 X   4      67.729  66.494 105.7370  0.00  0.00     0.000 S
ENDBRANCH 62 70
ENDBRANCH 57 61
ENDBRANCH 41 57
ENDBRANCH 40 44
ENDBRANCH 20 40
ENDBRANCH 19 23
ENDBRANCH 1 19
TORSDOF 14
ENDMDL
MODEL 99
REMARK VINA RESULT:       0.3    137.169    141.670
ROOT
ATOM      1  C1  A00 X   1      92.224 107.413  34.8910  0.00  0.00     0.000 C
ATOM      2  C2  A00 X   1      91.916 106.971  33.4350  0.00  0.00     0.000 C
ATOM      3  C3  A00 X   1      93.117 106.375  32.6290  0.00  0.00     0.000 C
ATOM      4  C4  A00 X   1      94.521 106.635  33.2330  0.00  0.00     0.000 C
ATOM      5  C5  A00 X   1      94.534 107.845  34.1670  0.00  0.00     0.000 C
ATOM      6  O5  A00 X   1      93.629 107.493  35.2370  0.00  0.00     0.000 O
ATOM      7   O  A00 X   1      93.124 106.953  31.3260  0.00  0.00     0.000 O
ATOM      9  HD  A00 X   1      93.947 106.919  31.5940  0.00  0.00     0.000 HD
ATOM      9   O  A00 X   1      95.012 105.487  33.9260  0.00  0.00     0.000 O
ATOM     11  HD  A00 X   1      95.834 105.453  34.1940  0.00  0.00     0.000 HD
ENDROOT
BRANCH 2 11
ATOM     11   O  A00 X   1      90.857 105.995  33.4880  0.00  0.00     0.000 O
ATOM     12   O  A00 X   1      90.146 104.785  31.5400  0.00  0.00     0.000 OA
ATOM     13   O  A00 X   1      89.851 107.198  31.6160  0.00  0.00     0.000 OA
ATOM     14   O  A00 X   1      88.576 105.782  33.0400  0.00  0.00     0.000 OA
ATOM     15   S  A00 X   1      89.811 105.947  32.3220  0.00  0.00     0.000 S
ENDBRANCH 2 11
BRANCH 5 16
ATOM     16   C  A00 X   1      94.200 109.183  33.4970  0.00  0.00     0.000 C
ATOM     17   O  A00 X   1      93.985 110.147  34.2020  0.00  0.00     0.000 OA
ATOM     18   O  A00 X   1      94.152 109.313  32.2900  0.00  0.00     0.000 OA
ENDBRANCH 5 16
BRANCH 1 19
ATOM     19  O4  A00 X   2      91.516 108.618  35.2730  0.00  0.00     0.000 O
BRANCH 19 23
ATOM     20  C1  A00 X   2      90.778 107.293  39.2810  0.00  0.00     0.000 C
ATOM     21  C2  A00 X   2      89.650 107.087  38.2410  0.00  0.00     0.000 C
ATOM     22  C3  A00 X   2      90.201 107.200  36.8040  0.00  0.00     0.000 C
ATOM     23  C4  A00 X   2      90.955 108.535  36.6140  0.00  0.00     0.000 C
ATOM     24  C5  A00 X   2      92.039 108.629  37.7220  0.00  0.00     0.000 C
ATOM     25  O5  A00 X   2      91.388 108.585  39.0180  0.00  0.00     0.000 O
ATOM     26   O  A00 X   2      89.133 106.934  35.8790  0.00  0.00     0.000 O
ATOM     28  HD  A00 X   2      88.594 107.493  36.2610  0.00  0.00     0.000 HD
BRANCH 21 30
ATOM     28   N  A00 X   2      88.734 106.142  37.5960  0.00  0.00     0.000 N
ATOM     30  HD  A00 X   2      88.432 106.277  38.3960  0.00  0.00     0.000 HD
ATOM     30   O  A00 X   2      86.762 106.072  38.8470  0.00  0.00     0.000 OA
ATOM     31   S  A00 X   2      87.839 105.211  38.5070  0.00  0.00     0.000 S
ATOM     32   O  A00 X   2      87.494 104.123  37.6450  0.00  0.00     0.000 OA
ATOM     33   O  A00 X   2      88.666 104.750  39.5830  0.00  0.00     0.000 OA
ENDBRANCH 21 30
BRANCH 24 34
ATOM     34   C  A00 X   2      93.086 109.764  37.6180  0.00  0.00     0.000 C
ATOM     35   O  A00 X   2      92.252 113.306  37.5010  0.00  0.00     0.000 OA
ATOM     36   O  A00 X   2      92.470 111.010  37.2370  0.00  0.00     0.000 O
ATOM     37   O  A00 X   2      91.562 111.842  39.2260  0.00  0.00     0.000 OA
ATOM     38   S  A00 X   2      92.596 112.170  38.2920  0.00  0.00     0.000 S
ATOM     39   O  A00 X   2      93.948 112.145  38.7620  0.00  0.00     0.000 OA
ENDBRANCH 24 34
BRANCH 20 40
ATOM     40  O4  A00 X   3      91.733 106.252  39.0290  0.00  0.00     0.000 O
BRANCH 40 44
ATOM     41  C1  A00 X   3      95.124 105.000  38.7890  0.00  0.00     0.000 C
ATOM     42  C2  A00 X   3      93.854 104.149  38.5740  0.00  0.00     0.000 C
ATOM     43  C3  A00 X   3      92.863 104.323  39.7530  0.00  0.00     0.000 C
ATOM     44  C4  A00 X   3      92.556 105.771  40.1130  0.00  0.00     0.000 C
ATOM     45  C5  A00 X   3      93.880 106.560  40.3180  0.00  0.00     0.000 C
ATOM     46  O5  A00 X   3      94.789 106.358  39.1880  0.00  0.00     0.000 O
ATOM     47   O  A00 X   3      91.689 103.515  39.7040  0.00  0.00     0.000 O
ATOM     49  HD  A00 X   3      91.317 104.234  40.0100  0.00  0.00     0.000 HD
BRANCH 42 49
ATOM     49   O  A00 X   3      93.268 104.571  37.3240  0.00  0.00     0.000 O
ATOM     50   O  A00 X   3      91.324 104.010  36.0440  0.00  0.00     0.000 OA
ATOM     51   O  A00 X   3      92.558 102.272  37.0670  0.00  0.00     0.000 OA
ATOM     52   O  A00 X   3      93.549 103.455  35.2770  0.00  0.00     0.000 OA
ATOM     53   S  A00 X   3      92.631 103.527  36.3610  0.00  0.00     0.000 S
ENDBRANCH 42 49
BRANCH 45 54
ATOM     54   C  A00 X   3      94.524 106.246  41.6740  0.00  0.00     0.000 C
ATOM     55   O  A00 X   3      94.057 105.391  42.3980  0.00  0.00     0.000 OA
ATOM     56   O  A00 X   3      95.516 106.851  42.0500  0.00  0.00     0.000 OA
ENDBRANCH 45 54
BRANCH 41 57
ATOM     57  O4  A00 X   4      96.064 104.345  39.6700  0.00  0.00     0.000 O
BRANCH 57 61
ATOM     58  C1  A00 X   4     100.377 104.285  39.8550  0.00  0.00     0.000 C
ATOM     59  C2  A00 X   4      99.643 105.628  40.0970  0.00  0.00     0.000 C
ATOM     60  C3  A00 X   4      98.133 105.464  40.3630  0.00  0.00     0.000 C
ATOM     61  C4  A00 X   4      97.467 104.533  39.3270  0.00  0.00     0.000 C
ATOM     62  C5  A00 X   4      98.223 103.183  39.4040  0.00  0.00     0.000 C
ATOM     63  O5  A00 X   4      99.607 103.389  39.0220  0.00  0.00     0.000 O
BRANCH 59 66
ATOM     64   N  A00 X   4      99.856 106.867  40.8670  0.00  0.00     0.000 N
ATOM     66  HD  A00 X   4      99.344 107.542  40.6880  0.00  0.00     0.000 HD
ATOM     66   O  A00 X   4     101.928 107.136  39.6710  0.00  0.00     0.000 OA
ATOM     67   S  A00 X   4     101.332 107.479  40.9240  0.00  0.00     0.000 S
ATOM     68   O  A00 X   4     101.029 108.869  41.1030  0.00  0.00     0.000 OA
ATOM     69   O  A00 X   4     101.831 106.829  42.1030  0.00  0.00     0.000 OA
ENDBRANCH 59 66
BRANCH 62 70
ATOM     70   C  A00 X   4      97.626 102.072  38.5080  0.00  0.00     0.000 C
ATOM     71   O  A00 X   4      97.632 101.833  34.8950  0.00  0.00     0.000 OA
ATOM     72   O  A00 X   4      95.878 101.585  36.4460  0.00  0.00     0.000 OA
ATOM     73   O  A00 X   4      98.075 102.260  37.1560  0.00  0.00     0.000 O
ATOM     74   O  A00 X   4      96.711 103.813  35.9170  0.00  0.00     0.000 OA
ATOM     75   S  A00 X   4      96.987 102.418  36.0370  0.00  0.00     0.000 S
ENDBRANCH 62 70
ENDBRANCH 57 61
ENDBRANCH 41 57
ENDBRANCH 40 44
ENDBRANCH 20 40
ENDBRANCH 19 23
ENDBRANCH 1 19
TORSDOF 14
ENDMDL
MODEL 100
REMARK VINA RESULT:       0.3    130.060    135.263
ROOT
ATOM      1  C1  A00 X   1     112.312  58.841  41.9110  0.00  0.00     0.000 C
ATOM      2  C2  A00 X   1     111.737  57.418  41.6790  0.00  0.00     0.000 C
ATOM      3  C3  A00 X   1     111.258  57.100  40.2240  0.00  0.00     0.000 C
ATOM      4  C4  A00 X   1     111.073  58.328  39.2970  0.00  0.00     0.000 C
ATOM      5  C5  A00 X   1     110.860  59.620  40.0860  0.00  0.00     0.000 C
ATOM      6  O5  A00 X   1     112.078  59.793  40.8440  0.00  0.00     0.000 O
ATOM      7   O  A00 X   1     109.991  56.449  40.2910  0.00  0.00     0.000 O
ATOM      9  HD  A00 X   1     109.954  57.013  39.6360  0.00  0.00     0.000 HD
ATOM      9   O  A00 X   1     112.179  58.483  38.4080  0.00  0.00     0.000 O
ATOM     11  HD  A00 X   1     112.142  59.048  37.7530  0.00  0.00     0.000 HD
ENDROOT
BRANCH 2 11
ATOM     11   O  A00 X   1     112.751  56.468  42.0580  0.00  0.00     0.000 O
ATOM     12   O  A00 X   1     112.534  54.123  41.5850  0.00  0.00     0.000 OA
ATOM     13   O  A00 X   1     110.952  55.183  43.0990  0.00  0.00     0.000 OA
ATOM     14   O  A00 X   1     113.229  54.912  43.7320  0.00  0.00     0.000 OA
ATOM     15   S  A00 X   1     112.310  55.080  42.6390  0.00  0.00     0.000 S
ENDBRANCH 2 11
BRANCH 5 16
ATOM     16   C  A00 X   1     109.593  59.651  40.9470  0.00  0.00     0.000 C
ATOM     17   O  A00 X   1     109.467  60.541  41.7640  0.00  0.00     0.000 OA
ATOM     18   O  A00 X   1     108.710  58.824  40.8380  0.00  0.00     0.000 OA
ENDBRANCH 5 16
BRANCH 1 19
ATOM     19  O4  A00 X   2     111.945  59.391  43.2000  0.00  0.00     0.000 O
BRANCH 19 23
ATOM     20  C1  A00 X   2     115.916  60.753  44.0620  0.00  0.00     0.000 C
ATOM     21  C2  A00 X   2     115.431  59.468  44.7760  0.00  0.00     0.000 C
ATOM     22  C3  A00 X   2     114.199  58.875  44.0610  0.00  0.00     0.000 C
ATOM     23  C4  A00 X   2     113.087  59.939  43.9190  0.00  0.00     0.000 C
ATOM     24  C5  A00 X   2     113.702  61.176  43.2100  0.00  0.00     0.000 C
ATOM     25  O5  A00 X   2     114.798  61.680  44.0160  0.00  0.00     0.000 O
ATOM     26   O  A00 X   2     113.830  57.650  44.7180  0.00  0.00     0.000 O
ATOM     28  HD  A00 X   2     113.834  58.012  45.5040  0.00  0.00     0.000 HD
BRANCH 21 30
ATOM     28   N  A00 X   2     115.915  58.094  44.9380  0.00  0.00     0.000 N
ATOM     30  HD  A00 X   2     116.319  58.574  45.5350  0.00  0.00     0.000 HD
ATOM     30   O  A00 X   2     116.957  57.932  47.0230  0.00  0.00     0.000 OA
ATOM     31   S  A00 X   2     117.308  57.860  45.6490  0.00  0.00     0.000 S
ATOM     32   O  A00 X   2     117.706  56.564  45.1940  0.00  0.00     0.000 OA
ATOM     33   O  A00 X   2     118.208  58.859  45.1550  0.00  0.00     0.000 OA
ENDBRANCH 21 30
BRANCH 24 34
ATOM     34   C  A00 X   2     112.742  62.295  42.7410  0.00  0.00     0.000 C
ATOM     35   O  A00 X   2     110.436  64.059  44.9380  0.00  0.00     0.000 OA
ATOM     36   O  A00 X   2     111.721  62.554  43.7250  0.00  0.00     0.000 O
ATOM     37   O  A00 X   2     112.769  63.925  45.3040  0.00  0.00     0.000 OA
ATOM     38   S  A00 X   2     111.725  64.006  44.3290  0.00  0.00     0.000 S
ATOM     39   O  A00 X   2     111.913  64.902  43.2280  0.00  0.00     0.000 OA
ENDBRANCH 24 34
BRANCH 20 40
ATOM     40  O4  A00 X   3     116.260  60.350  42.7290  0.00  0.00     0.000 O
BRANCH 40 44
ATOM     41  C1  A00 X   3     116.987  60.182  39.1840  0.00  0.00     0.000 C
ATOM     42  C2  A00 X   3     117.529  59.196  40.2410  0.00  0.00     0.000 C
ATOM     43  C3  A00 X   3     118.176  59.955  41.4280  0.00  0.00     0.000 C
ATOM     44  C4  A00 X   3     117.307  61.054  42.0260  0.00  0.00     0.000 C
ATOM     45  C5  A00 X   3     116.806  62.006  40.9040  0.00  0.00     0.000 C
ATOM     46  O5  A00 X   3     116.212  61.247  39.8010  0.00  0.00     0.000 O
ATOM     47   O  A00 X   3     118.789  59.142  42.4270  0.00  0.00     0.000 O
ATOM     49  HD  A00 X   3     118.444  59.732  42.9590  0.00  0.00     0.000 HD
BRANCH 42 49
ATOM     49   O  A00 X   3     116.414  58.387  40.6760  0.00  0.00     0.000 O
ATOM     50   O  A00 X   3     116.069  56.610  42.2420  0.00  0.00     0.000 OA
ATOM     51   O  A00 X   3     118.016  56.588  40.9010  0.00  0.00     0.000 OA
ATOM     52   O  A00 X   3     115.924  56.242  39.8560  0.00  0.00     0.000 OA
ATOM     53   S  A00 X   3     116.602  56.865  40.9410  0.00  0.00     0.000 S
ENDBRANCH 42 49
BRANCH 45 54
ATOM     54   C  A00 X   3     117.904  62.974  40.4480  0.00  0.00     0.000 C
ATOM     55   O  A00 X   3     119.067  62.769  40.7320  0.00  0.00     0.000 OA
ATOM     56   O  A00 X   3     117.630  63.968  39.7940  0.00  0.00     0.000 OA
ENDBRANCH 45 54
BRANCH 41 57
ATOM     57  O4  A00 X   4     118.034  60.651  38.3050  0.00  0.00     0.000 O
BRANCH 57 61
ATOM     58  C1  A00 X   4     117.931  62.175  34.2670  0.00  0.00     0.000 C
ATOM     59  C2  A00 X   4     118.036  63.184  35.4380  0.00  0.00     0.000 C
ATOM     60  C3  A00 X   4     118.424  62.530  36.7800  0.00  0.00     0.000 C
ATOM     61  C4  A00 X   4     117.574  61.276  37.0730  0.00  0.00     0.000 C
ATOM     62  C5  A00 X   4     117.783  60.317  35.8750  0.00  0.00     0.000 C
ATOM     63  O5  A00 X   4     117.283  60.946  34.6670  0.00  0.00     0.000 O
BRANCH 59 66
ATOM     64   N  A00 X   4     116.747  63.849  35.7000  0.00  0.00     0.000 N
ATOM     66  HD  A00 X   4     116.025  63.411  35.5100  0.00  0.00     0.000 HD
ATOM     66   O  A00 X   4     117.252  65.329  33.8680  0.00  0.00     0.000 OA
ATOM     67   S  A00 X   4     116.510  65.309  35.0900  0.00  0.00     0.000 S
ATOM     68   O  A00 X   4     115.084  65.300  34.9460  0.00  0.00     0.000 OA
ATOM     69   O  A00 X   4     116.987  66.117  36.1760  0.00  0.00     0.000 OA
ENDBRANCH 59 66
BRANCH 62 70
ATOM     70   C  A00 X   4     117.091  58.943  36.0360  0.00  0.00     0.000 C
ATOM     71   O  A00 X   4     113.786  57.934  34.9540  0.00  0.00     0.000 OA
ATOM     72   O  A00 X   4     114.862  57.685  37.0340  0.00  0.00     0.000 OA
ATOM     73   O  A00 X   4     115.892  58.919  35.2440  0.00  0.00     0.000 O
ATOM     74   O  A00 X   4     113.992  59.866  36.3820  0.00  0.00     0.000 OA
ATOM     75   S  A00 X   4     114.538  58.613  35.9720  0.00  0.00     0.000 S
ENDBRANCH 62 70
ENDBRANCH 57 61
ENDBRANCH 41 57
ENDBRANCH 40 44
ENDBRANCH 20 40
ENDBRANCH 19 23
ENDBRANCH 1 19
TORSDOF 14
ENDMDL
