MODEL 1
REMARK VINA RESULT:      -6.5      0.000      0.000
ROOT
ATOM      1  C1  GCU B   1       5.628  37.442  24.1090  0.00  0.00     0.000 C
ATOM      2  C2  GCU B   1       4.990  37.583  25.4830  0.00  0.00     0.000 C
ATOM      3  C3  GCU B   1       4.521  36.230  25.9930  0.00  0.00     0.000 C
ATOM      4  C4  GCU B   1       3.659  35.543  24.9460  0.00  0.00     0.000 C
ATOM      5  C5  GCU B   1       4.366  35.507  23.5890  0.00  0.00     0.000 C
ATOM      6  O5  GCU B   1       4.694  36.846  23.1950  0.00  0.00     0.000 O
ATOM      7   O  GCU B   1       5.965  38.142  26.3570  0.00  0.00     0.000 O
ATOM      9  HD  GCU B   1       5.860  38.840  26.8600  0.00  0.00     0.000 HD
ATOM      9   O  GCU B   1       3.781  36.378  27.2080  0.00  0.00     0.000 O
ATOM     11  HD  GCU B   1       3.677  37.075  27.7110  0.00  0.00     0.000 HD
ATOM     11   O  GCU B   1       3.378  34.211  25.3790  0.00  0.00     0.000 O
ATOM     13  HD  GCU B   1       3.274  34.909  25.8820  0.00  0.00     0.000 HD
ENDROOT
BRANCH 5 13
ATOM     13   C  GCU B   1       3.493  34.808  22.5740  0.00  0.00     0.000 C
ATOM     14   O  GCU B   1       3.487  33.562  22.4980  0.00  0.00     0.000 OA
ATOM     15   O  GCU B   1       2.773  35.521  21.8490  0.00  0.00     0.000 OA
ENDBRANCH 5 13
BRANCH 1 16
ATOM     16  O3  NAG B   2       5.725  38.373  23.1580  0.00  0.00     0.000 O
BRANCH 16 19
ATOM     17  C1  NAG B   2       8.531  40.157  21.3760  0.00  0.00     0.000 C
ATOM     18  C2  NAG B   2       7.639  39.757  22.5450  0.00  0.00     0.000 C
ATOM     19  C3  NAG B   2       6.691  38.635  22.1270  0.00  0.00     0.000 C
ATOM     20  C4  NAG B   2       5.936  39.021  20.8560  0.00  0.00     0.000 C
ATOM     21  C5  NAG B   2       6.926  39.395  19.7620  0.00  0.00     0.000 C
ATOM     22  O5  NAG B   2       7.739  40.487  20.2240  0.00  0.00     0.000 O
ATOM     23   O  NAG B   2       5.120  37.912  20.4610  0.00  0.00     0.000 O
ATOM     25  HD  NAG B   2       4.712  38.622  20.7420  0.00  0.00     0.000 HD
ATOM     25   C  NAG B   2       6.241  39.778  18.4520  0.00  0.00     0.000 C
ATOM     26   O  NAG B   2       5.615  41.068  18.5380  0.00  0.00     0.000 O
ATOM     28  HD  NAG B   2       5.207  41.778  18.8190  0.00  0.00     0.000 HD
BRANCH 18 30
ATOM     28   N  NAG B   2       8.737  39.810  23.4920  0.00  0.00     0.000 N
ATOM     30  HD  NAG B   2       8.039  39.927  23.9910  0.00  0.00     0.000 HD
ATOM     30   C  NAG B   2       8.591  40.119  24.7860  0.00  0.00     0.000 C
ATOM     31   C  NAG B   2       9.831  40.177  25.6330  0.00  0.00     0.000 C
ATOM     32   O  NAG B   2       7.501  40.348  25.2710  0.00  0.00     0.000 OA
ENDBRANCH 18 30
BRANCH 17 33
ATOM     33  O4  GCU B   3       9.373  41.239  21.8210  0.00  0.00     0.000 O
BRANCH 33 37
ATOM     34  C1  GCU B   3      12.732  42.975  20.0790  0.00  0.00     0.000 C
ATOM     35  C2  GCU B   3      11.360  43.420  19.5720  0.00  0.00     0.000 C
ATOM     36  C3  GCU B   3      10.297  43.027  20.5770  0.00  0.00     0.000 C
ATOM     37  C4  GCU B   3      10.384  41.534  20.8550  0.00  0.00     0.000 C
ATOM     38  C5  GCU B   3      11.786  41.184  21.3580  0.00  0.00     0.000 C
ATOM     39  O5  GCU B   3      12.737  41.573  20.3620  0.00  0.00     0.000 O
ATOM     40   O  GCU B   3      11.370  44.838  19.3920  0.00  0.00     0.000 O
ATOM     42  HD  GCU B   3      10.924  45.555  19.5820  0.00  0.00     0.000 HD
ATOM     42   O  GCU B   3       8.983  43.366  20.0980  0.00  0.00     0.000 O
ATOM     44  HD  GCU B   3       8.537  44.084  20.2890  0.00  0.00     0.000 HD
BRANCH 38 44
ATOM     44   C  GCU B   3      11.956  39.711  21.6330  0.00  0.00     0.000 C
ATOM     45   O  GCU B   3      11.766  39.296  22.7860  0.00  0.00     0.000 OA
ATOM     46   O  GCU B   3      12.277  38.943  20.7060  0.00  0.00     0.000 OA
ENDBRANCH 38 44
BRANCH 34 47
ATOM     47  O3  NAG B   4      13.619  43.137  19.1080  0.00  0.00     0.000 O
BRANCH 47 50
ATOM     48  C1  NAG B   4      15.616  42.192  16.1280  0.00  0.00     0.000 C
ATOM     49  C2  NAG B   4      15.177  42.203  17.5890  0.00  0.00     0.000 C
ATOM     50  C3  NAG B   4      13.767  42.750  17.7420  0.00  0.00     0.000 C
ATOM     51  C4  NAG B   4      13.468  43.951  16.8380  0.00  0.00     0.000 C
ATOM     52  C5  NAG B   4      13.637  43.591  15.3710  0.00  0.00     0.000 C
ATOM     53  O5  NAG B   4      14.797  42.776  15.0940  0.00  0.00     0.000 O
BRANCH 49 56
ATOM     54   N  NAG B   4      14.847  40.772  17.6970  0.00  0.00     0.000 N
ATOM     56  HD  NAG B   4      14.222  40.362  17.2590  0.00  0.00     0.000 HD
ATOM     56   C  NAG B   4      14.925  38.479  18.4880  0.00  0.00     0.000 C
ATOM     57   O  NAG B   4      16.056  40.240  19.5460  0.00  0.00     0.000 OA
ATOM     58   C  NAG B   4      15.320  39.917  18.6250  0.00  0.00     0.000 C
ENDBRANCH 49 56
ATOM     59   O  NAG B   4      13.468  44.626  13.1360  0.00  0.00     0.000 O
ATOM     61  HD  NAG B   4      13.956  44.412  13.8190  0.00  0.00     0.000 HD
ATOM     61   O  NAG B   4      13.468  44.626  13.1360  0.00  0.00     0.000 O
ATOM     63  HD  NAG B   4      13.956  44.412  13.8190  0.00  0.00     0.000 HD
ENDBRANCH 47 50
ENDBRANCH 34 47
ENDBRANCH 33 37
ENDBRANCH 17 33
ENDBRANCH 16 19
ENDBRANCH 1 16
TORSDOF 10
ENDMDL
MODEL 2
REMARK VINA RESULT:      -6.4     21.579     26.308
ROOT
ATOM      1  C1  GCU B   1      19.567  24.712  10.8250  0.00  0.00     0.000 C
ATOM      2  C2  GCU B   1      20.112  25.277  12.1280  0.00  0.00     0.000 C
ATOM      3  C3  GCU B   1      19.887  26.780  12.1910  0.00  0.00     0.000 C
ATOM      4  C4  GCU B   1      20.412  27.443  10.9270  0.00  0.00     0.000 C
ATOM      5  C5  GCU B   1      19.852  26.763   9.6760  0.00  0.00     0.000 C
ATOM      6  O5  GCU B   1      20.188  25.369   9.7090  0.00  0.00     0.000 O
ATOM      7   O  GCU B   1      19.440  24.621  13.1990  0.00  0.00     0.000 O
ATOM      9  HD  GCU B   1      19.816  24.224  13.8710  0.00  0.00     0.000 HD
ATOM      9   O  GCU B   1      20.537  27.339  13.3360  0.00  0.00     0.000 O
ATOM     11  HD  GCU B   1      20.912  26.942  14.0080  0.00  0.00     0.000 HD
ATOM     11   O  GCU B   1      20.035  28.820  10.9380  0.00  0.00     0.000 O
ATOM     13  HD  GCU B   1      20.411  28.424  11.6100  0.00  0.00     0.000 HD
ENDROOT
BRANCH 5 13
ATOM     13   C  GCU B   1      20.378  27.450   8.4390  0.00  0.00     0.000 C
ATOM     14   O  GCU B   1      19.698  27.474   7.3920  0.00  0.00     0.000 OA
ATOM     15   O  GCU B   1      21.491  28.005   8.5200  0.00  0.00     0.000 OA
ENDBRANCH 5 13
BRANCH 1 16
ATOM     16  O3  NAG B   2      19.960  23.605  10.1910  0.00  0.00     0.000 O
BRANCH 16 19
ATOM     17  C1  NAG B   2      18.538  20.173   9.5380  0.00  0.00     0.000 C
ATOM     18  C2  NAG B   2      19.108  21.324  10.3560  0.00  0.00     0.000 C
ATOM     19  C3  NAG B   2      19.258  22.570   9.4850  0.00  0.00     0.000 C
ATOM     20  C4  NAG B   2      20.046  22.241   8.2170  0.00  0.00     0.000 C
ATOM     21  C5  NAG B   2      19.384  21.084   7.4840  0.00  0.00     0.000 C
ATOM     22  O5  NAG B   2      19.331  19.945   8.3620  0.00  0.00     0.000 O
ATOM     23   O  NAG B   2      20.094  23.415   7.3990  0.00  0.00     0.000 O
ATOM     25  HD  NAG B   2      20.839  23.150   7.7530  0.00  0.00     0.000 HD
ATOM     25   C  NAG B   2      20.111  20.709   6.1940  0.00  0.00     0.000 C
ATOM     26   O  NAG B   2      21.348  20.032   6.4600  0.00  0.00     0.000 O
ATOM     28  HD  NAG B   2      22.093  19.766   6.8140  0.00  0.00     0.000 HD
BRANCH 18 30
ATOM     28   N  NAG B   2      19.218  20.759  11.6880  0.00  0.00     0.000 N
ATOM     30  HD  NAG B   2      18.630  21.387  11.7880  0.00  0.00     0.000 HD
ATOM     30   C  NAG B   2      18.611  21.268  12.7670  0.00  0.00     0.000 C
ATOM     31   C  NAG B   2      18.859  20.596  14.0880  0.00  0.00     0.000 C
ATOM     32   O  NAG B   2      17.885  22.240  12.6950  0.00  0.00     0.000 OA
ENDBRANCH 18 30
BRANCH 17 33
ATOM     33  O4  GCU B   3      18.455  19.022  10.4030  0.00  0.00     0.000 O
BRANCH 33 37
ATOM     34  C1  GCU B   3      15.770  15.841  10.4410  0.00  0.00     0.000 C
ATOM     35  C2  GCU B   3      16.985  15.733   9.5190  0.00  0.00     0.000 C
ATOM     36  C3  GCU B   3      18.034  16.739   9.9430  0.00  0.00     0.000 C
ATOM     37  C4  GCU B   3      17.422  18.133   9.9770  0.00  0.00     0.000 C
ATOM     38  C5  GCU B   3      16.220  18.144  10.9230  0.00  0.00     0.000 C
ATOM     39  O5  GCU B   3      15.267  17.180  10.4620  0.00  0.00     0.000 O
ATOM     40   O  GCU B   3      17.511  14.407   9.5990  0.00  0.00     0.000 O
ATOM     42  HD  GCU B   3      18.249  13.969   9.7170  0.00  0.00     0.000 HD
ATOM     42   O  GCU B   3      19.163  16.716   9.0510  0.00  0.00     0.000 O
ATOM     44  HD  GCU B   3      19.901  16.278   9.1690  0.00  0.00     0.000 HD
BRANCH 38 44
ATOM     44   C  GCU B   3      15.544  19.491  10.9890  0.00  0.00     0.000 C
ATOM     45   O  GCU B   3      15.062  19.964   9.9490  0.00  0.00     0.000 OA
ATOM     46   O  GCU B   3      15.479  20.097  12.0750  0.00  0.00     0.000 OA
ENDBRANCH 38 44
BRANCH 34 47
ATOM     47  O3  NAG B   4      14.786  15.109   9.9380  0.00  0.00     0.000 O
BRANCH 47 50
ATOM     48  C1  NAG B   4      12.270  14.260  12.5280  0.00  0.00     0.000 C
ATOM     49  C2  NAG B   4      13.163  15.142  11.6610  0.00  0.00     0.000 C
ATOM     50  C3  NAG B   4      13.647  14.401  10.4250  0.00  0.00     0.000 C
ATOM     51  C4  NAG B   4      14.029  12.941  10.6910  0.00  0.00     0.000 C
ATOM     52  C5  NAG B   4      12.850  12.152  11.2360  0.00  0.00     0.000 C
ATOM     53  O5  NAG B   4      12.071  12.864  12.2230  0.00  0.00     0.000 O
BRANCH 49 56
ATOM     54   N  NAG B   4      12.171  15.949  10.9300  0.00  0.00     0.000 N
ATOM     56  HD  NAG B   4      11.765  15.714  10.2030  0.00  0.00     0.000 HD
ATOM     56   C  NAG B   4      10.770  17.845  10.3530  0.00  0.00     0.000 C
ATOM     57   O  NAG B   4      12.462  17.948  11.9740  0.00  0.00     0.000 OA
ATOM     58   C  NAG B   4      11.886  17.248  11.1540  0.00  0.00     0.000 C
ENDBRANCH 49 56
ATOM     59   O  NAG B   4      12.289   9.876  12.0080  0.00  0.00     0.000 O
ATOM     61  HD  NAG B   4      12.554  10.678  12.1970  0.00  0.00     0.000 HD
ATOM     61   O  NAG B   4      12.289   9.876  12.0080  0.00  0.00     0.000 O
ATOM     63  HD  NAG B   4      12.554  10.678  12.1970  0.00  0.00     0.000 HD
ENDBRANCH 47 50
ENDBRANCH 34 47
ENDBRANCH 33 37
ENDBRANCH 17 33
ENDBRANCH 16 19
ENDBRANCH 1 16
TORSDOF 10
ENDMDL
MODEL 3
REMARK VINA RESULT:      -5.8     24.287     28.873
ROOT
ATOM      1  C1  GCU B   1      15.355  19.571  37.0030  0.00  0.00     0.000 C
ATOM      2  C2  GCU B   1      16.675  20.234  37.3650  0.00  0.00     0.000 C
ATOM      3  C3  GCU B   1      17.089  21.222  36.2850  0.00  0.00     0.000 C
ATOM      4  C4  GCU B   1      17.054  20.552  34.9200  0.00  0.00     0.000 C
ATOM      5  C5  GCU B   1      15.709  19.864  34.6790  0.00  0.00     0.000 C
ATOM      6  O5  GCU B   1      15.471  18.917  35.7290  0.00  0.00     0.000 O
ATOM      7   O  GCU B   1      16.498  20.897  38.6130  0.00  0.00     0.000 O
ATOM      9  HD  GCU B   1      16.998  20.808  39.3150  0.00  0.00     0.000 HD
ATOM      9   O  GCU B   1      18.401  21.729  36.5420  0.00  0.00     0.000 O
ATOM     11  HD  GCU B   1      18.902  21.640  37.2430  0.00  0.00     0.000 HD
ATOM     11   O  GCU B   1      17.278  21.541  33.9150  0.00  0.00     0.000 O
ATOM     13  HD  GCU B   1      17.778  21.452  34.6160  0.00  0.00     0.000 HD
ENDROOT
BRANCH 5 13
ATOM     13   C  GCU B   1      15.698  19.221  33.3130  0.00  0.00     0.000 C
ATOM     14   O  GCU B   1      16.750  19.135  32.6470  0.00  0.00     0.000 OA
ATOM     15   O  GCU B   1      14.614  18.764  32.9030  0.00  0.00     0.000 OA
ENDBRANCH 5 13
BRANCH 1 16
ATOM     16  O3  NAG B   2      14.909  18.377  37.3990  0.00  0.00     0.000 O
BRANCH 16 19
ATOM     17  C1  NAG B   2      11.213  17.774  37.8530  0.00  0.00     0.000 C
ATOM     18  C2  NAG B   2      12.512  18.569  37.8140  0.00  0.00     0.000 C
ATOM     19  C3  NAG B   2      13.647  17.703  37.2720  0.00  0.00     0.000 C
ATOM     20  C4  NAG B   2      13.731  16.388  38.0460  0.00  0.00     0.000 C
ATOM     21  C5  NAG B   2      12.382  15.683  38.0120  0.00  0.00     0.000 C
ATOM     22  O5  NAG B   2      11.389  16.551  38.5860  0.00  0.00     0.000 O
ATOM     23   O  NAG B   2      14.754  15.580  37.4540  0.00  0.00     0.000 O
ATOM     25  HD  NAG B   2      14.904  15.887  38.2500  0.00  0.00     0.000 HD
ATOM     25   C  NAG B   2      12.395  14.349  38.7550  0.00  0.00     0.000 C
ATOM     26   O  NAG B   2      12.433  14.535  40.1790  0.00  0.00     0.000 O
ATOM     28  HD  NAG B   2      12.583  14.842  40.9740  0.00  0.00     0.000 HD
BRANCH 18 30
ATOM     28   N  NAG B   2      12.306  19.912  38.3220  0.00  0.00     0.000 N
ATOM     30  HD  NAG B   2      12.294  20.022  37.4630  0.00  0.00     0.000 HD
ATOM     30   C  NAG B   2      12.265  21.004  37.5480  0.00  0.00     0.000 C
ATOM     31   C  NAG B   2      12.089  22.333  38.2270  0.00  0.00     0.000 C
ATOM     32   O  NAG B   2      12.369  20.937  36.3400  0.00  0.00     0.000 OA
ENDBRANCH 18 30
BRANCH 17 33
ATOM     33  O4  GCU B   3      10.194  18.631  38.4060  0.00  0.00     0.000 O
BRANCH 33 37
ATOM     34  C1  GCU B   3       6.050  18.442  38.0590  0.00  0.00     0.000 C
ATOM     35  C2  GCU B   3       6.693  17.757  39.2650  0.00  0.00     0.000 C
ATOM     36  C3  GCU B   3       8.101  18.280  39.4540  0.00  0.00     0.000 C
ATOM     37  C4  GCU B   3       8.890  18.100  38.1640  0.00  0.00     0.000 C
ATOM     38  C5  GCU B   3       8.174  18.818  37.0190  0.00  0.00     0.000 C
ATOM     39  O5  GCU B   3       6.857  18.272  36.8910  0.00  0.00     0.000 O
ATOM     40   O  GCU B   3       5.906  18.028  40.4270  0.00  0.00     0.000 O
ATOM     42  HD  GCU B   3       5.965  18.306  41.2450  0.00  0.00     0.000 HD
ATOM     42   O  GCU B   3       8.764  17.604  40.5370  0.00  0.00     0.000 O
ATOM     44  HD  GCU B   3       8.824  17.882  41.3560  0.00  0.00     0.000 HD
BRANCH 38 44
ATOM     44   C  GCU B   3       8.887  18.662  35.6990  0.00  0.00     0.000 C
ATOM     45   O  GCU B   3       8.912  17.542  35.1660  0.00  0.00     0.000 OA
ATOM     46   O  GCU B   3       9.429  19.651  35.1690  0.00  0.00     0.000 OA
ENDBRANCH 38 44
BRANCH 34 47
ATOM     47  O3  NAG B   4       4.906  17.832  37.7820  0.00  0.00     0.000 O
BRANCH 47 50
ATOM     48  C1  NAG B   4       1.991  17.067  35.6200  0.00  0.00     0.000 C
ATOM     49  C2  NAG B   4       2.933  17.907  36.4750  0.00  0.00     0.000 C
ATOM     50  C3  NAG B   4       4.283  17.229  36.6490  0.00  0.00     0.000 C
ATOM     51  C4  NAG B   4       4.189  15.714  36.8660  0.00  0.00     0.000 C
ATOM     52  C5  NAG B   4       3.507  15.031  35.6920  0.00  0.00     0.000 C
ATOM     53  O5  NAG B   4       2.354  15.739  35.1860  0.00  0.00     0.000 O
BRANCH 49 56
ATOM     54   N  NAG B   4       3.477  18.926  35.5590  0.00  0.00     0.000 N
ATOM     56  HD  NAG B   4       4.247  18.892  35.1650  0.00  0.00     0.000 HD
ATOM     56   C  NAG B   4       3.624  20.993  34.2950  0.00  0.00     0.000 C
ATOM     57   O  NAG B   4       1.991  20.605  35.9330  0.00  0.00     0.000 OA
ATOM     58   C  NAG B   4       2.962  20.153  35.3450  0.00  0.00     0.000 C
ENDBRANCH 49 56
ATOM     59   O  NAG B   4       2.811  12.779  34.9560  0.00  0.00     0.000 O
ATOM     61  HD  NAG B   4       2.615  13.523  35.3550  0.00  0.00     0.000 HD
ATOM     61   O  NAG B   4       2.811  12.779  34.9560  0.00  0.00     0.000 O
ATOM     63  HD  NAG B   4       2.615  13.523  35.3550  0.00  0.00     0.000 HD
ENDBRANCH 47 50
ENDBRANCH 34 47
ENDBRANCH 33 37
ENDBRANCH 17 33
ENDBRANCH 16 19
ENDBRANCH 1 16
TORSDOF 10
ENDMDL
MODEL 4
REMARK VINA RESULT:      -5.7     14.565     19.187
ROOT
ATOM      1  C1  GCU B   1      14.503  26.202  34.1840  0.00  0.00     0.000 C
ATOM      2  C2  GCU B   1      16.011  26.276  34.0020  0.00  0.00     0.000 C
ATOM      3  C3  GCU B   1      16.581  24.895  33.7180  0.00  0.00     0.000 C
ATOM      4  C4  GCU B   1      16.102  23.904  34.7680  0.00  0.00     0.000 C
ATOM      5  C5  GCU B   1      14.581  23.952  34.9170  0.00  0.00     0.000 C
ATOM      6  O5  GCU B   1      14.183  25.289  35.2460  0.00  0.00     0.000 O
ATOM      7   O  GCU B   1      16.273  27.162  32.9180  0.00  0.00     0.000 O
ATOM      9  HD  GCU B   1      16.809  27.842  32.9320  0.00  0.00     0.000 HD
ATOM      9   O  GCU B   1      18.010  24.932  33.7040  0.00  0.00     0.000 O
ATOM     11  HD  GCU B   1      18.546  25.612  33.7180  0.00  0.00     0.000 HD
ATOM     11   O  GCU B   1      16.509  22.590  34.3820  0.00  0.00     0.000 O
ATOM     13  HD  GCU B   1      17.045  23.270  34.3960  0.00  0.00     0.000 HD
ENDROOT
BRANCH 5 13
ATOM     13   C  GCU B   1      14.134  22.949  35.9530  0.00  0.00     0.000 C
ATOM     14   O  GCU B   1      14.931  22.543  36.8240  0.00  0.00     0.000 OA
ATOM     15   O  GCU B   1      12.946  22.575  35.9160  0.00  0.00     0.000 OA
ENDBRANCH 5 13
BRANCH 1 16
ATOM     16  O3  NAG B   2      13.726  27.037  34.8780  0.00  0.00     0.000 O
BRANCH 16 19
ATOM     17  C1  NAG B   2      10.395  28.496  33.8770  0.00  0.00     0.000 C
ATOM     18  C2  NAG B   2      11.858  28.101  33.7240  0.00  0.00     0.000 C
ATOM     19  C3  NAG B   2      12.308  27.262  34.9190  0.00  0.00     0.000 C
ATOM     20  C4  NAG B   2      11.978  27.978  36.2270  0.00  0.00     0.000 C
ATOM     21  C5  NAG B   2      10.495  28.317  36.2700  0.00  0.00     0.000 C
ATOM     22  O5  NAG B   2      10.174  29.147  35.1390  0.00  0.00     0.000 O
ATOM     23   O  NAG B   2      12.345  27.123  37.3150  0.00  0.00     0.000 O
ATOM     25  HD  NAG B   2      12.809  27.847  37.2080  0.00  0.00     0.000 HD
ATOM     25   C  NAG B   2      10.087  29.023  37.5610  0.00  0.00     0.000 C
ATOM     26   O  NAG B   2      10.554  30.381  37.5940  0.00  0.00     0.000 O
ATOM     28  HD  NAG B   2      11.017  31.105  37.4860  0.00  0.00     0.000 HD
BRANCH 18 30
ATOM     28   N  NAG B   2      11.726  27.723  32.3300  0.00  0.00     0.000 N
ATOM     30  HD  NAG B   2      12.548  27.989  32.3860  0.00  0.00     0.000 HD
ATOM     30   C  NAG B   2      12.678  27.922  31.4100  0.00  0.00     0.000 C
ATOM     31   C  NAG B   2      12.375  27.516  29.9950  0.00  0.00     0.000 C
ATOM     32   O  NAG B   2      13.752  28.413  31.6950  0.00  0.00     0.000 OA
ENDBRANCH 18 30
BRANCH 17 33
ATOM     33  O4  GCU B   3      10.042  29.312  32.7430  0.00  0.00     0.000 O
BRANCH 33 37
ATOM     34  C1  GCU B   3       6.359  29.487  30.8100  0.00  0.00     0.000 C
ATOM     35  C2  GCU B   3       6.824  30.733  31.5650  0.00  0.00     0.000 C
ATOM     36  C3  GCU B   3       8.313  30.642  31.8240  0.00  0.00     0.000 C
ATOM     37  C4  GCU B   3       8.627  29.342  32.5510  0.00  0.00     0.000 C
ATOM     38  C5  GCU B   3       8.129  28.156  31.7220  0.00  0.00     0.000 C
ATOM     39  O5  GCU B   3       6.719  28.300  31.5220  0.00  0.00     0.000 O
ATOM     40   O  GCU B   3       6.530  31.889  30.7770  0.00  0.00     0.000 O
ATOM     42  HD  GCU B   3       6.886  32.614  30.4670  0.00  0.00     0.000 HD
ATOM     42   O  GCU B   3       8.773  31.765  32.5970  0.00  0.00     0.000 O
ATOM     44  HD  GCU B   3       9.130  32.490  32.2870  0.00  0.00     0.000 HD
BRANCH 38 44
ATOM     44   C  GCU B   3       8.383  26.829  32.3940  0.00  0.00     0.000 C
ATOM     45   O  GCU B   3       9.190  26.045  31.8720  0.00  0.00     0.000 OA
ATOM     46   O  GCU B   3       7.788  26.548  33.4510  0.00  0.00     0.000 OA
ENDBRANCH 38 44
BRANCH 34 47
ATOM     47  O3  NAG B   4       5.034  29.481  30.7710  0.00  0.00     0.000 O
BRANCH 47 50
ATOM     48  C1  NAG B   4       1.494  29.939  29.7640  0.00  0.00     0.000 C
ATOM     49  C2  NAG B   4       2.739  30.044  30.6390  0.00  0.00     0.000 C
ATOM     50  C3  NAG B   4       4.007  29.806  29.8360  0.00  0.00     0.000 C
ATOM     51  C4  NAG B   4       3.883  28.679  28.8040  0.00  0.00     0.000 C
ATOM     52  C5  NAG B   4       2.781  28.972  27.7990  0.00  0.00     0.000 C
ATOM     53  O5  NAG B   4       1.580  29.522  28.3850  0.00  0.00     0.000 O
BRANCH 49 56
ATOM     54   N  NAG B   4       2.698  31.515  30.6980  0.00  0.00     0.000 N
ATOM     56  HD  NAG B   4       2.562  32.045  30.0260  0.00  0.00     0.000 HD
ATOM     56   C  NAG B   4       2.843  33.754  31.6260  0.00  0.00     0.000 C
ATOM     57   O  NAG B   4       3.523  31.836  32.7920  0.00  0.00     0.000 OA
ATOM     58   C  NAG B   4       3.058  32.276  31.7510  0.00  0.00     0.000 C
ENDBRANCH 49 56
ATOM     59   O  NAG B   4       1.703  27.958  25.8230  0.00  0.00     0.000 O
ATOM     61  HD  NAG B   4       1.716  28.076  26.6810  0.00  0.00     0.000 HD
ATOM     61   O  NAG B   4       1.703  27.958  25.8230  0.00  0.00     0.000 O
ATOM     63  HD  NAG B   4       1.716  28.076  26.6810  0.00  0.00     0.000 HD
ENDBRANCH 47 50
ENDBRANCH 34 47
ENDBRANCH 33 37
ENDBRANCH 17 33
ENDBRANCH 16 19
ENDBRANCH 1 16
TORSDOF 10
ENDMDL
MODEL 5
REMARK VINA RESULT:      -5.6     21.834     26.107
ROOT
ATOM      1  C1  GCU B   1      19.417  25.048  13.0320  0.00  0.00     0.000 C
ATOM      2  C2  GCU B   1      19.840  25.310  14.4700  0.00  0.00     0.000 C
ATOM      3  C3  GCU B   1      19.590  26.763  14.8420  0.00  0.00     0.000 C
ATOM      4  C4  GCU B   1      20.214  27.685  13.8060  0.00  0.00     0.000 C
ATOM      5  C5  GCU B   1      19.774  27.300  12.3920  0.00  0.00     0.000 C
ATOM      6  O5  GCU B   1      20.124  25.932  12.1470  0.00  0.00     0.000 O
ATOM      7   O  GCU B   1      19.086  24.438  15.3070  0.00  0.00     0.000 O
ATOM      9  HD  GCU B   1      19.407  23.901  15.9060  0.00  0.00     0.000 HD
ATOM      9   O  GCU B   1      20.129  27.053  16.1340  0.00  0.00     0.000 O
ATOM     11  HD  GCU B   1      20.450  26.515  16.7330  0.00  0.00     0.000 HD
ATOM     11   O  GCU B   1      19.819  29.029  14.0860  0.00  0.00     0.000 O
ATOM     13  HD  GCU B   1      20.140  28.492  14.6850  0.00  0.00     0.000 HD
ENDROOT
BRANCH 5 13
ATOM     13   C  GCU B   1      20.397  28.240  11.3870  0.00  0.00     0.000 C
ATOM     14   O  GCU B   1      21.474  27.945  10.8290  0.00  0.00     0.000 OA
ATOM     15   O  GCU B   1      19.780  29.291  11.1250  0.00  0.00     0.000 OA
ENDBRANCH 5 13
BRANCH 1 16
ATOM     16  O3  NAG B   2      19.879  24.106  12.2080  0.00  0.00     0.000 O
BRANCH 16 19
ATOM     17  C1  NAG B   2      18.758  20.891  10.5840  0.00  0.00     0.000 C
ATOM     18  C2  NAG B   2      19.242  21.805  11.7020  0.00  0.00     0.000 C
ATOM     19  C3  NAG B   2      19.256  23.258  11.2300  0.00  0.00     0.000 C
ATOM     20  C4  NAG B   2      20.038  23.386   9.9230  0.00  0.00     0.000 C
ATOM     21  C5  NAG B   2      19.464  22.433   8.8840  0.00  0.00     0.000 C
ATOM     22  O5  NAG B   2      19.538  21.089   9.3940  0.00  0.00     0.000 O
ATOM     23   O  NAG B   2      19.958  24.745   9.4800  0.00  0.00     0.000 O
ATOM     25  HD  NAG B   2      20.732  24.460   9.7430  0.00  0.00     0.000 HD
ATOM     25   C  NAG B   2      20.188  22.517   7.5420  0.00  0.00     0.000 C
ATOM     26   O  NAG B   2      21.489  21.912   7.6020  0.00  0.00     0.000 O
ATOM     28  HD  NAG B   2      22.263  21.627   7.8650  0.00  0.00     0.000 HD
BRANCH 18 30
ATOM     28   N  NAG B   2      18.596  20.943  12.6730  0.00  0.00     0.000 N
ATOM     30  HD  NAG B   2      19.033  21.504  13.1670  0.00  0.00     0.000 HD
ATOM     30   C  NAG B   2      18.815  21.009  13.9920  0.00  0.00     0.000 C
ATOM     31   C  NAG B   2      18.103  20.016  14.8670  0.00  0.00     0.000 C
ATOM     32   O  NAG B   2      19.563  21.834  14.4770  0.00  0.00     0.000 OA
ENDBRANCH 18 30
BRANCH 17 33
ATOM     33  O4  GCU B   3      18.802  19.537  11.0780  0.00  0.00     0.000 O
BRANCH 33 37
ATOM     34  C1  GCU B   3      17.308  16.022   9.4220  0.00  0.00     0.000 C
ATOM     35  C2  GCU B   3      18.758  16.394   9.1090  0.00  0.00     0.000 C
ATOM     36  C3  GCU B   3      19.243  17.425  10.1060  0.00  0.00     0.000 C
ATOM     37  C4  GCU B   3      18.299  18.619  10.1060  0.00  0.00     0.000 C
ATOM     38  C5  GCU B   3      16.879  18.153  10.4290  0.00  0.00     0.000 C
ATOM     39  O5  GCU B   3      16.481  17.189   9.4490  0.00  0.00     0.000 O
ATOM     40   O  GCU B   3      19.564  15.216   9.1850  0.00  0.00     0.000 O
ATOM     42  HD  GCU B   3      20.294  14.907   9.5340  0.00  0.00     0.000 HD
ATOM     42   O  GCU B   3      20.582  17.852   9.7980  0.00  0.00     0.000 O
ATOM     44  HD  GCU B   3      21.312  17.544  10.1460  0.00  0.00     0.000 HD
BRANCH 38 44
ATOM     44   C  GCU B   3      15.880  19.283  10.4230  0.00  0.00     0.000 C
ATOM     45   O  GCU B   3      15.392  19.651  11.5020  0.00  0.00     0.000 OA
ATOM     46   O  GCU B   3      15.566  19.824   9.3450  0.00  0.00     0.000 OA
ENDBRANCH 38 44
BRANCH 34 47
ATOM     47  O3  NAG B   4      16.833  15.283   8.4300  0.00  0.00     0.000 O
BRANCH 47 50
ATOM     48  C1  NAG B   4      15.413  12.086   9.6640  0.00  0.00     0.000 C
ATOM     49  C2  NAG B   4      15.795  13.562   9.6820  0.00  0.00     0.000 C
ATOM     50  C3  NAG B   4      16.074  14.084   8.2820  0.00  0.00     0.000 C
ATOM     51  C4  NAG B   4      16.847  13.097   7.3990  0.00  0.00     0.000 C
ATOM     52  C5  NAG B   4      16.086  11.792   7.2330  0.00  0.00     0.000 C
ATOM     53  O5  NAG B   4      15.470  11.311   8.4480  0.00  0.00     0.000 O
BRANCH 49 56
ATOM     54   N  NAG B   4      14.438  14.121   9.8200  0.00  0.00     0.000 N
ATOM     56  HD  NAG B   4      13.811  14.077   9.2250  0.00  0.00     0.000 HD
ATOM     56   C  NAG B   4      12.567  15.320  10.7940  0.00  0.00     0.000 C
ATOM     57   O  NAG B   4      14.739  15.399  11.6750  0.00  0.00     0.000 OA
ATOM     58   C  NAG B   4      14.019  14.952  10.7950  0.00  0.00     0.000 C
ENDBRANCH 49 56
ATOM     59   O  NAG B   4      16.314   9.595   6.1320  0.00  0.00     0.000 O
ATOM     61  HD  NAG B   4      16.426  10.086   6.8370  0.00  0.00     0.000 HD
ATOM     61   O  NAG B   4      16.314   9.595   6.1320  0.00  0.00     0.000 O
ATOM     63  HD  NAG B   4      16.426  10.086   6.8370  0.00  0.00     0.000 HD
ENDBRANCH 47 50
ENDBRANCH 34 47
ENDBRANCH 33 37
ENDBRANCH 17 33
ENDBRANCH 16 19
ENDBRANCH 1 16
TORSDOF 10
ENDMDL
MODEL 6
REMARK VINA RESULT:      -5.6      1.952      2.957
ROOT
ATOM      1  C1  GCU B   1       6.000  38.571  24.7300  0.00  0.00     0.000 C
ATOM      2  C2  GCU B   1       5.172  38.933  25.9530  0.00  0.00     0.000 C
ATOM      3  C3  GCU B   1       4.958  37.711  26.8320  0.00  0.00     0.000 C
ATOM      4  C4  GCU B   1       4.419  36.555  26.0040  0.00  0.00     0.000 C
ATOM      5  C5  GCU B   1       5.287  36.313  24.7680  0.00  0.00     0.000 C
ATOM      6  O5  GCU B   1       5.353  37.519  23.9960  0.00  0.00     0.000 O
ATOM      7   O  GCU B   1       5.871  39.950  26.6640  0.00  0.00     0.000 O
ATOM      9  HD  GCU B   1       5.547  40.711  26.9180  0.00  0.00     0.000 HD
ATOM      9   O  GCU B   1       4.051  38.008  27.8970  0.00  0.00     0.000 O
ATOM     11  HD  GCU B   1       3.726  38.769  28.1510  0.00  0.00     0.000 HD
ATOM     11   O  GCU B   1       4.392  35.379  26.8140  0.00  0.00     0.000 O
ATOM     13  HD  GCU B   1       4.067  36.141  27.0680  0.00  0.00     0.000 HD
ENDROOT
BRANCH 5 13
ATOM     13   C  GCU B   1       4.737  35.153  23.9730  0.00  0.00     0.000 C
ATOM     14   O  GCU B   1       5.021  33.979  24.2890  0.00  0.00     0.000 OA
ATOM     15   O  GCU B   1       3.976  35.418  23.0220  0.00  0.00     0.000 OA
ENDBRANCH 5 13
BRANCH 1 16
ATOM     16  O3  NAG B   2       6.008  39.181  23.5430  0.00  0.00     0.000 O
BRANCH 16 19
ATOM     17  C1  NAG B   2       8.877  40.174  21.3050  0.00  0.00     0.000 C
ATOM     18  C2  NAG B   2       8.058  40.097  22.5870  0.00  0.00     0.000 C
ATOM     19  C3  NAG B   2       6.890  39.127  22.4120  0.00  0.00     0.000 C
ATOM     20  C4  NAG B   2       6.084  39.485  21.1630  0.00  0.00     0.000 C
ATOM     21  C5  NAG B   2       7.003  39.528  19.9510  0.00  0.00     0.000 C
ATOM     22  O5  NAG B   2       8.038  40.499  20.1850  0.00  0.00     0.000 O
ATOM     23   O  NAG B   2       5.052  38.506  20.9970  0.00  0.00     0.000 O
ATOM     25  HD  NAG B   2       4.805  39.310  21.2060  0.00  0.00     0.000 HD
ATOM     25   C  NAG B   2       6.261  39.865  18.6590  0.00  0.00     0.000 C
ATOM     26   O  NAG B   2       5.881  41.248  18.6110  0.00  0.00     0.000 O
ATOM     28  HD  NAG B   2       5.634  42.052  18.8200  0.00  0.00     0.000 HD
BRANCH 18 30
ATOM     28   N  NAG B   2       8.748  40.970  23.5170  0.00  0.00     0.000 N
ATOM     30  HD  NAG B   2       8.872  40.182  23.8560  0.00  0.00     0.000 HD
ATOM     30   C  NAG B   2       9.288  40.554  24.6700  0.00  0.00     0.000 C
ATOM     31   C  NAG B   2       9.932  41.588  25.5500  0.00  0.00     0.000 C
ATOM     32   O  NAG B   2       9.263  39.387  25.0050  0.00  0.00     0.000 OA
ENDBRANCH 18 30
BRANCH 17 33
ATOM     33  O4  GCU B   3       9.937  41.128  21.5220  0.00  0.00     0.000 O
BRANCH 33 37
ATOM     34  C1  GCU B   3      13.629  41.577  19.6510  0.00  0.00     0.000 C
ATOM     35  C2  GCU B   3      12.402  42.159  18.9490  0.00  0.00     0.000 C
ATOM     36  C3  GCU B   3      11.262  42.283  19.9380  0.00  0.00     0.000 C
ATOM     37  C4  GCU B   3      11.002  40.933  20.5900  0.00  0.00     0.000 C
ATOM     38  C5  GCU B   3      12.280  40.433  21.2670  0.00  0.00     0.000 C
ATOM     39  O5  GCU B   3      13.309  40.331  20.2780  0.00  0.00     0.000 O
ATOM     40   O  GCU B   3      12.737  43.443  18.4180  0.00  0.00     0.000 O
ATOM     42  HD  GCU B   3      12.464  44.264  18.3880  0.00  0.00     0.000 HD
ATOM     42   O  GCU B   3      10.067  42.761  19.2950  0.00  0.00     0.000 O
ATOM     44  HD  GCU B   3       9.794  43.582  19.2640  0.00  0.00     0.000 HD
BRANCH 38 44
ATOM     44   C  GCU B   3      12.105  39.083  21.9150  0.00  0.00     0.000 C
ATOM     45   O  GCU B   3      12.014  39.025  23.1510  0.00  0.00     0.000 OA
ATOM     46   O  GCU B   3      12.052  38.059  21.2070  0.00  0.00     0.000 OA
ENDBRANCH 38 44
BRANCH 34 47
ATOM     47  O3  NAG B   4      14.543  41.282  18.7380  0.00  0.00     0.000 O
BRANCH 47 50
ATOM     48  C1  NAG B   4      17.647  39.962  17.1960  0.00  0.00     0.000 C
ATOM     49  C2  NAG B   4      16.728  40.966  17.8850  0.00  0.00     0.000 C
ATOM     50  C3  NAG B   4      15.535  40.278  18.5290  0.00  0.00     0.000 C
ATOM     51  C4  NAG B   4      14.944  39.146  17.6820  0.00  0.00     0.000 C
ATOM     52  C5  NAG B   4      15.976  38.063  17.4120  0.00  0.00     0.000 C
ATOM     53  O5  NAG B   4      17.289  38.569  17.0870  0.00  0.00     0.000 O
BRANCH 49 56
ATOM     54   N  NAG B   4      17.639  41.150  19.0280  0.00  0.00     0.000 N
ATOM     56  HD  NAG B   4      18.074  40.522  19.4350  0.00  0.00     0.000 HD
ATOM     56   C  NAG B   4      18.846  42.274  20.8090  0.00  0.00     0.000 C
ATOM     57   O  NAG B   4      17.139  43.300  19.5710  0.00  0.00     0.000 OA
ATOM     58   C  NAG B   4      17.790  42.281  19.7460  0.00  0.00     0.000 C
ENDBRANCH 49 56
ATOM     59   O  NAG B   4      16.192  35.907  16.2290  0.00  0.00     0.000 O
ATOM     61  HD  NAG B   4      16.278  36.769  16.2210  0.00  0.00     0.000 HD
ATOM     61   O  NAG B   4      16.192  35.907  16.2290  0.00  0.00     0.000 O
ATOM     63  HD  NAG B   4      16.278  36.769  16.2210  0.00  0.00     0.000 HD
ENDBRANCH 47 50
ENDBRANCH 34 47
ENDBRANCH 33 37
ENDBRANCH 17 33
ENDBRANCH 16 19
ENDBRANCH 1 16
TORSDOF 10
ENDMDL
MODEL 7
REMARK VINA RESULT:      -5.5     19.830     23.805
ROOT
ATOM      1  C1  GCU B   1      18.589  21.761  15.8260  0.00  0.00     0.000 C
ATOM      2  C2  GCU B   1      18.722  22.834  14.7560  0.00  0.00     0.000 C
ATOM      3  C3  GCU B   1      17.434  22.947  13.9540  0.00  0.00     0.000 C
ATOM      4  C4  GCU B   1      17.007  21.578  13.4490  0.00  0.00     0.000 C
ATOM      5  C5  GCU B   1      16.964  20.560  14.5900  0.00  0.00     0.000 C
ATOM      6  O5  GCU B   1      18.252  20.503  15.2180  0.00  0.00     0.000 O
ATOM      7   O  GCU B   1      19.019  24.063  15.4100  0.00  0.00     0.000 O
ATOM      9  HD  GCU B   1      19.677  24.595  15.2240  0.00  0.00     0.000 HD
ATOM      9   O  GCU B   1      17.606  23.838  12.8490  0.00  0.00     0.000 O
ATOM     11  HD  GCU B   1      18.264  24.370  12.6630  0.00  0.00     0.000 HD
ATOM     11   O  GCU B   1      15.715  21.688  12.8520  0.00  0.00     0.000 O
ATOM     13  HD  GCU B   1      16.373  22.220  12.6660  0.00  0.00     0.000 HD
ENDROOT
BRANCH 5 13
ATOM     13   C  GCU B   1      16.524  19.215  14.0630  0.00  0.00     0.000 C
ATOM     14   O  GCU B   1      16.325  19.050  12.8420  0.00  0.00     0.000 OA
ATOM     15   O  GCU B   1      16.400  18.288  14.8870  0.00  0.00     0.000 OA
ENDBRANCH 5 13
BRANCH 1 16
ATOM     16  O3  NAG B   2      19.568  21.048  16.3890  0.00  0.00     0.000 O
BRANCH 16 19
ATOM     17  C1  NAG B   2      20.842  20.876  19.9350  0.00  0.00     0.000 C
ATOM     18  C2  NAG B   2      20.466  21.522  18.6070  0.00  0.00     0.000 C
ATOM     19  C3  NAG B   2      19.764  20.509  17.7050  0.00  0.00     0.000 C
ATOM     20  C4  NAG B   2      20.604  19.238  17.5780  0.00  0.00     0.000 C
ATOM     21  C5  NAG B   2      20.912  18.683  18.9610  0.00  0.00     0.000 C
ATOM     22  O5  NAG B   2      21.614  19.685  19.7180  0.00  0.00     0.000 O
ATOM     23   O  NAG B   2      19.873  18.292  16.7900  0.00  0.00     0.000 O
ATOM     25  HD  NAG B   2      20.592  18.625  16.4410  0.00  0.00     0.000 HD
ATOM     25   C  NAG B   2      21.738  17.399  18.9110  0.00  0.00     0.000 C
ATOM     26   O  NAG B   2      23.102  17.660  18.5440  0.00  0.00     0.000 O
ATOM     28  HD  NAG B   2      23.821  17.992  18.1950  0.00  0.00     0.000 HD
BRANCH 18 30
ATOM     28   N  NAG B   2      19.859  22.719  19.1580  0.00  0.00     0.000 N
ATOM     30  HD  NAG B   2      20.264  23.011  18.4500  0.00  0.00     0.000 HD
ATOM     30   C  NAG B   2      20.068  23.951  18.6770  0.00  0.00     0.000 C
ATOM     31   C  NAG B   2      19.403  25.098  19.3840  0.00  0.00     0.000 C
ATOM     32   O  NAG B   2      20.771  24.149  17.7060  0.00  0.00     0.000 OA
ENDBRANCH 18 30
BRANCH 17 33
ATOM     33  O4  GCU B   3      21.529  21.869  20.7230  0.00  0.00     0.000 O
BRANCH 33 37
ATOM     34  C1  GCU B   3      22.337  22.007  24.8050  0.00  0.00     0.000 C
ATOM     35  C2  GCU B   3      23.334  21.272  23.9090  0.00  0.00     0.000 C
ATOM     36  C3  GCU B   3      23.118  21.682  22.4670  0.00  0.00     0.000 C
ATOM     37  C4  GCU B   3      21.666  21.442  22.0800  0.00  0.00     0.000 C
ATOM     38  C5  GCU B   3      20.746  22.216  23.0260  0.00  0.00     0.000 C
ATOM     39  O5  GCU B   3      20.996  21.776  24.3650  0.00  0.00     0.000 O
ATOM     40   O  GCU B   3      24.661  21.603  24.3230  0.00  0.00     0.000 O
ATOM     42  HD  GCU B   3      25.426  21.874  24.0190  0.00  0.00     0.000 HD
ATOM     42   O  GCU B   3      23.992  20.954  21.5860  0.00  0.00     0.000 O
ATOM     44  HD  GCU B   3      24.757  21.225  21.2820  0.00  0.00     0.000 HD
BRANCH 38 44
ATOM     44   C  GCU B   3      19.285  22.007  22.7180  0.00  0.00     0.000 C
ATOM     45   O  GCU B   3      18.698  22.850  22.0230  0.00  0.00     0.000 OA
ATOM     46   O  GCU B   3      18.699  21.000  23.1600  0.00  0.00     0.000 OA
ENDBRANCH 38 44
BRANCH 34 47
ATOM     47  O3  NAG B   4      22.397  21.491  26.0240  0.00  0.00     0.000 O
BRANCH 47 50
ATOM     48  C1  NAG B   4      21.212  20.309  29.3340  0.00  0.00     0.000 C
ATOM     49  C2  NAG B   4      21.657  21.301  28.2650  0.00  0.00     0.000 C
ATOM     50  C3  NAG B   4      21.568  20.698  26.8720  0.00  0.00     0.000 C
ATOM     51  C4  NAG B   4      22.021  19.234  26.8030  0.00  0.00     0.000 C
ATOM     52  C5  NAG B   4      21.180  18.354  27.7130  0.00  0.00     0.000 C
ATOM     53  O5  NAG B   4      20.897  18.940  29.0030  0.00  0.00     0.000 O
BRANCH 49 56
ATOM     54   N  NAG B   4      20.414  22.086  28.3530  0.00  0.00     0.000 N
ATOM     56  HD  NAG B   4      19.615  21.760  28.4330  0.00  0.00     0.000 HD
ATOM     56   C  NAG B   4      18.947  24.020  28.3670  0.00  0.00     0.000 C
ATOM     57   O  NAG B   4      21.210  24.130  27.7590  0.00  0.00     0.000 OA
ATOM     58   C  NAG B   4      20.294  23.409  28.1260  0.00  0.00     0.000 C
ENDBRANCH 49 56
ATOM     59   O  NAG B   4      20.989  15.996  28.4160  0.00  0.00     0.000 O
ATOM     61  HD  NAG B   4      21.313  16.787  28.5550  0.00  0.00     0.000 HD
ATOM     61   O  NAG B   4      20.989  15.996  28.4160  0.00  0.00     0.000 O
ATOM     63  HD  NAG B   4      21.313  16.787  28.5550  0.00  0.00     0.000 HD
ENDBRANCH 47 50
ENDBRANCH 34 47
ENDBRANCH 33 37
ENDBRANCH 17 33
ENDBRANCH 16 19
ENDBRANCH 1 16
TORSDOF 10
ENDMDL
MODEL 8
REMARK VINA RESULT:      -5.5     15.683     18.379
ROOT
ATOM      1  C1  GCU B   1      19.225  24.334  18.3950  0.00  0.00     0.000 C
ATOM      2  C2  GCU B   1      18.368  24.469  19.6450  0.00  0.00     0.000 C
ATOM      3  C3  GCU B   1      18.654  23.330  20.6110  0.00  0.00     0.000 C
ATOM      4  C4  GCU B   1      18.547  21.993  19.8930  0.00  0.00     0.000 C
ATOM      5  C5  GCU B   1      19.396  21.983  18.6200  0.00  0.00     0.000 C
ATOM      6  O5  GCU B   1      18.983  23.063  17.7720  0.00  0.00     0.000 O
ATOM      7   O  GCU B   1      18.671  25.725  20.2430  0.00  0.00     0.000 O
ATOM      9  HD  GCU B   1      18.098  26.334  20.4700  0.00  0.00     0.000 HD
ATOM      9   O  GCU B   1      17.742  23.362  21.7110  0.00  0.00     0.000 O
ATOM     11  HD  GCU B   1      17.170  23.970  21.9380  0.00  0.00     0.000 HD
ATOM     11   O  GCU B   1      18.986  20.959  20.7750  0.00  0.00     0.000 O
ATOM     13  HD  GCU B   1      18.413  21.568  21.0020  0.00  0.00     0.000 HD
ENDROOT
BRANCH 5 13
ATOM     13   C  GCU B   1      19.282  20.641  17.9370  0.00  0.00     0.000 C
ATOM     14   O  GCU B   1      19.613  19.597  18.5360  0.00  0.00     0.000 OA
ATOM     15   O  GCU B   1      18.823  20.624  16.7790  0.00  0.00     0.000 OA
ENDBRANCH 5 13
BRANCH 1 16
ATOM     16  O3  NAG B   2      18.962  24.806  17.1740  0.00  0.00     0.000 O
BRANCH 16 19
ATOM     17  C1  NAG B   2      20.235  27.306  14.6530  0.00  0.00     0.000 C
ATOM     18  C2  NAG B   2      19.503  26.811  15.8940  0.00  0.00     0.000 C
ATOM     19  C3  NAG B   2      19.786  25.327  16.1190  0.00  0.00     0.000 C
ATOM     20  C4  NAG B   2      19.491  24.530  14.8490  0.00  0.00     0.000 C
ATOM     21  C5  NAG B   2      20.278  25.110  13.6820  0.00  0.00     0.000 C
ATOM     22  O5  NAG B   2      19.912  26.491  13.5140  0.00  0.00     0.000 O
ATOM     23   O  NAG B   2      19.844  23.162  15.0830  0.00  0.00     0.000 O
ATOM     25  HD  NAG B   2      19.002  23.342  14.9870  0.00  0.00     0.000 HD
ATOM     25   C  NAG B   2      20.046  24.351  12.3780  0.00  0.00     0.000 C
ATOM     26   O  NAG B   2      18.745  24.620  11.8320  0.00  0.00     0.000 O
ATOM     28  HD  NAG B   2      17.903  24.800  11.7370  0.00  0.00     0.000 HD
BRANCH 18 30
ATOM     28   N  NAG B   2      19.077  28.123  16.3450  0.00  0.00     0.000 N
ATOM     30  HD  NAG B   2      19.385  27.756  17.0670  0.00  0.00     0.000 HD
ATOM     30   C  NAG B   2      19.077  28.506  17.6280  0.00  0.00     0.000 C
ATOM     31   C  NAG B   2      18.564  29.884  17.9430  0.00  0.00     0.000 C
ATOM     32   O  NAG B   2      19.471  27.776  18.5150  0.00  0.00     0.000 OA
ENDBRANCH 18 30
BRANCH 17 33
ATOM     33  O4  GCU B   3      19.900  28.697  14.4740  0.00  0.00     0.000 O
BRANCH 33 37
ATOM     34  C1  GCU B   3      21.806  31.716  12.3330  0.00  0.00     0.000 C
ATOM     35  C2  GCU B   3      21.002  30.684  11.5420  0.00  0.00     0.000 C
ATOM     36  C3  GCU B   3      20.060  29.952  12.4740  0.00  0.00     0.000 C
ATOM     37  C4  GCU B   3      20.849  29.349  13.6280  0.00  0.00     0.000 C
ATOM     38  C5  GCU B   3      21.616  30.452  14.3590  0.00  0.00     0.000 C
ATOM     39  O5  GCU B   3      22.490  31.095  13.4260  0.00  0.00     0.000 O
ATOM     40   O  GCU B   3      20.263  31.356  10.5200  0.00  0.00     0.000 O
ATOM     42  HD  GCU B   3      19.468  31.425  10.1830  0.00  0.00     0.000 HD
ATOM     42   O  GCU B   3      19.338  28.922  11.7760  0.00  0.00     0.000 O
ATOM     44  HD  GCU B   3      18.543  28.990  11.4390  0.00  0.00     0.000 HD
BRANCH 38 44
ATOM     44   C  GCU B   3      22.444  29.925  15.5040  0.00  0.00     0.000 C
ATOM     45   O  GCU B   3      23.607  29.557  15.2760  0.00  0.00     0.000 OA
ATOM     46   O  GCU B   3      21.953  29.870  16.6480  0.00  0.00     0.000 OA
ENDBRANCH 38 44
BRANCH 34 47
ATOM     47  O3  NAG B   4      22.764  32.199  11.5540  0.00  0.00     0.000 O
BRANCH 47 50
ATOM     48  C1  NAG B   4      26.183  33.546  11.0540  0.00  0.00     0.000 C
ATOM     49  C2  NAG B   4      24.769  33.455  11.6180  0.00  0.00     0.000 C
ATOM     50  C3  NAG B   4      24.178  32.069  11.4210  0.00  0.00     0.000 C
ATOM     51  C4  NAG B   4      24.506  31.446  10.0590  0.00  0.00     0.000 C
ATOM     52  C5  NAG B   4      26.007  31.310   9.8620  0.00  0.00     0.000 C
ATOM     53  O5  NAG B   4      26.766  32.455  10.3110  0.00  0.00     0.000 O
BRANCH 49 56
ATOM     54   N  NAG B   4      25.195  33.352  13.0250  0.00  0.00     0.000 N
ATOM     56  HD  NAG B   4      25.768  32.784  13.3400  0.00  0.00     0.000 HD
ATOM     56   C  NAG B   4      25.284  33.807  15.4080  0.00  0.00     0.000 C
ATOM     57   O  NAG B   4      23.631  34.687  13.9950  0.00  0.00     0.000 OA
ATOM     58   C  NAG B   4      24.626  33.981  14.0730  0.00  0.00     0.000 C
ENDBRANCH 49 56
ATOM     59   O  NAG B   4      27.632  30.525   8.1780  0.00  0.00     0.000 O
ATOM     61  HD  NAG B   4      27.175  31.176   8.5190  0.00  0.00     0.000 HD
ATOM     61   O  NAG B   4      27.632  30.525   8.1780  0.00  0.00     0.000 O
ATOM     63  HD  NAG B   4      27.175  31.176   8.5190  0.00  0.00     0.000 HD
ENDBRANCH 47 50
ENDBRANCH 34 47
ENDBRANCH 33 37
ENDBRANCH 17 33
ENDBRANCH 16 19
ENDBRANCH 1 16
TORSDOF 10
ENDMDL
MODEL 9
REMARK VINA RESULT:      -5.5      7.506     17.022
ROOT
ATOM      1  C1  GCU B   1      19.185  47.137   8.0760  0.00  0.00     0.000 C
ATOM      2  C2  GCU B   1      19.069  48.619   7.7560  0.00  0.00     0.000 C
ATOM      3  C3  GCU B   1      18.579  48.818   6.3290  0.00  0.00     0.000 C
ATOM      4  C4  GCU B   1      19.433  48.011   5.3640  0.00  0.00     0.000 C
ATOM      5  C5  GCU B   1      19.536  46.551   5.8090  0.00  0.00     0.000 C
ATOM      6  O5  GCU B   1      20.069  46.502   7.1390  0.00  0.00     0.000 O
ATOM      7   O  GCU B   1      18.156  49.193   8.6860  0.00  0.00     0.000 O
ATOM      9  HD  GCU B   1      18.301  49.889   9.1810  0.00  0.00     0.000 HD
ATOM      9   O  GCU B   1      18.620  50.202   5.9710  0.00  0.00     0.000 O
ATOM     11  HD  GCU B   1      18.765  50.898   6.4650  0.00  0.00     0.000 HD
ATOM     11   O  GCU B   1      18.849  48.079   4.0630  0.00  0.00     0.000 O
ATOM     13  HD  GCU B   1      18.994  48.775   4.5570  0.00  0.00     0.000 HD
ENDROOT
BRANCH 5 13
ATOM     13   C  GCU B   1      20.377  45.772   4.8250  0.00  0.00     0.000 C
ATOM     14   O  GCU B   1      21.585  45.560   5.0570  0.00  0.00     0.000 OA
ATOM     15   O  GCU B   1      19.810  45.336   3.8050  0.00  0.00     0.000 OA
ENDBRANCH 5 13
BRANCH 1 16
ATOM     16  O3  NAG B   2      19.981  46.561   8.9790  0.00  0.00     0.000 O
BRANCH 16 19
ATOM     17  C1  NAG B   2      19.341  44.538  12.0980  0.00  0.00     0.000 C
ATOM     18  C2  NAG B   2      19.289  45.747  11.1730  0.00  0.00     0.000 C
ATOM     19  C3  NAG B   2      19.857  45.389   9.8010  0.00  0.00     0.000 C
ATOM     20  C4  NAG B   2      21.242  44.761   9.9460  0.00  0.00     0.000 C
ATOM     21  C5  NAG B   2      21.170  43.565  10.8850  0.00  0.00     0.000 C
ATOM     22  O5  NAG B   2      20.674  44.005  12.1610  0.00  0.00     0.000 O
ATOM     23   O  NAG B   2      21.699  44.372   8.6450  0.00  0.00     0.000 O
ATOM     25  HD  NAG B   2      22.118  45.024   9.0330  0.00  0.00     0.000 HD
ATOM     25   C  NAG B   2      22.520  42.874  11.0660  0.00  0.00     0.000 C
ATOM     26   O  NAG B   2      23.410  43.654  11.8790  0.00  0.00     0.000 O
ATOM     28  HD  NAG B   2      23.829  44.306  12.2660  0.00  0.00     0.000 HD
BRANCH 18 30
ATOM     28   N  NAG B   2      17.912  46.117  11.4410  0.00  0.00     0.000 N
ATOM     30  HD  NAG B   2      18.311  46.882  11.3650  0.00  0.00     0.000 HD
ATOM     30   C  NAG B   2      17.503  47.376  11.6450  0.00  0.00     0.000 C
ATOM     31   C  NAG B   2      16.050  47.595  11.9570  0.00  0.00     0.000 C
ATOM     32   O  NAG B   2      18.271  48.316  11.5850  0.00  0.00     0.000 OA
ENDBRANCH 18 30
BRANCH 17 33
ATOM     33  O4  GCU B   3      18.827  44.949  13.3810  0.00  0.00     0.000 O
BRANCH 33 37
ATOM     34  C1  GCU B   3      17.531  42.711  16.6440  0.00  0.00     0.000 C
ATOM     35  C2  GCU B   3      19.037  42.911  16.4740  0.00  0.00     0.000 C
ATOM     36  C3  GCU B   3      19.292  44.065  15.5270  0.00  0.00     0.000 C
ATOM     37  C4  GCU B   3      18.563  43.818  14.2140  0.00  0.00     0.000 C
ATOM     38  C5  GCU B   3      17.068  43.633  14.4820  0.00  0.00     0.000 C
ATOM     39  O5  GCU B   3      16.899  42.527  15.3740  0.00  0.00     0.000 O
ATOM     40   O  GCU B   3      19.616  43.185  17.7520  0.00  0.00     0.000 O
ATOM     42  HD  GCU B   3      20.143  43.737  18.1610  0.00  0.00     0.000 HD
ATOM     42   O  GCU B   3      20.700  44.236  15.2860  0.00  0.00     0.000 O
ATOM     44  HD  GCU B   3      21.228  44.788  15.6950  0.00  0.00     0.000 HD
BRANCH 38 44
ATOM     44   C  GCU B   3      16.281  43.359  13.2250  0.00  0.00     0.000 C
ATOM     45   O  GCU B   3      15.720  44.308  12.6570  0.00  0.00     0.000 OA
ATOM     46   O  GCU B   3      16.210  42.196  12.7820  0.00  0.00     0.000 OA
ENDBRANCH 38 44
BRANCH 34 47
ATOM     47  O3  NAG B   4      17.322  41.581  17.3040  0.00  0.00     0.000 O
BRANCH 47 50
ATOM     48  C1  NAG B   4      15.301  38.712  18.5040  0.00  0.00     0.000 C
ATOM     49  C2  NAG B   4      15.761  40.160  18.3750  0.00  0.00     0.000 C
ATOM     50  C3  NAG B   4      16.585  40.374  17.1160  0.00  0.00     0.000 C
ATOM     51  C4  NAG B   4      17.555  39.227  16.8100  0.00  0.00     0.000 C
ATOM     52  C5  NAG B   4      16.814  37.913  16.6270  0.00  0.00     0.000 C
ATOM     53  O5  NAG B   4      15.751  37.697  17.5820  0.00  0.00     0.000 O
BRANCH 49 56
ATOM     54   N  NAG B   4      14.596  40.880  17.8320  0.00  0.00     0.000 N
ATOM     56  HD  NAG B   4      14.470  41.081  16.9990  0.00  0.00     0.000 HD
ATOM     56   C  NAG B   4      12.497  42.098  17.7940  0.00  0.00     0.000 C
ATOM     57   O  NAG B   4      13.663  41.614  19.7710  0.00  0.00     0.000 OA
ATOM     58   C  NAG B   4      13.648  41.511  18.5530  0.00  0.00     0.000 C
ENDBRANCH 49 56
ATOM     59   O  NAG B   4      17.269  35.533  16.1540  0.00  0.00     0.000 O
ATOM     61  HD  NAG B   4      17.144  36.163  16.7360  0.00  0.00     0.000 HD
ATOM     61   O  NAG B   4      17.269  35.533  16.1540  0.00  0.00     0.000 O
ATOM     63  HD  NAG B   4      17.144  36.163  16.7360  0.00  0.00     0.000 HD
ENDBRANCH 47 50
ENDBRANCH 34 47
ENDBRANCH 33 37
ENDBRANCH 17 33
ENDBRANCH 16 19
ENDBRANCH 1 16
TORSDOF 10
ENDMDL
MODEL 10
REMARK VINA RESULT:      -5.4     22.361     27.386
ROOT
ATOM      1  C1  GCU B   1      20.398  22.505  29.9720  0.00  0.00     0.000 C
ATOM      2  C2  GCU B   1      21.088  23.857  29.8880  0.00  0.00     0.000 C
ATOM      3  C3  GCU B   1      20.850  24.492  28.5270  0.00  0.00     0.000 C
ATOM      4  C4  GCU B   1      21.207  23.512  27.4200  0.00  0.00     0.000 C
ATOM      5  C5  GCU B   1      20.511  22.167  27.6300  0.00  0.00     0.000 C
ATOM      6  O5  GCU B   1      20.869  21.649  28.9190  0.00  0.00     0.000 O
ATOM      7   O  GCU B   1      20.561  24.677  30.9260  0.00  0.00     0.000 O
ATOM      9  HD  GCU B   1      21.022  25.112  31.5170  0.00  0.00     0.000 HD
ATOM      9   O  GCU B   1      21.625  25.686  28.3850  0.00  0.00     0.000 O
ATOM     11  HD  GCU B   1      22.085  26.120  28.9760  0.00  0.00     0.000 HD
ATOM     11   O  GCU B   1      20.814  24.069  26.1650  0.00  0.00     0.000 O
ATOM     13  HD  GCU B   1      21.274  24.504  26.7560  0.00  0.00     0.000 HD
ENDROOT
BRANCH 5 13
ATOM     13   C  GCU B   1      20.872  21.220  26.5110  0.00  0.00     0.000 C
ATOM     14   O  GCU B   1      20.389  21.377  25.3710  0.00  0.00     0.000 OA
ATOM     15   O  GCU B   1      21.683  20.310  26.7690  0.00  0.00     0.000 OA
ENDBRANCH 5 13
BRANCH 1 16
ATOM     16  O3  NAG B   2      20.728  21.470  30.7480  0.00  0.00     0.000 O
BRANCH 16 19
ATOM     17  C1  NAG B   2      18.782  19.671  33.4320  0.00  0.00     0.000 C
ATOM     18  C2  NAG B   2      19.415  20.853  32.7100  0.00  0.00     0.000 C
ATOM     19  C3  NAG B   2      19.971  20.412  31.3570  0.00  0.00     0.000 C
ATOM     20  C4  NAG B   2      20.893  19.206  31.5280  0.00  0.00     0.000 C
ATOM     21  C5  NAG B   2      20.155  18.091  32.2550  0.00  0.00     0.000 C
ATOM     22  O5  NAG B   2      19.713  18.581  33.5330  0.00  0.00     0.000 O
ATOM     23   O  NAG B   2      21.327  18.781  30.2310  0.00  0.00     0.000 O
ATOM     25  HD  NAG B   2      21.925  19.126  30.7540  0.00  0.00     0.000 HD
ATOM     25   C  NAG B   2      21.012  16.842  32.4480  0.00  0.00     0.000 C
ATOM     26   O  NAG B   2      22.017  17.040  33.4550  0.00  0.00     0.000 O
ATOM     28  HD  NAG B   2      22.616  17.384  33.9780  0.00  0.00     0.000 HD
BRANCH 18 30
ATOM     28   N  NAG B   2      18.321  21.781  32.9240  0.00  0.00     0.000 N
ATOM     30  HD  NAG B   2      19.022  22.286  32.9830  0.00  0.00     0.000 HD
ATOM     30   C  NAG B   2      18.487  23.065  33.2670  0.00  0.00     0.000 C
ATOM     31   C  NAG B   2      17.252  23.890  33.4970  0.00  0.00     0.000 C
ATOM     32   O  NAG B   2      19.591  23.556  33.3940  0.00  0.00     0.000 OA
ENDBRANCH 18 30
BRANCH 17 33
ATOM     33  O4  GCU B   3      18.312  20.142  34.7110  0.00  0.00     0.000 O
BRANCH 33 37
ATOM     34  C1  GCU B   3      15.100  18.815  37.0040  0.00  0.00     0.000 C
ATOM     35  C2  GCU B   3      16.495  18.314  37.3790  0.00  0.00     0.000 C
ATOM     36  C3  GCU B   3      17.542  19.203  36.7430  0.00  0.00     0.000 C
ATOM     37  C4  GCU B   3      17.308  19.274  35.2400  0.00  0.00     0.000 C
ATOM     38  C5  GCU B   3      15.893  19.786  34.9630  0.00  0.00     0.000 C
ATOM     39  O5  GCU B   3      14.958  18.898  35.5830  0.00  0.00     0.000 O
ATOM     40   O  GCU B   3      16.628  18.334  38.8020  0.00  0.00     0.000 O
ATOM     42  HD  GCU B   3      17.153  18.602  39.4370  0.00  0.00     0.000 HD
ATOM     42   O  GCU B   3      18.869  18.718  37.0150  0.00  0.00     0.000 O
ATOM     44  HD  GCU B   3      19.393  18.987  37.6500  0.00  0.00     0.000 HD
BRANCH 38 44
ATOM     44   C  GCU B   3      15.579  19.859  33.4900  0.00  0.00     0.000 C
ATOM     45   O  GCU B   3      15.444  18.799  32.8590  0.00  0.00     0.000 OA
ATOM     46   O  GCU B   3      15.459  20.969  32.9380  0.00  0.00     0.000 OA
ENDBRANCH 38 44
BRANCH 34 47
ATOM     47  O3  NAG B   4      14.205  17.917  37.3910  0.00  0.00     0.000 O
BRANCH 47 50
ATOM     48  C1  NAG B   4      10.962  16.146  37.7010  0.00  0.00     0.000 C
ATOM     49  C2  NAG B   4      12.450  16.412  37.8980  0.00  0.00     0.000 C
ATOM     50  C3  NAG B   4      12.799  17.865  37.6210  0.00  0.00     0.000 C
ATOM     51  C4  NAG B   4      12.063  18.457  36.4130  0.00  0.00     0.000 C
ATOM     52  C5  NAG B   4      10.556  18.400  36.6030  0.00  0.00     0.000 C
ATOM     53  O5  NAG B   4      10.081  17.161  37.1760  0.00  0.00     0.000 O
BRANCH 49 56
ATOM     54   N  NAG B   4      12.348  16.383  39.3680  0.00  0.00     0.000 N
ATOM     56  HD  NAG B   4      11.710  16.733  39.8370  0.00  0.00     0.000 HD
ATOM     56   C  NAG B   4      12.959  15.950  41.6770  0.00  0.00     0.000 C
ATOM     57   O  NAG B   4      14.438  15.651  39.8810  0.00  0.00     0.000 OA
ATOM     58   C  NAG B   4      13.314  15.990  40.2220  0.00  0.00     0.000 C
ENDBRANCH 49 56
ATOM     59   O  NAG B   4       8.474  18.988  35.4140  0.00  0.00     0.000 O
ATOM     61  HD  NAG B   4       9.079  18.398  35.6010  0.00  0.00     0.000 HD
ATOM     61   O  NAG B   4       8.474  18.988  35.4140  0.00  0.00     0.000 O
ATOM     63  HD  NAG B   4       9.079  18.398  35.6010  0.00  0.00     0.000 HD
ENDBRANCH 47 50
ENDBRANCH 34 47
ENDBRANCH 33 37
ENDBRANCH 17 33
ENDBRANCH 16 19
ENDBRANCH 1 16
TORSDOF 10
ENDMDL
MODEL 11
REMARK VINA RESULT:      -5.3      9.571     17.259
ROOT
ATOM      1  C1  GCU B   1      24.037  41.675  10.0490  0.00  0.00     0.000 C
ATOM      2  C2  GCU B   1      25.352  41.716   9.2870  0.00  0.00     0.000 C
ATOM      3  C3  GCU B   1      25.358  40.674   8.1790  0.00  0.00     0.000 C
ATOM      4  C4  GCU B   1      24.974  39.312   8.7370  0.00  0.00     0.000 C
ATOM      5  C5  GCU B   1      23.672  39.392   9.5350  0.00  0.00     0.000 C
ATOM      6  O5  GCU B   1      23.822  40.359  10.5830  0.00  0.00     0.000 O
ATOM      7   O  GCU B   1      25.499  43.026   8.7480  0.00  0.00     0.000 O
ATOM      9  HD  GCU B   1      26.188  43.542   8.8420  0.00  0.00     0.000 HD
ATOM      9   O  GCU B   1      26.646  40.599   7.5640  0.00  0.00     0.000 O
ATOM     11  HD  GCU B   1      27.335  41.116   7.6580  0.00  0.00     0.000 HD
ATOM     11   O  GCU B   1      24.820  38.396   7.6520  0.00  0.00     0.000 O
ATOM     13  HD  GCU B   1      25.509  38.912   7.7460  0.00  0.00     0.000 HD
ENDROOT
BRANCH 5 13
ATOM     13   C  GCU B   1      23.309  38.025  10.0640  0.00  0.00     0.000 C
ATOM     14   O  GCU B   1      22.186  37.822  10.5710  0.00  0.00     0.000 OA
ATOM     15   O  GCU B   1      24.157  37.120   9.9460  0.00  0.00     0.000 OA
ENDBRANCH 5 13
BRANCH 1 16
ATOM     16  O3  NAG B   2      23.815  42.053  11.3100  0.00  0.00     0.000 O
BRANCH 16 19
ATOM     17  C1  NAG B   2      20.835  43.909  12.6890  0.00  0.00     0.000 C
ATOM     18  C2  NAG B   2      21.983  43.608  11.7340  0.00  0.00     0.000 C
ATOM     19  C3  NAG B   2      22.623  42.265  12.0820  0.00  0.00     0.000 C
ATOM     20  C4  NAG B   2      23.001  42.223  13.5620  0.00  0.00     0.000 C
ATOM     21  C5  NAG B   2      21.780  42.534  14.4150  0.00  0.00     0.000 C
ATOM     22  O5  NAG B   2      21.277  43.833  14.0530  0.00  0.00     0.000 O
ATOM     23   O  NAG B   2      23.523  40.923  13.8580  0.00  0.00     0.000 O
ATOM     25  HD  NAG B   2      24.078  41.588  13.8870  0.00  0.00     0.000 HD
ATOM     25   C  NAG B   2      22.080  42.495  15.9120  0.00  0.00     0.000 C
ATOM     26   O  NAG B   2      22.850  43.633  16.3290  0.00  0.00     0.000 O
ATOM     28  HD  NAG B   2      23.405  44.297  16.3580  0.00  0.00     0.000 HD
BRANCH 18 30
ATOM     28   N  NAG B   2      21.236  44.057  10.5740  0.00  0.00     0.000 N
ATOM     30  HD  NAG B   2      22.060  44.157  10.3290  0.00  0.00     0.000 HD
ATOM     30   C  NAG B   2      21.798  44.610   9.4930  0.00  0.00     0.000 C
ATOM     31   C  NAG B   2      20.885  45.067   8.3890  0.00  0.00     0.000 C
ATOM     32   O  NAG B   2      23.001  44.747   9.3950  0.00  0.00     0.000 OA
ENDBRANCH 18 30
BRANCH 17 33
ATOM     33  O4  GCU B   3      20.299  45.200  12.3320  0.00  0.00     0.000 O
BRANCH 33 37
ATOM     34  C1  GCU B   3      16.841  47.153  13.5800  0.00  0.00     0.000 C
ATOM     35  C2  GCU B   3      18.074  47.248  14.4790  0.00  0.00     0.000 C
ATOM     36  C3  GCU B   3      19.308  46.865  13.6910  0.00  0.00     0.000 C
ATOM     37  C4  GCU B   3      19.113  45.486  13.0750  0.00  0.00     0.000 C
ATOM     38  C5  GCU B   3      17.863  45.488  12.1940  0.00  0.00     0.000 C
ATOM     39  O5  GCU B   3      16.737  45.849  13.0010  0.00  0.00     0.000 O
ATOM     40   O  GCU B   3      18.192  48.588  14.9620  0.00  0.00     0.000 O
ATOM     42  HD  GCU B   3      18.758  49.238  15.0460  0.00  0.00     0.000 HD
ATOM     42   O  GCU B   3      20.480  46.873  14.5260  0.00  0.00     0.000 O
ATOM     44  HD  GCU B   3      21.046  47.524  14.6090  0.00  0.00     0.000 HD
BRANCH 38 44
ATOM     44   C  GCU B   3      17.591  44.143  11.5680  0.00  0.00     0.000 C
ATOM     45   O  GCU B   3      17.948  43.950  10.3960  0.00  0.00     0.000 OA
ATOM     46   O  GCU B   3      17.021  43.256  12.2320  0.00  0.00     0.000 OA
ENDBRANCH 38 44
BRANCH 34 47
ATOM     47  O3  NAG B   4      15.755  47.288  14.3280  0.00  0.00     0.000 O
BRANCH 47 50
ATOM     48  C1  NAG B   4      12.332  46.462  15.4940  0.00  0.00     0.000 C
ATOM     49  C2  NAG B   4      13.420  46.973  14.5540  0.00  0.00     0.000 C
ATOM     50  C3  NAG B   4      14.789  46.438  14.9430  0.00  0.00     0.000 C
ATOM     51  C4  NAG B   4      15.031  46.402  16.4560  0.00  0.00     0.000 C
ATOM     52  C5  NAG B   4      14.007  45.525  17.1580  0.00  0.00     0.000 C
ATOM     53  O5  NAG B   4      12.657  45.688  16.6670  0.00  0.00     0.000 O
BRANCH 49 56
ATOM     54   N  NAG B   4      13.057  46.057  13.4590  0.00  0.00     0.000 N
ATOM     56  HD  NAG B   4      12.909  45.207  13.5380  0.00  0.00     0.000 HD
ATOM     56   C  NAG B   4      12.586  45.290  11.2040  0.00  0.00     0.000 C
ATOM     57   O  NAG B   4      13.487  47.403  11.6790  0.00  0.00     0.000 OA
ATOM     58   C  NAG B   4      13.092  46.343  12.1420  0.00  0.00     0.000 C
ENDBRANCH 49 56
ATOM     59   O  NAG B   4      13.402  44.766  19.4280  0.00  0.00     0.000 O
ATOM     61  HD  NAG B   4      13.296  45.335  18.7840  0.00  0.00     0.000 HD
ATOM     61   O  NAG B   4      13.402  44.766  19.4280  0.00  0.00     0.000 O
ATOM     63  HD  NAG B   4      13.296  45.335  18.7840  0.00  0.00     0.000 HD
ENDBRANCH 47 50
ENDBRANCH 34 47
ENDBRANCH 33 37
ENDBRANCH 17 33
ENDBRANCH 16 19
ENDBRANCH 1 16
TORSDOF 10
ENDMDL
MODEL 12
REMARK VINA RESULT:      -5.2     22.531     27.570
ROOT
ATOM      1  C1  GCU B   1      19.095  23.262  30.5250  0.00  0.00     0.000 C
ATOM      2  C2  GCU B   1      19.336  24.757  30.6620  0.00  0.00     0.000 C
ATOM      3  C3  GCU B   1      19.206  25.443  29.3110  0.00  0.00     0.000 C
ATOM      4  C4  GCU B   1      20.074  24.739  28.2790  0.00  0.00     0.000 C
ATOM      5  C5  GCU B   1      19.798  23.234  28.2640  0.00  0.00     0.000 C
ATOM      6  O5  GCU B   1      20.019  22.703  29.5770  0.00  0.00     0.000 O
ATOM      7   O  GCU B   1      18.376  25.268  31.5810  0.00  0.00     0.000 O
ATOM      9  HD  GCU B   1      18.544  25.749  32.2810  0.00  0.00     0.000 HD
ATOM      9   O  GCU B   1      19.587  26.818  29.4050  0.00  0.00     0.000 O
ATOM     11  HD  GCU B   1      19.755  27.299  30.1050  0.00  0.00     0.000 HD
ATOM     11   O  GCU B   1      19.801  25.293  26.9910  0.00  0.00     0.000 O
ATOM     13  HD  GCU B   1      19.970  25.774  27.6910  0.00  0.00     0.000 HD
ENDROOT
BRANCH 5 13
ATOM     13   C  GCU B   1      20.662  22.564  27.2220  0.00  0.00     0.000 C
ATOM     14   O  GCU B   1      20.431  22.734  26.0070  0.00  0.00     0.000 OA
ATOM     15   O  GCU B   1      21.615  21.870  27.6260  0.00  0.00     0.000 OA
ENDBRANCH 5 13
BRANCH 1 16
ATOM     16  O3  NAG B   2      19.557  22.288  31.3130  0.00  0.00     0.000 O
BRANCH 16 19
ATOM     17  C1  NAG B   2      18.238  19.858  33.8780  0.00  0.00     0.000 C
ATOM     18  C2  NAG B   2      18.663  21.205  33.3080  0.00  0.00     0.000 C
ATOM     19  C3  NAG B   2      18.983  21.073  31.8200  0.00  0.00     0.000 C
ATOM     20  C4  NAG B   2      19.985  19.942  31.5900  0.00  0.00     0.000 C
ATOM     21  C5  NAG B   2      19.453  18.651  32.1960  0.00  0.00     0.000 C
ATOM     22  O5  NAG B   2      19.228  18.855  33.6020  0.00  0.00     0.000 O
ATOM     23   O  NAG B   2      20.195  19.805  30.1800  0.00  0.00     0.000 O
ATOM     25  HD  NAG B   2      20.859  20.098  30.6520  0.00  0.00     0.000 HD
ATOM     25   C  NAG B   2      20.398  17.469  31.9900  0.00  0.00     0.000 C
ATOM     26   O  NAG B   2      21.559  17.565  32.8300  0.00  0.00     0.000 O
ATOM     28  HD  NAG B   2      22.223  17.858  33.3010  0.00  0.00     0.000 HD
BRANCH 18 30
ATOM     28   N  NAG B   2      17.570  22.012  33.8170  0.00  0.00     0.000 N
ATOM     30  HD  NAG B   2      18.262  22.517  33.9410  0.00  0.00     0.000 HD
ATOM     30   C  NAG B   2      17.735  23.185  34.4410  0.00  0.00     0.000 C
ATOM     31   C  NAG B   2      16.506  23.882  34.9520  0.00  0.00     0.000 C
ATOM     32   O  NAG B   2      18.835  23.677  34.5980  0.00  0.00     0.000 OA
ENDBRANCH 18 30
BRANCH 17 33
ATOM     33  O4  GCU B   3      17.985  20.041  35.2860  0.00  0.00     0.000 O
BRANCH 33 37
ATOM     34  C1  GCU B   3      15.627  17.874  37.9460  0.00  0.00     0.000 C
ATOM     35  C2  GCU B   3      16.948  17.249  37.4980  0.00  0.00     0.000 C
ATOM     36  C3  GCU B   3      17.839  18.319  36.9030  0.00  0.00     0.000 C
ATOM     37  C4  GCU B   3      17.099  19.037  35.7830  0.00  0.00     0.000 C
ATOM     38  C5  GCU B   3      15.796  19.629  36.3240  0.00  0.00     0.000 C
ATOM     39  O5  GCU B   3      15.002  18.567  36.8620  0.00  0.00     0.000 O
ATOM     40   O  GCU B   3      17.584  16.649  38.6290  0.00  0.00     0.000 O
ATOM     42  HD  GCU B   3      18.340  16.611  39.0490  0.00  0.00     0.000 HD
ATOM     42   O  GCU B   3      19.065  17.754  36.4040  0.00  0.00     0.000 O
ATOM     44  HD  GCU B   3      19.821  17.716  36.8240  0.00  0.00     0.000 HD
BRANCH 38 44
ATOM     44   C  GCU B   3      14.994  20.337  35.2610  0.00  0.00     0.000 C
ATOM     45   O  GCU B   3      14.396  21.381  35.5650  0.00  0.00     0.000 OA
ATOM     46   O  GCU B   3      14.947  19.868  34.1080  0.00  0.00     0.000 OA
ENDBRANCH 38 44
BRANCH 34 47
ATOM     47  O3  NAG B   4      14.784  16.904  38.2700  0.00  0.00     0.000 O
BRANCH 47 50
ATOM     48  C1  NAG B   4      11.596  15.047  37.8890  0.00  0.00     0.000 C
ATOM     49  C2  NAG B   4      12.517  16.229  38.1710  0.00  0.00     0.000 C
ATOM     50  C3  NAG B   4      13.906  16.004  37.5960  0.00  0.00     0.000 C
ATOM     51  C4  NAG B   4      14.419  14.569  37.7650  0.00  0.00     0.000 C
ATOM     52  C5  NAG B   4      13.499  13.571  37.0820  0.00  0.00     0.000 C
ATOM     53  O5  NAG B   4      12.092  13.839  37.2730  0.00  0.00     0.000 O
BRANCH 49 56
ATOM     54   N  NAG B   4      11.949  17.096  37.1240  0.00  0.00     0.000 N
ATOM     56  HD  NAG B   4      11.859  16.887  36.2880  0.00  0.00     0.000 HD
ATOM     56   C  NAG B   4      11.003  19.074  36.0820  0.00  0.00     0.000 C
ATOM     57   O  NAG B   4      11.901  19.071  38.2490  0.00  0.00     0.000 OA
ATOM     58   C  NAG B   4      11.667  18.409  37.2480  0.00  0.00     0.000 C
ENDBRANCH 49 56
ATOM     59   O  NAG B   4      13.284  11.139  36.7140  0.00  0.00     0.000 O
ATOM     61  HD  NAG B   4      13.090  11.837  37.1890  0.00  0.00     0.000 HD
ATOM     61   O  NAG B   4      13.284  11.139  36.7140  0.00  0.00     0.000 O
ATOM     63  HD  NAG B   4      13.090  11.837  37.1890  0.00  0.00     0.000 HD
ENDBRANCH 47 50
ENDBRANCH 34 47
ENDBRANCH 33 37
ENDBRANCH 17 33
ENDBRANCH 16 19
ENDBRANCH 1 16
TORSDOF 10
ENDMDL
MODEL 13
REMARK VINA RESULT:      -5.1     10.889     18.012
ROOT
ATOM      1  C1  GCU B   1      23.878  38.628  13.0200  0.00  0.00     0.000 C
ATOM      2  C2  GCU B   1      24.399  40.056  12.9690  0.00  0.00     0.000 C
ATOM      3  C3  GCU B   1      23.840  40.784  11.7560  0.00  0.00     0.000 C
ATOM      4  C4  GCU B   1      24.075  39.963  10.4970  0.00  0.00     0.000 C
ATOM      5  C5  GCU B   1      23.571  38.530  10.6740  0.00  0.00     0.000 C
ATOM      6  O5  GCU B   1      24.221  37.939  11.8070  0.00  0.00     0.000 O
ATOM      7   O  GCU B   1      24.002  40.705  14.1730  0.00  0.00     0.000 O
ATOM      9  HD  GCU B   1      24.522  41.134  14.7170  0.00  0.00     0.000 HD
ATOM      9   O  GCU B   1      24.449  42.070  11.6150  0.00  0.00     0.000 O
ATOM     11  HD  GCU B   1      24.969  42.499  12.1590  0.00  0.00     0.000 HD
ATOM     11   O  GCU B   1      23.393  40.585   9.4070  0.00  0.00     0.000 O
ATOM     13  HD  GCU B   1      23.912  41.014   9.9520  0.00  0.00     0.000 HD
ENDROOT
BRANCH 5 13
ATOM     13   C  GCU B   1      23.803  37.743   9.4060  0.00  0.00     0.000 C
ATOM     14   O  GCU B   1      23.014  37.849   8.4440  0.00  0.00     0.000 OA
ATOM     15   O  GCU B   1      24.817  37.021   9.3560  0.00  0.00     0.000 OA
ENDBRANCH 5 13
BRANCH 1 16
ATOM     16  O3  NAG B   2      24.453  37.572  13.5980  0.00  0.00     0.000 O
BRANCH 16 19
ATOM     17  C1  NAG B   2      22.930  34.968  15.8630  0.00  0.00     0.000 C
ATOM     18  C2  NAG B   2      23.267  36.365  15.3560  0.00  0.00     0.000 C
ATOM     19  C3  NAG B   2      23.969  36.282  14.0020  0.00  0.00     0.000 C
ATOM     20  C4  NAG B   2      25.162  35.329  14.0780  0.00  0.00     0.000 C
ATOM     21  C5  NAG B   2      24.705  33.971  14.5910  0.00  0.00     0.000 C
ATOM     22  O5  NAG B   2      24.104  34.141  15.8870  0.00  0.00     0.000 O
ATOM     23   O  NAG B   2      25.740  35.224  12.7720  0.00  0.00     0.000 O
ATOM     25  HD  NAG B   2      26.209  35.624  13.3800  0.00  0.00     0.000 HD
ATOM     25   C  NAG B   2      25.846  32.959  14.6790  0.00  0.00     0.000 C
ATOM     26   O  NAG B   2      26.727  33.247  15.7750  0.00  0.00     0.000 O
ATOM     28  HD  NAG B   2      27.196  33.647  16.3840  0.00  0.00     0.000 HD
BRANCH 18 30
ATOM     28   N  NAG B   2      21.969  36.920  15.6890  0.00  0.00     0.000 N
ATOM     30  HD  NAG B   2      22.500  37.600  15.7640  0.00  0.00     0.000 HD
ATOM     30   C  NAG B   2      21.783  38.169  16.1330  0.00  0.00     0.000 C
ATOM     31   C  NAG B   2      20.381  38.584  16.4790  0.00  0.00     0.000 C
ATOM     32   O  NAG B   2      22.707  38.948  16.2590  0.00  0.00     0.000 OA
ENDBRANCH 18 30
BRANCH 17 33
ATOM     33  O4  GCU B   3      22.305  35.112  17.1540  0.00  0.00     0.000 O
BRANCH 33 37
ATOM     34  C1  GCU B   3      19.934  32.463  19.3190  0.00  0.00     0.000 C
ATOM     35  C2  GCU B   3      21.447  32.399  19.5330  0.00  0.00     0.000 C
ATOM     36  C3  GCU B   3      22.085  33.671  19.0180  0.00  0.00     0.000 C
ATOM     37  C4  GCU B   3      21.689  33.891  17.5650  0.00  0.00     0.000 C
ATOM     38  C5  GCU B   3      20.164  33.943  17.4500  0.00  0.00     0.000 C
ATOM     39  O5  GCU B   3      19.627  32.712  17.9440  0.00  0.00     0.000 O
ATOM     40   O  GCU B   3      21.711  32.243  20.9290  0.00  0.00     0.000 O
ATOM     42  HD  GCU B   3      22.185  32.568  21.5770  0.00  0.00     0.000 HD
ATOM     42   O  GCU B   3      23.518  33.616  19.1370  0.00  0.00     0.000 O
ATOM     44  HD  GCU B   3      23.992  33.941  19.7850  0.00  0.00     0.000 HD
BRANCH 38 44
ATOM     44   C  GCU B   3      19.694  34.134  16.0300  0.00  0.00     0.000 C
ATOM     45   O  GCU B   3      19.350  35.269  15.6660  0.00  0.00     0.000 OA
ATOM     46   O  GCU B   3      19.662  33.160  15.2530  0.00  0.00     0.000 OA
ENDBRANCH 38 44
BRANCH 34 47
ATOM     47  O3  NAG B   4      19.415  31.271  19.5800  0.00  0.00     0.000 O
BRANCH 47 50
ATOM     48  C1  NAG B   4      16.133  31.133  21.3020  0.00  0.00     0.000 C
ATOM     49  C2  NAG B   4      17.331  31.755  20.5930  0.00  0.00     0.000 C
ATOM     50  C3  NAG B   4      18.123  30.715  19.8170  0.00  0.00     0.000 C
ATOM     51  C4  NAG B   4      18.270  29.377  20.5510  0.00  0.00     0.000 C
ATOM     52  C5  NAG B   4      16.914  28.759  20.8470  0.00  0.00     0.000 C
ATOM     53  O5  NAG B   4      15.923  29.705  21.3060  0.00  0.00     0.000 O
BRANCH 49 56
ATOM     54   N  NAG B   4      16.647  32.332  19.4230  0.00  0.00     0.000 N
ATOM     56  HD  NAG B   4      16.339  31.887  18.7470  0.00  0.00     0.000 HD
ATOM     56   C  NAG B   4      15.735  34.013  17.9280  0.00  0.00     0.000 C
ATOM     57   O  NAG B   4      17.106  34.533  19.7590  0.00  0.00     0.000 OA
ATOM     58   C  NAG B   4      16.566  33.643  19.1190  0.00  0.00     0.000 C
ENDBRANCH 49 56
ATOM     59   O  NAG B   4      15.937  26.766  21.9280  0.00  0.00     0.000 O
ATOM     61  HD  NAG B   4      16.196  27.591  21.9890  0.00  0.00     0.000 HD
ATOM     61   O  NAG B   4      15.937  26.766  21.9280  0.00  0.00     0.000 O
ATOM     63  HD  NAG B   4      16.196  27.591  21.9890  0.00  0.00     0.000 HD
ENDBRANCH 47 50
ENDBRANCH 34 47
ENDBRANCH 33 37
ENDBRANCH 17 33
ENDBRANCH 16 19
ENDBRANCH 1 16
TORSDOF 10
ENDMDL
MODEL 14
REMARK VINA RESULT:      -5.1     16.469     19.386
ROOT
ATOM      1  C1  GCU B   1      11.718  55.168   8.2790  0.00  0.00     0.000 C
ATOM      2  C2  GCU B   1      11.672  56.601   8.7860  0.00  0.00     0.000 C
ATOM      3  C3  GCU B   1      10.335  56.887   9.4520  0.00  0.00     0.000 C
ATOM      4  C4  GCU B   1       9.192  56.488   8.5310  0.00  0.00     0.000 C
ATOM      5  C5  GCU B   1       9.365  55.053   8.0300  0.00  0.00     0.000 C
ATOM      6  O5  GCU B   1      10.632  54.937   7.3670  0.00  0.00     0.000 O
ATOM      7   O  GCU B   1      12.742  56.768   9.7100  0.00  0.00     0.000 O
ATOM      9  HD  GCU B   1      13.342  57.392   9.6890  0.00  0.00     0.000 HD
ATOM      9   O  GCU B   1      10.225  58.273   9.7880  0.00  0.00     0.000 O
ATOM     11  HD  GCU B   1      10.825  58.896   9.7670  0.00  0.00     0.000 HD
ATOM     11   O  GCU B   1       7.961  56.606   9.2450  0.00  0.00     0.000 O
ATOM     13  HD  GCU B   1       8.561  57.230   9.2240  0.00  0.00     0.000 HD
ENDROOT
BRANCH 5 13
ATOM     13   C  GCU B   1       8.211  54.681   7.1300  0.00  0.00     0.000 C
ATOM     14   O  GCU B   1       8.180  55.077   5.9470  0.00  0.00     0.000 OA
ATOM     15   O  GCU B   1       7.324  53.949   7.6080  0.00  0.00     0.000 OA
ENDBRANCH 5 13
BRANCH 1 16
ATOM     16  O3  NAG B   2      12.455  54.683   7.2780  0.00  0.00     0.000 O
BRANCH 16 19
ATOM     17  C1  NAG B   2      14.993  51.904   7.5320  0.00  0.00     0.000 C
ATOM     18  C2  NAG B   2      14.253  53.172   7.9400  0.00  0.00     0.000 C
ATOM     19  C3  NAG B   2      13.053  53.402   7.0230  0.00  0.00     0.000 C
ATOM     20  C4  NAG B   2      13.488  53.364   5.5580  0.00  0.00     0.000 C
ATOM     21  C5  NAG B   2      14.209  52.055   5.2680  0.00  0.00     0.000 C
ATOM     22  O5  NAG B   2      15.348  51.948   6.1410  0.00  0.00     0.000 O
ATOM     23   O  NAG B   2      12.322  53.506   4.7380  0.00  0.00     0.000 O
ATOM     25  HD  NAG B   2      12.890  54.161   4.7350  0.00  0.00     0.000 HD
ATOM     25   C  NAG B   2      14.660  51.939   3.8140  0.00  0.00     0.000 C
ATOM     26   O  NAG B   2      15.779  52.795   3.5350  0.00  0.00     0.000 O
ATOM     28  HD  NAG B   2      16.346  53.449   3.5320  0.00  0.00     0.000 HD
BRANCH 18 30
ATOM     28   N  NAG B   2      14.146  52.898   9.3600  0.00  0.00     0.000 N
ATOM     30  HD  NAG B   2      14.328  53.744   9.3350  0.00  0.00     0.000 HD
ATOM     30   C  NAG B   2      14.427  53.792  10.3160  0.00  0.00     0.000 C
ATOM     31   C  NAG B   2      14.311  53.344  11.7460  0.00  0.00     0.000 C
ATOM     32   O  NAG B   2      14.766  54.928  10.0500  0.00  0.00     0.000 OA
ENDBRANCH 18 30
BRANCH 17 33
ATOM     33  O4  GCU B   3      16.129  51.762   8.4080  0.00  0.00     0.000 O
BRANCH 33 37
ATOM     34  C1  GCU B   3      18.490  48.441   9.2600  0.00  0.00     0.000 C
ATOM     35  C2  GCU B   3      18.901  49.319   8.0770  0.00  0.00     0.000 C
ATOM     36  C3  GCU B   3      18.213  50.664   8.1820  0.00  0.00     0.000 C
ATOM     37  C4  GCU B   3      16.709  50.462   8.2910  0.00  0.00     0.000 C
ATOM     38  C5  GCU B   3      16.395  49.576   9.4990  0.00  0.00     0.000 C
ATOM     39  O5  GCU B   3      17.067  48.324   9.3330  0.00  0.00     0.000 O
ATOM     40   O  GCU B   3      20.320  49.487   8.0950  0.00  0.00     0.000 O
ATOM     42  HD  GCU B   3      20.939  50.091   8.0530  0.00  0.00     0.000 HD
ATOM     42   O  GCU B   3      18.520  51.492   7.0460  0.00  0.00     0.000 O
ATOM     44  HD  GCU B   3      19.139  52.096   7.0030  0.00  0.00     0.000 HD
BRANCH 38 44
ATOM     44   C  GCU B   3      14.919  49.310   9.6580  0.00  0.00     0.000 C
ATOM     45   O  GCU B   3      14.381  48.483   8.9060  0.00  0.00     0.000 OA
ATOM     46   O  GCU B   3      14.273  49.916  10.5340  0.00  0.00     0.000 OA
ENDBRANCH 38 44
BRANCH 34 47
ATOM     47  O3  NAG B   4      18.930  47.208   9.0490  0.00  0.00     0.000 O
BRANCH 47 50
ATOM     48  C1  NAG B   4      22.182  45.796  10.1390  0.00  0.00     0.000 C
ATOM     49  C2  NAG B   4      21.125  46.861   9.8650  0.00  0.00     0.000 C
ATOM     50  C3  NAG B   4      19.740  46.250   9.7280  0.00  0.00     0.000 C
ATOM     51  C4  NAG B   4      19.722  44.927   8.9520  0.00  0.00     0.000 C
ATOM     52  C5  NAG B   4      20.594  43.881   9.6270  0.00  0.00     0.000 C
ATOM     53  O5  NAG B   4      21.854  44.390  10.1160  0.00  0.00     0.000 O
BRANCH 49 56
ATOM     54   N  NAG B   4      20.974  47.355  11.2440  0.00  0.00     0.000 N
ATOM     56  HD  NAG B   4      20.650  46.905  11.9100  0.00  0.00     0.000 HD
ATOM     56   C  NAG B   4      21.020  48.894  13.1210  0.00  0.00     0.000 C
ATOM     57   O  NAG B   4      21.360  49.568  10.9010  0.00  0.00     0.000 OA
ATOM     58   C  NAG B   4      21.126  48.631  11.6500  0.00  0.00     0.000 C
ENDBRANCH 49 56
ATOM     59   O  NAG B   4      21.323  41.542   9.3230  0.00  0.00     0.000 O
ATOM     61  HD  NAG B   4      21.469  42.387   9.1960  0.00  0.00     0.000 HD
ATOM     61   O  NAG B   4      21.323  41.542   9.3230  0.00  0.00     0.000 O
ATOM     63  HD  NAG B   4      21.469  42.387   9.1960  0.00  0.00     0.000 HD
ENDBRANCH 47 50
ENDBRANCH 34 47
ENDBRANCH 33 37
ENDBRANCH 17 33
ENDBRANCH 16 19
ENDBRANCH 1 16
TORSDOF 10
ENDMDL
MODEL 15
REMARK VINA RESULT:      -5.0     15.219     19.076
ROOT
ATOM      1  C1  GCU B   1      11.887  55.159   8.2630  0.00  0.00     0.000 C
ATOM      2  C2  GCU B   1      11.922  56.647   8.5730  0.00  0.00     0.000 C
ATOM      3  C3  GCU B   1      10.619  57.085   9.2240  0.00  0.00     0.000 C
ATOM      4  C4  GCU B   1       9.434  56.625   8.3890  0.00  0.00     0.000 C
ATOM      5  C5  GCU B   1       9.526  55.129   8.0820  0.00  0.00     0.000 C
ATOM      6  O5  GCU B   1      10.767  54.862   7.4150  0.00  0.00     0.000 O
ATOM      7   O  GCU B   1      13.025  56.882   9.4430  0.00  0.00     0.000 O
ATOM      9  HD  GCU B   1      13.652  57.467   9.3260  0.00  0.00     0.000 HD
ATOM      9   O  GCU B   1      10.583  58.507   9.3720  0.00  0.00     0.000 O
ATOM     11  HD  GCU B   1      11.211  59.092   9.2540  0.00  0.00     0.000 HD
ATOM     11   O  GCU B   1       8.230  56.897   9.1070  0.00  0.00     0.000 O
ATOM     13  HD  GCU B   1       8.858  57.482   8.9900  0.00  0.00     0.000 HD
ENDROOT
BRANCH 5 13
ATOM     13   C  GCU B   1       8.331  54.698   7.2660  0.00  0.00     0.000 C
ATOM     14   O  GCU B   1       8.213  55.064   6.0780  0.00  0.00     0.000 OA
ATOM     15   O  GCU B   1       7.501  53.949   7.8160  0.00  0.00     0.000 OA
ENDBRANCH 5 13
BRANCH 1 16
ATOM     16  O3  NAG B   2      12.573  54.508   7.3200  0.00  0.00     0.000 O
BRANCH 16 19
ATOM     17  C1  NAG B   2      14.813  51.548   7.9870  0.00  0.00     0.000 C
ATOM     18  C2  NAG B   2      14.166  52.903   8.2380  0.00  0.00     0.000 C
ATOM     19  C3  NAG B   2      13.067  53.164   7.2090  0.00  0.00     0.000 C
ATOM     20  C4  NAG B   2      13.607  52.972   5.7930  0.00  0.00     0.000 C
ATOM     21  C5  NAG B   2      14.223  51.587   5.6600  0.00  0.00     0.000 C
ATOM     22  O5  NAG B   2      15.277  51.450   6.6300  0.00  0.00     0.000 O
ATOM     23   O  NAG B   2      12.527  53.150   4.8700  0.00  0.00     0.000 O
ATOM     25  HD  NAG B   2      13.151  53.750   4.8670  0.00  0.00     0.000 HD
ATOM     25   C  NAG B   2      14.772  51.316   4.2600  0.00  0.00     0.000 C
ATOM     26   O  NAG B   2      15.984  52.046   4.0150  0.00  0.00     0.000 O
ATOM     28  HD  NAG B   2      16.608  52.646   4.0130  0.00  0.00     0.000 HD
BRANCH 18 30
ATOM     28   N  NAG B   2      13.928  52.752   9.6610  0.00  0.00     0.000 N
ATOM     30  HD  NAG B   2      14.185  53.576   9.5900  0.00  0.00     0.000 HD
ATOM     30   C  NAG B   2      14.214  53.693  10.5690  0.00  0.00     0.000 C
ATOM     31   C  NAG B   2      13.951  53.370  12.0130  0.00  0.00     0.000 C
ATOM     32   O  NAG B   2      14.673  54.772  10.2510  0.00  0.00     0.000 OA
ENDBRANCH 18 30
BRANCH 17 33
ATOM     33  O4  GCU B   3      15.861  51.377   8.9620  0.00  0.00     0.000 O
BRANCH 33 37
ATOM     34  C1  GCU B   3      17.941  47.975  10.1590  0.00  0.00     0.000 C
ATOM     35  C2  GCU B   3      18.430  48.702   8.9060  0.00  0.00     0.000 C
ATOM     36  C3  GCU B   3      17.852  50.101   8.8730  0.00  0.00     0.000 C
ATOM     37  C4  GCU B   3      16.335  50.030   8.9770  0.00  0.00     0.000 C
ATOM     38  C5  GCU B   3      15.941  49.290  10.2570  0.00  0.00     0.000 C
ATOM     39  O5  GCU B   3      16.511  47.978  10.2190  0.00  0.00     0.000 O
ATOM     40   O  GCU B   3      19.858  48.758   8.9310  0.00  0.00     0.000 O
ATOM     42  HD  GCU B   3      20.524  49.305   8.8420  0.00  0.00     0.000 HD
ATOM     42   O  GCU B   3      18.234  50.791   7.6700  0.00  0.00     0.000 O
ATOM     44  HD  GCU B   3      18.899  51.338   7.5810  0.00  0.00     0.000 HD
BRANCH 38 44
ATOM     44   C  GCU B   3      14.447  49.158  10.4160  0.00  0.00     0.000 C
ATOM     45   O  GCU B   3      13.848  48.322   9.7230  0.00  0.00     0.000 OA
ATOM     46   O  GCU B   3      13.847  49.880  11.2350  0.00  0.00     0.000 OA
ENDBRANCH 38 44
BRANCH 34 47
ATOM     47  O3  NAG B   4      18.281  46.697  10.0710  0.00  0.00     0.000 O
BRANCH 47 50
ATOM     48  C1  NAG B   4      20.240  43.547  10.0650  0.00  0.00     0.000 C
ATOM     49  C2  NAG B   4      19.470  44.733   9.4930  0.00  0.00     0.000 C
ATOM     50  C3  NAG B   4      19.355  45.863  10.5040  0.00  0.00     0.000 C
ATOM     51  C4  NAG B   4      19.083  45.384  11.9350  0.00  0.00     0.000 C
ATOM     52  C5  NAG B   4      20.191  44.470  12.4300  0.00  0.00     0.000 C
ATOM     53  O5  NAG B   4      20.651  43.515  11.4480  0.00  0.00     0.000 O
BRANCH 49 56
ATOM     54   N  NAG B   4      20.595  45.211   8.6690  0.00  0.00     0.000 N
ATOM     56  HD  NAG B   4      21.410  45.320   8.9400  0.00  0.00     0.000 HD
ATOM     56   C  NAG B   4      21.787  46.072   6.7380  0.00  0.00     0.000 C
ATOM     57   O  NAG B   4      19.448  45.946   6.8490  0.00  0.00     0.000 OA
ATOM     58   C  NAG B   4      20.502  45.741   7.4330  0.00  0.00     0.000 C
ENDBRANCH 49 56
ATOM     59   O  NAG B   4      20.810  43.154  14.4250  0.00  0.00     0.000 O
ATOM     61  HD  NAG B   4      20.425  43.189  13.6510  0.00  0.00     0.000 HD
ATOM     61   O  NAG B   4      20.810  43.154  14.4250  0.00  0.00     0.000 O
ATOM     63  HD  NAG B   4      20.425  43.189  13.6510  0.00  0.00     0.000 HD
ENDBRANCH 47 50
ENDBRANCH 34 47
ENDBRANCH 33 37
ENDBRANCH 17 33
ENDBRANCH 16 19
ENDBRANCH 1 16
TORSDOF 10
ENDMDL
MODEL 16
REMARK VINA RESULT:      -5.0     22.291     27.384
ROOT
ATOM      1  C1  GCU B   1      19.399  23.391  30.1390  0.00  0.00     0.000 C
ATOM      2  C2  GCU B   1      19.676  24.880  30.2740  0.00  0.00     0.000 C
ATOM      3  C3  GCU B   1      19.446  25.586  28.9470  0.00  0.00     0.000 C
ATOM      4  C4  GCU B   1      20.212  24.883  27.8370  0.00  0.00     0.000 C
ATOM      5  C5  GCU B   1      19.910  23.383  27.8260  0.00  0.00     0.000 C
ATOM      6  O5  GCU B   1      20.230  22.830  29.1100  0.00  0.00     0.000 O
ATOM      7   O  GCU B   1      18.804  25.393  31.2760  0.00  0.00     0.000 O
ATOM      9  HD  GCU B   1      19.038  25.862  31.9660  0.00  0.00     0.000 HD
ATOM      9   O  GCU B   1      19.856  26.954  29.0260  0.00  0.00     0.000 O
ATOM     11  HD  GCU B   1      20.090  27.422  29.7150  0.00  0.00     0.000 HD
ATOM     11   O  GCU B   1      19.842  25.459  26.5840  0.00  0.00     0.000 O
ATOM     13  HD  GCU B   1      20.077  25.928  27.2740  0.00  0.00     0.000 HD
ENDROOT
BRANCH 5 13
ATOM     13   C  GCU B   1      20.672  22.714  26.7080  0.00  0.00     0.000 C
ATOM     14   O  GCU B   1      21.588  23.322  26.1160  0.00  0.00     0.000 OA
ATOM     15   O  GCU B   1      20.368  21.538  26.4290  0.00  0.00     0.000 OA
ENDBRANCH 5 13
BRANCH 1 16
ATOM     16  O3  NAG B   2      19.908  22.399  30.8730  0.00  0.00     0.000 O
BRANCH 16 19
ATOM     17  C1  NAG B   2      18.675  19.933  33.4470  0.00  0.00     0.000 C
ATOM     18  C2  NAG B   2      19.064  21.291  32.8760  0.00  0.00     0.000 C
ATOM     19  C3  NAG B   2      19.367  21.171  31.3840  0.00  0.00     0.000 C
ATOM     20  C4  NAG B   2      20.389  20.062  31.1360  0.00  0.00     0.000 C
ATOM     21  C5  NAG B   2      19.893  18.758  31.7450  0.00  0.00     0.000 C
ATOM     22  O5  NAG B   2      19.683  18.952  33.1550  0.00  0.00     0.000 O
ATOM     23   O  NAG B   2      20.583  19.934  29.7230  0.00  0.00     0.000 O
ATOM     25  HD  NAG B   2      21.248  20.239  30.1870  0.00  0.00     0.000 HD
ATOM     25   C  NAG B   2      20.860  17.597  31.5220  0.00  0.00     0.000 C
ATOM     26   O  NAG B   2      22.029  17.714  32.3470  0.00  0.00     0.000 O
ATOM     28  HD  NAG B   2      22.694  18.020  32.8100  0.00  0.00     0.000 HD
BRANCH 18 30
ATOM     28   N  NAG B   2      18.897  22.164  34.0230  0.00  0.00     0.000 N
ATOM     30  HD  NAG B   2      18.321  22.472  33.4550  0.00  0.00     0.000 HD
ATOM     30   C  NAG B   2      18.110  23.246  34.0280  0.00  0.00     0.000 C
ATOM     31   C  NAG B   2      18.077  24.077  35.2800  0.00  0.00     0.000 C
ATOM     32   O  NAG B   2      17.443  23.559  33.0620  0.00  0.00     0.000 OA
ENDBRANCH 18 30
BRANCH 17 33
ATOM     33  O4  GCU B   3      18.437  20.106  34.8590  0.00  0.00     0.000 O
BRANCH 33 37
ATOM     34  C1  GCU B   3      15.643  18.239  37.3160  0.00  0.00     0.000 C
ATOM     35  C2  GCU B   3      17.079  17.715  37.3480  0.00  0.00     0.000 C
ATOM     36  C3  GCU B   3      18.010  18.748  36.7490  0.00  0.00     0.000 C
ATOM     37  C4  GCU B   3      17.532  19.117  35.3520  0.00  0.00     0.000 C
ATOM     38  C5  GCU B   3      16.093  19.631  35.4190  0.00  0.00     0.000 C
ATOM     39  O5  GCU B   3      15.269  18.607  35.9850  0.00  0.00     0.000 O
ATOM     40   O  GCU B   3      17.445  17.448  38.7040  0.00  0.00     0.000 O
ATOM     42  HD  GCU B   3      18.067  17.597  39.2870  0.00  0.00     0.000 HD
ATOM     42   O  GCU B   3      19.362  18.259  36.6970  0.00  0.00     0.000 O
ATOM     44  HD  GCU B   3      19.984  18.408  37.2800  0.00  0.00     0.000 HD
BRANCH 38 44
ATOM     44   C  GCU B   3      15.541  19.994  34.0640  0.00  0.00     0.000 C
ATOM     45   O  GCU B   3      15.333  21.190  33.8080  0.00  0.00     0.000 OA
ATOM     46   O  GCU B   3      15.307  19.097  33.2310  0.00  0.00     0.000 OA
ENDBRANCH 38 44
BRANCH 34 47
ATOM     47  O3  NAG B   4      14.821  17.253  37.6480  0.00  0.00     0.000 O
BRANCH 47 50
ATOM     48  C1  NAG B   4      12.284  18.402  40.0970  0.00  0.00     0.000 C
ATOM     49  C2  NAG B   4      13.121  18.408  38.8220  0.00  0.00     0.000 C
ATOM     50  C3  NAG B   4      13.740  17.046  38.5550  0.00  0.00     0.000 C
ATOM     51  C4  NAG B   4      14.261  16.347  39.8170  0.00  0.00     0.000 C
ATOM     52  C5  NAG B   4      13.146  16.127  40.8250  0.00  0.00     0.000 C
ATOM     53  O5  NAG B   4      12.249  17.251  40.9660  0.00  0.00     0.000 O
BRANCH 49 56
ATOM     54   N  NAG B   4      12.016  18.299  37.8530  0.00  0.00     0.000 N
ATOM     56  HD  NAG B   4      11.498  17.612  37.7510  0.00  0.00     0.000 HD
ATOM     56   C  NAG B   4      10.524  18.903  36.0360  0.00  0.00     0.000 C
ATOM     57   O  NAG B   4      12.457  20.120  36.5660  0.00  0.00     0.000 OA
ATOM     58   C  NAG B   4      11.760  19.155  36.8430  0.00  0.00     0.000 C
ENDBRANCH 49 56
ATOM     59   O  NAG B   4      12.790  15.187  43.0800  0.00  0.00     0.000 O
ATOM     61  HD  NAG B   4      12.960  15.875  42.5820  0.00  0.00     0.000 HD
ATOM     61   O  NAG B   4      12.790  15.187  43.0800  0.00  0.00     0.000 O
ATOM     63  HD  NAG B   4      12.960  15.875  42.5820  0.00  0.00     0.000 HD
ENDBRANCH 47 50
ENDBRANCH 34 47
ENDBRANCH 33 37
ENDBRANCH 17 33
ENDBRANCH 16 19
ENDBRANCH 1 16
TORSDOF 10
ENDMDL
MODEL 17
REMARK VINA RESULT:      -4.9     12.819     19.592
ROOT
ATOM      1  C1  GCU B   1      17.418  47.337  10.6650  0.00  0.00     0.000 C
ATOM      2  C2  GCU B   1      18.870  46.887  10.7100  0.00  0.00     0.000 C
ATOM      3  C3  GCU B   1      18.955  45.379  10.8860  0.00  0.00     0.000 C
ATOM      4  C4  GCU B   1      18.103  44.939  12.0670  0.00  0.00     0.000 C
ATOM      5  C5  GCU B   1      16.682  45.492  11.9560  0.00  0.00     0.000 C
ATOM      6  O5  GCU B   1      16.740  46.922  11.8620  0.00  0.00     0.000 O
ATOM      7   O  GCU B   1      19.486  47.288   9.4900  0.00  0.00     0.000 O
ATOM      9  HD  GCU B   1      20.218  47.744   9.4130  0.00  0.00     0.000 HD
ATOM      9   O  GCU B   1      20.310  44.970  11.0880  0.00  0.00     0.000 O
ATOM     11  HD  GCU B   1      21.043  45.426  11.0110  0.00  0.00     0.000 HD
ATOM     11   O  GCU B   1      18.065  43.511  12.1010  0.00  0.00     0.000 O
ATOM     13  HD  GCU B   1      18.797  43.967  12.0240  0.00  0.00     0.000 HD
ENDROOT
BRANCH 5 13
ATOM     13   C  GCU B   1      15.856  45.028  13.1320  0.00  0.00     0.000 C
ATOM     14   O  GCU B   1      14.646  44.761  12.9880  0.00  0.00     0.000 OA
ATOM     15   O  GCU B   1      16.439  44.900  14.2260  0.00  0.00     0.000 OA
ENDBRANCH 5 13
BRANCH 1 16
ATOM     16  O3  NAG B   2      16.927  48.535  10.9890  0.00  0.00     0.000 O
BRANCH 16 19
ATOM     17  C1  NAG B   2      15.065  51.101   8.9460  0.00  0.00     0.000 C
ATOM     18  C2  NAG B   2      16.198  50.152   9.3140  0.00  0.00     0.000 C
ATOM     19  C3  NAG B   2      15.807  49.302  10.5210  0.00  0.00     0.000 C
ATOM     20  C4  NAG B   2      15.329  50.193  11.6670  0.00  0.00     0.000 C
ATOM     21  C5  NAG B   2      14.198  51.091  11.1850  0.00  0.00     0.000 C
ATOM     22  O5  NAG B   2      14.672  51.886  10.0840  0.00  0.00     0.000 O
ATOM     23   O  NAG B   2      14.901  49.353  12.7440  0.00  0.00     0.000 O
ATOM     25  HD  NAG B   2      15.616  49.825  12.8720  0.00  0.00     0.000 HD
ATOM     25   C  NAG B   2      13.658  52.002  12.2850  0.00  0.00     0.000 C
ATOM     26   O  NAG B   2      14.574  53.064  12.5930  0.00  0.00     0.000 O
ATOM     28  HD  NAG B   2      15.289  53.536  12.7200  0.00  0.00     0.000 HD
BRANCH 18 30
ATOM     28   N  NAG B   2      17.176  50.417   8.2750  0.00  0.00     0.000 N
ATOM     30  HD  NAG B   2      16.970  49.586   8.1440  0.00  0.00     0.000 HD
ATOM     30   C  NAG B   2      17.670  49.479   7.4590  0.00  0.00     0.000 C
ATOM     31   C  NAG B   2      18.712  49.902   6.4610  0.00  0.00     0.000 C
ATOM     32   O  NAG B   2      17.301  48.323   7.5130  0.00  0.00     0.000 OA
ENDBRANCH 18 30
BRANCH 17 33
ATOM     33  O4  GCU B   3      15.508  51.896   7.8280  0.00  0.00     0.000 O
BRANCH 33 37
ATOM     34  C1  GCU B   3      13.416  53.463   4.5880  0.00  0.00     0.000 C
ATOM     35  C2  GCU B   3      13.269  54.170   5.9360  0.00  0.00     0.000 C
ATOM     36  C3  GCU B   3      14.394  53.744   6.8560  0.00  0.00     0.000 C
ATOM     37  C4  GCU B   3      14.416  52.226   6.9680  0.00  0.00     0.000 C
ATOM     38  C5  GCU B   3      14.568  51.610   5.5760  0.00  0.00     0.000 C
ATOM     39  O5  GCU B   3      13.473  52.044   4.7630  0.00  0.00     0.000 O
ATOM     40   O  GCU B   3      13.311  55.583   5.7250  0.00  0.00     0.000 O
ATOM     42  HD  GCU B   3      13.695  56.306   6.0070  0.00  0.00     0.000 HD
ATOM     42   O  GCU B   3      14.247  54.335   8.1600  0.00  0.00     0.000 O
ATOM     44  HD  GCU B   3      14.631  55.058   8.4420  0.00  0.00     0.000 HD
BRANCH 38 44
ATOM     44   C  GCU B   3      14.572  50.102   5.6050  0.00  0.00     0.000 C
ATOM     45   O  GCU B   3      15.395  49.497   4.9000  0.00  0.00     0.000 OA
ATOM     46   O  GCU B   3      13.762  49.495   6.3310  0.00  0.00     0.000 OA
ENDBRANCH 38 44
BRANCH 34 47
ATOM     47  O3  NAG B   4      12.323  53.681   3.8700  0.00  0.00     0.000 O
BRANCH 47 50
ATOM     48  C1  NAG B   4      12.984  56.024   1.0720  0.00  0.00     0.000 C
ATOM     49  C2  NAG B   4      13.263  54.917   2.0840  0.00  0.00     0.000 C
ATOM     50  C3  NAG B   4      11.975  54.351   2.6600  0.00  0.00     0.000 C
ATOM     51  C4  NAG B   4      10.910  55.414   2.9540  0.00  0.00     0.000 C
ATOM     52  C5  NAG B   4      10.526  56.172   1.6940  0.00  0.00     0.000 C
ATOM     53  O5  NAG B   4      11.647  56.517   0.8490  0.00  0.00     0.000 O
BRANCH 49 56
ATOM     54   N  NAG B   4      13.534  53.838   1.1170  0.00  0.00     0.000 N
ATOM     56  HD  NAG B   4      12.962  53.506   0.5570  0.00  0.00     0.000 HD
ATOM     56   C  NAG B   4      14.747  52.091  -0.0520  0.00  0.00     0.000 C
ATOM     57   O  NAG B   4      15.548  53.128   1.8920  0.00  0.00     0.000 OA
ATOM     58   C  NAG B   4      14.638  53.066   1.0800  0.00  0.00     0.000 C
ENDBRANCH 49 56
ATOM     59   O  NAG B   4       9.039  58.002   0.9650  0.00  0.00     0.000 O
ATOM     61  HD  NAG B   4       9.818  57.747   1.2420  0.00  0.00     0.000 HD
ATOM     61   O  NAG B   4       9.039  58.002   0.9650  0.00  0.00     0.000 O
ATOM     63  HD  NAG B   4       9.818  57.747   1.2420  0.00  0.00     0.000 HD
ENDBRANCH 47 50
ENDBRANCH 34 47
ENDBRANCH 33 37
ENDBRANCH 17 33
ENDBRANCH 16 19
ENDBRANCH 1 16
TORSDOF 10
ENDMDL
MODEL 18
REMARK VINA RESULT:      -4.8     24.361     29.340
ROOT
ATOM      1  C1  GCU B   1      15.816  20.521  36.5890  0.00  0.00     0.000 C
ATOM      2  C2  GCU B   1      17.148  21.251  36.6600  0.00  0.00     0.000 C
ATOM      3  C3  GCU B   1      17.436  21.960  35.3450  0.00  0.00     0.000 C
ATOM      4  C4  GCU B   1      17.289  20.991  34.1820  0.00  0.00     0.000 C
ATOM      5  C5  GCU B   1      15.944  20.266  34.2380  0.00  0.00     0.000 C
ATOM      6  O5  GCU B   1      15.827  19.588  35.4960  0.00  0.00     0.000 O
ATOM      7   O  GCU B   1      17.072  22.186  37.7310  0.00  0.00     0.000 O
ATOM      9  HD  GCU B   1      17.638  22.264  38.3820  0.00  0.00     0.000 HD
ATOM      9   O  GCU B   1      18.754  22.514  35.3500  0.00  0.00     0.000 O
ATOM     11  HD  GCU B   1      19.320  22.591  36.0010  0.00  0.00     0.000 HD
ATOM     11   O  GCU B   1      17.395  21.719  32.9590  0.00  0.00     0.000 O
ATOM     13  HD  GCU B   1      17.961  21.797  33.6100  0.00  0.00     0.000 HD
ENDROOT
BRANCH 5 13
ATOM     13   C  GCU B   1      15.820  19.322  33.0660  0.00  0.00     0.000 C
ATOM     14   O  GCU B   1      14.723  18.790  32.7970  0.00  0.00     0.000 OA
ATOM     15   O  GCU B   1      16.839  19.127  32.3760  0.00  0.00     0.000 OA
ENDBRANCH 5 13
BRANCH 1 16
ATOM     16  O3  NAG B   2      15.436  19.452  37.2920  0.00  0.00     0.000 O
BRANCH 16 19
ATOM     17  C1  NAG B   2      11.927  18.196  37.8740  0.00  0.00     0.000 C
ATOM     18  C2  NAG B   2      13.060  19.211  37.7930  0.00  0.00     0.000 C
ATOM     19  C3  NAG B   2      14.312  18.562  37.2060  0.00  0.00     0.000 C
ATOM     20  C4  NAG B   2      14.658  17.285  37.9710  0.00  0.00     0.000 C
ATOM     21  C5  NAG B   2      13.457  16.349  37.9810  0.00  0.00     0.000 C
ATOM     22  O5  NAG B   2      12.345  17.025  38.5940  0.00  0.00     0.000 O
ATOM     23   O  NAG B   2      15.787  16.672  37.3390  0.00  0.00     0.000 O
ATOM     25  HD  NAG B   2      15.909  17.002  38.1300  0.00  0.00     0.000 HD
ATOM     25   C  NAG B   2      13.736  15.040  38.7170  0.00  0.00     0.000 C
ATOM     26   O  NAG B   2      13.791  15.232  40.1390  0.00  0.00     0.000 O
ATOM     28  HD  NAG B   2      13.912  15.561  40.9300  0.00  0.00     0.000 HD
BRANCH 18 30
ATOM     28   N  NAG B   2      12.577  20.479  38.3080  0.00  0.00     0.000 N
ATOM     30  HD  NAG B   2      12.589  20.605  37.4510  0.00  0.00     0.000 HD
ATOM     30   C  NAG B   2      12.371  21.562  37.5480  0.00  0.00     0.000 C
ATOM     31   C  NAG B   2      11.911  22.817  38.2360  0.00  0.00     0.000 C
ATOM     32   O  NAG B   2      12.548  21.545  36.3470  0.00  0.00     0.000 OA
ENDBRANCH 18 30
BRANCH 17 33
ATOM     33  O4  GCU B   3      10.791  18.857  38.4670  0.00  0.00     0.000 O
BRANCH 33 37
ATOM     34  C1  GCU B   3       6.816  17.666  38.8010  0.00  0.00     0.000 C
ATOM     35  C2  GCU B   3       7.804  17.142  39.8440  0.00  0.00     0.000 C
ATOM     36  C3  GCU B   3       9.058  17.990  39.8250  0.00  0.00     0.000 C
ATOM     37  C4  GCU B   3       9.630  18.026  38.4150  0.00  0.00     0.000 C
ATOM     38  C5  GCU B   3       8.575  18.564  37.4460  0.00  0.00     0.000 C
ATOM     39  O5  GCU B   3       7.424  17.715  37.5080  0.00  0.00     0.000 O
ATOM     40   O  GCU B   3       7.189  17.196  41.1330  0.00  0.00     0.000 O
ATOM     42  HD  GCU B   3       7.323  17.468  41.9440  0.00  0.00     0.000 HD
ATOM     42   O  GCU B   3      10.041  17.481  40.7450  0.00  0.00     0.000 O
ATOM     44  HD  GCU B   3      10.174  17.753  41.5560  0.00  0.00     0.000 HD
BRANCH 38 44
ATOM     44   C  GCU B   3       9.063  18.606  36.0200  0.00  0.00     0.000 C
ATOM     45   O  GCU B   3       8.829  17.635  35.2840  0.00  0.00     0.000 OA
ATOM     46   O  GCU B   3       9.683  19.605  35.6080  0.00  0.00     0.000 OA
ENDBRANCH 38 44
BRANCH 34 47
ATOM     47  O3  NAG B   4       5.820  16.799  38.6830  0.00  0.00     0.000 O
BRANCH 47 50
ATOM     48  C1  NAG B   4       2.629  18.294  39.8430  0.00  0.00     0.000 C
ATOM     49  C2  NAG B   4       3.974  18.213  39.1270  0.00  0.00     0.000 C
ATOM     50  C3  NAG B   4       4.415  16.772  38.9300  0.00  0.00     0.000 C
ATOM     51  C4  NAG B   4       4.126  15.867  40.1340  0.00  0.00     0.000 C
ATOM     52  C5  NAG B   4       2.640  15.828  40.4490  0.00  0.00     0.000 C
ATOM     53  O5  NAG B   4       1.985  17.113  40.3650  0.00  0.00     0.000 O
BRANCH 49 56
ATOM     54   N  NAG B   4       3.442  18.484  37.7800  0.00  0.00     0.000 N
ATOM     56  HD  NAG B   4       2.820  18.031  37.3820  0.00  0.00     0.000 HD
ATOM     56   C  NAG B   4       3.204  19.530  35.6030  0.00  0.00     0.000 C
ATOM     57   O  NAG B   4       4.997  19.972  37.0490  0.00  0.00     0.000 OA
ATOM     58   C  NAG B   4       3.965  19.339  36.8790  0.00  0.00     0.000 C
ENDBRANCH 49 56
ATOM     59   O  NAG B   4       1.074  14.808  42.0630  0.00  0.00     0.000 O
ATOM     61  HD  NAG B   4       1.575  15.478  41.8380  0.00  0.00     0.000 HD
ATOM     61   O  NAG B   4       1.074  14.808  42.0630  0.00  0.00     0.000 O
ATOM     63  HD  NAG B   4       1.575  15.478  41.8380  0.00  0.00     0.000 HD
ENDBRANCH 47 50
ENDBRANCH 34 47
ENDBRANCH 33 37
ENDBRANCH 17 33
ENDBRANCH 16 19
ENDBRANCH 1 16
TORSDOF 10
ENDMDL
MODEL 19
REMARK VINA RESULT:      -4.8      2.307      4.178
ROOT
ATOM      1  C1  GCU B   1       6.710  39.987  25.4970  0.00  0.00     0.000 C
ATOM      2  C2  GCU B   1       5.637  40.308  26.5250  0.00  0.00     0.000 C
ATOM      3  C3  GCU B   1       5.815  39.449  27.7670  0.00  0.00     0.000 C
ATOM      4  C4  GCU B   1       5.923  37.982  27.3790  0.00  0.00     0.000 C
ATOM      5  C5  GCU B   1       6.985  37.775  26.2980  0.00  0.00     0.000 C
ATOM      6  O5  GCU B   1       6.664  38.590  25.1630  0.00  0.00     0.000 O
ATOM      7   O  GCU B   1       5.748  41.691  26.8490  0.00  0.00     0.000 O
ATOM      9  HD  GCU B   1       5.108  42.273  26.8300  0.00  0.00     0.000 HD
ATOM      9   O  GCU B   1       4.721  39.632  28.6690  0.00  0.00     0.000 O
ATOM     11  HD  GCU B   1       4.080  40.214  28.6500  0.00  0.00     0.000 HD
ATOM     11   O  GCU B   1       6.260  37.221  28.5400  0.00  0.00     0.000 O
ATOM     13  HD  GCU B   1       5.619  37.803  28.5210  0.00  0.00     0.000 HD
ENDROOT
BRANCH 5 13
ATOM     13   C  GCU B   1       7.079  36.310  25.9440  0.00  0.00     0.000 C
ATOM     14   O  GCU B   1       6.294  35.810  25.1120  0.00  0.00     0.000 OA
ATOM     15   O  GCU B   1       7.979  35.644  26.4900  0.00  0.00     0.000 OA
ENDBRANCH 5 13
BRANCH 1 16
ATOM     16  O3  NAG B   2       6.642  40.145  24.1730  0.00  0.00     0.000 O
BRANCH 16 19
ATOM     17  C1  NAG B   2       9.456  40.241  21.6630  0.00  0.00     0.000 C
ATOM     18  C2  NAG B   2       8.694  40.597  22.9340  0.00  0.00     0.000 C
ATOM     19  C3  NAG B   2       7.465  39.703  23.0820  0.00  0.00     0.000 C
ATOM     20  C4  NAG B   2       6.623  39.739  21.8070  0.00  0.00     0.000 C
ATOM     21  C5  NAG B   2       7.484  39.363  20.6100  0.00  0.00     0.000 C
ATOM     22  O5  NAG B   2       8.585  40.285  20.5210  0.00  0.00     0.000 O
ATOM     23   O  NAG B   2       5.528  38.830  21.9640  0.00  0.00     0.000 O
ATOM     25  HD  NAG B   2       5.339  39.675  21.9350  0.00  0.00     0.000 HD
ATOM     25   C  NAG B   2       6.703  39.363  19.2980  0.00  0.00     0.000 C
ATOM     26   O  NAG B   2       6.404  40.696  18.8570  0.00  0.00     0.000 O
ATOM     28  HD  NAG B   2       6.215  41.541  18.8290  0.00  0.00     0.000 HD
BRANCH 18 30
ATOM     28   N  NAG B   2       9.829  40.601  23.8370  0.00  0.00     0.000 N
ATOM     30  HD  NAG B   2       9.351  41.267  24.1170  0.00  0.00     0.000 HD
ATOM     30   C  NAG B   2      10.047  41.550  24.7560  0.00  0.00     0.000 C
ATOM     31   C  NAG B   2      11.293  41.439  25.5900  0.00  0.00     0.000 C
ATOM     32   O  NAG B   2       9.276  42.473  24.9190  0.00  0.00     0.000 OA
ENDBRANCH 18 30
BRANCH 17 33
ATOM     33  O4  GCU B   3      10.579  41.139  21.5620  0.00  0.00     0.000 O
BRANCH 33 37
ATOM     34  C1  GCU B   3      14.122  40.787  19.4050  0.00  0.00     0.000 C
ATOM     35  C2  GCU B   3      12.945  41.488  18.7270  0.00  0.00     0.000 C
ATOM     36  C3  GCU B   3      11.928  41.896  19.7710  0.00  0.00     0.000 C
ATOM     37  C4  GCU B   3      11.517  40.679  20.5880  0.00  0.00     0.000 C
ATOM     38  C5  GCU B   3      12.755  40.048  21.2280  0.00  0.00     0.000 C
ATOM     39  O5  GCU B   3      13.668  39.680  20.1890  0.00  0.00     0.000 O
ATOM     40   O  GCU B   3      13.430  42.640  18.0320  0.00  0.00     0.000 O
ATOM     42  HD  GCU B   3      13.286  43.488  17.9280  0.00  0.00     0.000 HD
ATOM     42   O  GCU B   3      10.771  42.496  19.1600  0.00  0.00     0.000 O
ATOM     44  HD  GCU B   3      10.627  43.344  19.0560  0.00  0.00     0.000 HD
BRANCH 38 44
ATOM     44   C  GCU B   3      12.428  38.817  22.0350  0.00  0.00     0.000 C
ATOM     45   O  GCU B   3      12.277  37.739  21.4400  0.00  0.00     0.000 OA
ATOM     46   O  GCU B   3      12.320  38.901  23.2740  0.00  0.00     0.000 OA
ENDBRANCH 38 44
BRANCH 34 47
ATOM     47  O3  NAG B   4      14.899  40.256  18.4710  0.00  0.00     0.000 O
BRANCH 47 50
ATOM     48  C1  NAG B   4      17.788  38.918  16.5680  0.00  0.00     0.000 C
ATOM     49  C2  NAG B   4      16.522  39.728  16.8310  0.00  0.00     0.000 C
ATOM     50  C3  NAG B   4      16.274  39.906  18.3200  0.00  0.00     0.000 C
ATOM     51  C4  NAG B   4      16.575  38.653  19.1510  0.00  0.00     0.000 C
ATOM     52  C5  NAG B   4      18.026  38.228  19.0000  0.00  0.00     0.000 C
ATOM     53  O5  NAG B   4      18.527  38.309  17.6480  0.00  0.00     0.000 O
BRANCH 49 56
ATOM     54   N  NAG B   4      17.159  41.002  16.4550  0.00  0.00     0.000 N
ATOM     56  HD  NAG B   4      17.967  41.242  16.6550  0.00  0.00     0.000 HD
ATOM     56   C  NAG B   4      17.398  43.230  15.5230  0.00  0.00     0.000 C
ATOM     57   O  NAG B   4      15.332  42.139  15.7220  0.00  0.00     0.000 OA
ATOM     58   C  NAG B   4      16.537  42.071  15.9190  0.00  0.00     0.000 C
ENDBRANCH 49 56
ATOM     59   O  NAG B   4      19.574  36.469  19.7780  0.00  0.00     0.000 O
ATOM     61  HD  NAG B   4      19.015  36.753  19.1810  0.00  0.00     0.000 HD
ATOM     61   O  NAG B   4      19.574  36.469  19.7780  0.00  0.00     0.000 O
ATOM     63  HD  NAG B   4      19.015  36.753  19.1810  0.00  0.00     0.000 HD
ENDBRANCH 47 50
ENDBRANCH 34 47
ENDBRANCH 33 37
ENDBRANCH 17 33
ENDBRANCH 16 19
ENDBRANCH 1 16
TORSDOF 10
ENDMDL
MODEL 20
REMARK VINA RESULT:      -4.8     24.290     29.512
ROOT
ATOM      1  C1  GCU B   1      14.688  20.377  36.7540  0.00  0.00     0.000 C
ATOM      2  C2  GCU B   1      15.627  21.534  37.0570  0.00  0.00     0.000 C
ATOM      3  C3  GCU B   1      15.871  22.363  35.8050  0.00  0.00     0.000 C
ATOM      4  C4  GCU B   1      16.298  21.465  34.6550  0.00  0.00     0.000 C
ATOM      5  C5  GCU B   1      15.322  20.301  34.4730  0.00  0.00     0.000 C
ATOM      6  O5  GCU B   1      15.234  19.566  35.7020  0.00  0.00     0.000 O
ATOM      7   O  GCU B   1      15.025  22.325  38.0760  0.00  0.00     0.000 O
ATOM      9  HD  GCU B   1      15.397  22.569  38.8200  0.00  0.00     0.000 HD
ATOM      9   O  GCU B   1      16.874  23.354  36.0440  0.00  0.00     0.000 O
ATOM     11  HD  GCU B   1      17.245  23.598  36.7870  0.00  0.00     0.000 HD
ATOM     11   O  GCU B   1      16.352  22.241  33.4580  0.00  0.00     0.000 O
ATOM     13  HD  GCU B   1      16.723  22.485  34.2010  0.00  0.00     0.000 HD
ENDROOT
BRANCH 5 13
ATOM     13   C  GCU B   1      15.764  19.435  33.3180  0.00  0.00     0.000 C
ATOM     14   O  GCU B   1      14.944  18.699  32.7320  0.00  0.00     0.000 OA
ATOM     15   O  GCU B   1      16.957  19.512  32.9660  0.00  0.00     0.000 OA
ENDBRANCH 5 13
BRANCH 1 16
ATOM     16  O3  NAG B   2      14.602  19.210  37.3960  0.00  0.00     0.000 O
BRANCH 16 19
ATOM     17  C1  NAG B   2      11.554  17.072  37.9990  0.00  0.00     0.000 C
ATOM     18  C2  NAG B   2      12.395  18.341  37.9690  0.00  0.00     0.000 C
ATOM     19  C3  NAG B   2      13.728  18.077  37.2720  0.00  0.00     0.000 C
ATOM     20  C4  NAG B   2      14.425  16.869  37.8970  0.00  0.00     0.000 C
ATOM     21  C5  NAG B   2      13.494  15.665  37.8670  0.00  0.00     0.000 C
ATOM     22  O5  NAG B   2      12.291  15.988  38.5870  0.00  0.00     0.000 O
ATOM     23   O  NAG B   2      15.628  16.612  37.1630  0.00  0.00     0.000 O
ATOM     25  HD  NAG B   2      15.714  16.896  37.9770  0.00  0.00     0.000 HD
ATOM     25   C  NAG B   2      14.132  14.411  38.4630  0.00  0.00     0.000 C
ATOM     26   O  NAG B   2      14.228  14.494  39.8930  0.00  0.00     0.000 O
ATOM     28  HD  NAG B   2      14.315  14.778  40.7070  0.00  0.00     0.000 HD
BRANCH 18 30
ATOM     28   N  NAG B   2      11.593  19.368  38.6070  0.00  0.00     0.000 N
ATOM     30  HD  NAG B   2      11.593  19.606  37.7740  0.00  0.00     0.000 HD
ATOM     30   C  NAG B   2      11.135  20.457  37.9760  0.00  0.00     0.000 C
ATOM     31   C  NAG B   2      10.355  21.454  38.7860  0.00  0.00     0.000 C
ATOM     32   O  NAG B   2      11.339  20.645  36.7940  0.00  0.00     0.000 OA
ENDBRANCH 18 30
BRANCH 17 33
ATOM     33  O4  GCU B   3      10.330  17.376  38.6980  0.00  0.00     0.000 O
BRANCH 33 37
ATOM     34  C1  GCU B   3       6.475  15.870  38.2460  0.00  0.00     0.000 C
ATOM     35  C2  GCU B   3       7.531  14.946  38.8530  0.00  0.00     0.000 C
ATOM     36  C3  GCU B   3       8.712  15.768  39.3270  0.00  0.00     0.000 C
ATOM     37  C4  GCU B   3       9.238  16.616  38.1770  0.00  0.00     0.000 C
ATOM     38  C5  GCU B   3       8.117  17.505  37.6380  0.00  0.00     0.000 C
ATOM     39  O5  GCU B   3       7.041  16.668  37.2020  0.00  0.00     0.000 O
ATOM     40   O  GCU B   3       6.951  14.237  39.9500  0.00  0.00     0.000 O
ATOM     42  HD  GCU B   3       7.085  14.033  40.7810  0.00  0.00     0.000 HD
ATOM     42   O  GCU B   3       9.758  14.924  39.8390  0.00  0.00     0.000 O
ATOM     44  HD  GCU B   3       9.892  14.719  40.6700  0.00  0.00     0.000 HD
BRANCH 38 44
ATOM     44   C  GCU B   3       8.559  18.359  36.4760  0.00  0.00     0.000 C
ATOM     45   O  GCU B   3       8.199  19.545  36.4390  0.00  0.00     0.000 OA
ATOM     46   O  GCU B   3       9.275  17.865  35.5830  0.00  0.00     0.000 OA
ENDBRANCH 38 44
BRANCH 34 47
ATOM     47  O3  NAG B   4       5.549  15.129  37.6530  0.00  0.00     0.000 O
BRANCH 47 50
ATOM     48  C1  NAG B   4       3.082  14.045  35.1050  0.00  0.00     0.000 C
ATOM     49  C2  NAG B   4       3.628  14.806  36.3080  0.00  0.00     0.000 C
ATOM     50  C3  NAG B   4       5.148  14.813  36.3210  0.00  0.00     0.000 C
ATOM     51  C4  NAG B   4       5.775  13.477  35.9040  0.00  0.00     0.000 C
ATOM     52  C5  NAG B   4       5.354  13.087  34.4970  0.00  0.00     0.000 C
ATOM     53  O5  NAG B   4       3.958  13.325  34.2120  0.00  0.00     0.000 O
BRANCH 49 56
ATOM     54   N  NAG B   4       3.488  16.192  35.8270  0.00  0.00     0.000 N
ATOM     56  HD  NAG B   4       4.012  16.587  35.2630  0.00  0.00     0.000 HD
ATOM     56   C  NAG B   4       2.604  18.443  35.6210  0.00  0.00     0.000 C
ATOM     57   O  NAG B   4       1.929  16.950  37.2980  0.00  0.00     0.000 OA
ATOM     58   C  NAG B   4       2.652  17.123  36.3280  0.00  0.00     0.000 C
ENDBRANCH 49 56
ATOM     59   O  NAG B   4       5.679  11.268  32.8610  0.00  0.00     0.000 O
ATOM     61  HD  NAG B   4       5.211  11.611  33.5030  0.00  0.00     0.000 HD
ATOM     61   O  NAG B   4       5.679  11.268  32.8610  0.00  0.00     0.000 O
ATOM     63  HD  NAG B   4       5.211  11.611  33.5030  0.00  0.00     0.000 HD
ENDBRANCH 47 50
ENDBRANCH 34 47
ENDBRANCH 33 37
ENDBRANCH 17 33
ENDBRANCH 16 19
ENDBRANCH 1 16
TORSDOF 10
ENDMDL
MODEL 21
REMARK VINA RESULT:      -4.7     16.668     21.128
ROOT
ATOM      1  C1  GCU B   1      20.736  45.580   8.5390  0.00  0.00     0.000 C
ATOM      2  C2  GCU B   1      20.601  44.244   9.2540  0.00  0.00     0.000 C
ATOM      3  C3  GCU B   1      21.813  43.987  10.1350  0.00  0.00     0.000 C
ATOM      4  C4  GCU B   1      23.093  44.167   9.3340  0.00  0.00     0.000 C
ATOM      5  C5  GCU B   1      23.102  45.512   8.6060  0.00  0.00     0.000 C
ATOM      6  O5  GCU B   1      21.945  45.599   7.7640  0.00  0.00     0.000 O
ATOM      7   O  GCU B   1      19.410  44.290  10.0340  0.00  0.00     0.000 O
ATOM      9  HD  GCU B   1      18.769  43.707  10.0230  0.00  0.00     0.000 HD
ATOM      9   O  GCU B   1      21.767  42.668  10.6840  0.00  0.00     0.000 O
ATOM     11  HD  GCU B   1      21.126  42.086  10.6730  0.00  0.00     0.000 HD
ATOM     11   O  GCU B   1      24.209  44.090  10.2220  0.00  0.00     0.000 O
ATOM     13  HD  GCU B   1      23.568  43.507  10.2100  0.00  0.00     0.000 HD
ENDROOT
BRANCH 5 13
ATOM     13   C  GCU B   1      24.389  45.668   7.8310  0.00  0.00     0.000 C
ATOM     14   O  GCU B   1      24.839  46.804   7.5770  0.00  0.00     0.000 OA
ATOM     15   O  GCU B   1      24.982  44.627   7.4890  0.00  0.00     0.000 OA
ENDBRANCH 5 13
BRANCH 1 16
ATOM     16  O3  NAG B   2      20.175  45.944   7.3840  0.00  0.00     0.000 O
BRANCH 16 19
ATOM     17  C1  NAG B   2      18.275  49.097   6.5610  0.00  0.00     0.000 C
ATOM     18  C2  NAG B   2      18.648  47.847   7.3480  0.00  0.00     0.000 C
ATOM     19  C3  NAG B   2      19.914  47.217   6.7710  0.00  0.00     0.000 C
ATOM     20  C4  NAG B   2      19.762  46.998   5.2660  0.00  0.00     0.000 C
ATOM     21  C5  NAG B   2      19.395  48.310   4.5890  0.00  0.00     0.000 C
ATOM     22  O5  NAG B   2      18.169  48.801   5.1590  0.00  0.00     0.000 O
ATOM     23   O  NAG B   2      20.997  46.480   4.7590  0.00  0.00     0.000 O
ATOM     25  HD  NAG B   2      20.314  45.947   4.7550  0.00  0.00     0.000 HD
ATOM     25   C  NAG B   2      19.241  48.170   3.0760  0.00  0.00     0.000 C
ATOM     26   O  NAG B   2      18.034  47.476   2.7270  0.00  0.00     0.000 O
ATOM     28  HD  NAG B   2      17.351  46.943   2.7240  0.00  0.00     0.000 HD
BRANCH 18 30
ATOM     28   N  NAG B   2      18.288  48.485   8.6000  0.00  0.00     0.000 N
ATOM     30  HD  NAG B   2      18.295  47.643   8.8020  0.00  0.00     0.000 HD
ATOM     30   C  NAG B   2      17.932  47.815   9.7030  0.00  0.00     0.000 C
ATOM     31   C  NAG B   2      17.543  48.620  10.9110  0.00  0.00     0.000 C
ATOM     32   O  NAG B   2      17.919  46.601   9.7390  0.00  0.00     0.000 OA
ENDBRANCH 18 30
BRANCH 17 33
ATOM     33  O4  GCU B   3      17.058  49.622   7.1290  0.00  0.00     0.000 O
BRANCH 33 37
ATOM     34  C1  GCU B   3      14.922  53.083   6.2400  0.00  0.00     0.000 C
ATOM     35  C2  GCU B   3      14.618  51.831   5.4170  0.00  0.00     0.000 C
ATOM     36  C3  GCU B   3      15.149  50.610   6.1380  0.00  0.00     0.000 C
ATOM     37  C4  GCU B   3      16.631  50.794   6.4330  0.00  0.00     0.000 C
ATOM     38  C5  GCU B   3      16.836  52.066   7.2590  0.00  0.00     0.000 C
ATOM     39  O5  GCU B   3      16.322  53.178   6.5190  0.00  0.00     0.000 O
ATOM     40   O  GCU B   3      13.204  51.725   5.2400  0.00  0.00     0.000 O
ATOM     42  HD  GCU B   3      12.545  51.168   5.3160  0.00  0.00     0.000 HD
ATOM     42   O  GCU B   3      14.945  49.419   5.3570  0.00  0.00     0.000 O
ATOM     44  HD  GCU B   3      14.286  48.862   5.4320  0.00  0.00     0.000 HD
BRANCH 38 44
ATOM     44   C  GCU B   3      18.288  52.329   7.5700  0.00  0.00     0.000 C
ATOM     45   O  GCU B   3      18.948  53.025   6.7830  0.00  0.00     0.000 OA
ATOM     46   O  GCU B   3      18.795  51.852   8.6040  0.00  0.00     0.000 OA
ENDBRANCH 38 44
BRANCH 34 47
ATOM     47  O3  NAG B   4      14.641  54.153   5.5100  0.00  0.00     0.000 O
BRANCH 47 50
ATOM     48  C1  NAG B   4      14.759  55.795   2.1860  0.00  0.00     0.000 C
ATOM     49  C2  NAG B   4      15.271  55.037   3.4060  0.00  0.00     0.000 C
ATOM     50  C3  NAG B   4      14.130  54.433   4.2080  0.00  0.00     0.000 C
ATOM     51  C4  NAG B   4      12.906  55.349   4.3270  0.00  0.00     0.000 C
ATOM     52  C5  NAG B   4      12.342  55.695   2.9590  0.00  0.00     0.000 C
ATOM     53  O5  NAG B   4      13.347  55.994   1.9650  0.00  0.00     0.000 O
BRANCH 49 56
ATOM     54   N  NAG B   4      15.708  53.850   2.6510  0.00  0.00     0.000 N
ATOM     56  HD  NAG B   4      15.220  53.393   2.1000  0.00  0.00     0.000 HD
ATOM     56   C  NAG B   4      17.142  52.045   1.8920  0.00  0.00     0.000 C
ATOM     57   O  NAG B   4      17.670  53.421   3.7170  0.00  0.00     0.000 OA
ATOM     58   C  NAG B   4      16.855  53.168   2.8410  0.00  0.00     0.000 C
ENDBRANCH 49 56
ATOM     59   O  NAG B   4      10.524  57.019   1.9410  0.00  0.00     0.000 O
ATOM     61  HD  NAG B   4      11.347  56.971   2.2050  0.00  0.00     0.000 HD
ATOM     61   O  NAG B   4      10.524  57.019   1.9410  0.00  0.00     0.000 O
ATOM     63  HD  NAG B   4      11.347  56.971   2.2050  0.00  0.00     0.000 HD
ENDBRANCH 47 50
ENDBRANCH 34 47
ENDBRANCH 33 37
ENDBRANCH 17 33
ENDBRANCH 16 19
ENDBRANCH 1 16
TORSDOF 10
ENDMDL
MODEL 22
REMARK VINA RESULT:      -4.6      2.687      3.982
ROOT
ATOM      1  C1  GCU B   1       9.080  40.398  25.6020  0.00  0.00     0.000 C
ATOM      2  C2  GCU B   1       8.825  41.240  26.8430  0.00  0.00     0.000 C
ATOM      3  C3  GCU B   1       8.967  40.393  28.0990  0.00  0.00     0.000 C
ATOM      4  C4  GCU B   1       8.120  39.135  27.9830  0.00  0.00     0.000 C
ATOM      5  C5  GCU B   1       8.408  38.396  26.6750  0.00  0.00     0.000 C
ATOM      6  O5  GCU B   1       8.174  39.283  25.5730  0.00  0.00     0.000 O
ATOM      7   O  GCU B   1       9.769  42.306  26.8440  0.00  0.00     0.000 O
ATOM      9  HD  GCU B   1       9.588  43.149  26.9250  0.00  0.00     0.000 HD
ATOM      9   O  GCU B   1       8.574  41.137  29.2550  0.00  0.00     0.000 O
ATOM     11  HD  GCU B   1       8.393  41.980  29.3360  0.00  0.00     0.000 HD
ATOM     11   O  GCU B   1       8.404  38.283  29.0930  0.00  0.00     0.000 O
ATOM     13  HD  GCU B   1       8.223  39.126  29.1740  0.00  0.00     0.000 HD
ENDROOT
BRANCH 5 13
ATOM     13   C  GCU B   1       7.564  37.147  26.5940  0.00  0.00     0.000 C
ATOM     14   O  GCU B   1       7.771  36.194  27.3740  0.00  0.00     0.000 OA
ATOM     15   O  GCU B   1       6.650  37.126  25.7480  0.00  0.00     0.000 OA
ENDBRANCH 5 13
BRANCH 1 16
ATOM     16  O3  NAG B   2       8.616  40.607  24.3680  0.00  0.00     0.000 O
BRANCH 16 19
ATOM     17  C1  NAG B   2      10.405  41.117  21.0870  0.00  0.00     0.000 C
ATOM     18  C2  NAG B   2      10.042  41.375  22.5440  0.00  0.00     0.000 C
ATOM     19  C3  NAG B   2       9.110  40.281  23.0600  0.00  0.00     0.000 C
ATOM     20  C4  NAG B   2       7.911  40.119  22.1260  0.00  0.00     0.000 C
ATOM     21  C5  NAG B   2       8.394  39.862  20.7060  0.00  0.00     0.000 C
ATOM     22  O5  NAG B   2       9.220  40.963  20.2890  0.00  0.00     0.000 O
ATOM     23   O  NAG B   2       7.109  39.034  22.6050  0.00  0.00     0.000 O
ATOM     25  HD  NAG B   2       6.770  39.829  22.6600  0.00  0.00     0.000 HD
ATOM     25   C  NAG B   2       7.246  39.674  19.7170  0.00  0.00     0.000 C
ATOM     26   O  NAG B   2       6.584  40.915  19.4290  0.00  0.00     0.000 O
ATOM     28  HD  NAG B   2       6.246  41.710  19.4840  0.00  0.00     0.000 HD
BRANCH 18 30
ATOM     28   N  NAG B   2      11.393  41.640  23.0020  0.00  0.00     0.000 N
ATOM     30  HD  NAG B   2      10.913  42.185  23.4750  0.00  0.00     0.000 HD
ATOM     30   C  NAG B   2      11.712  42.621  23.8550  0.00  0.00     0.000 C
ATOM     31   C  NAG B   2      13.164  42.799  24.2000  0.00  0.00     0.000 C
ATOM     32   O  NAG B   2      10.869  43.350  24.3380  0.00  0.00     0.000 OA
ENDBRANCH 18 30
BRANCH 17 33
ATOM     33  O4  GCU B   3      11.253  42.198  20.6510  0.00  0.00     0.000 O
BRANCH 33 37
ATOM     34  C1  GCU B   3      13.811  42.489  17.3790  0.00  0.00     0.000 C
ATOM     35  C2  GCU B   3      12.343  42.860  17.1670  0.00  0.00     0.000 C
ATOM     36  C3  GCU B   3      11.684  43.106  18.5080  0.00  0.00     0.000 C
ATOM     37  C4  GCU B   3      11.877  41.890  19.4030  0.00  0.00     0.000 C
ATOM     38  C5  GCU B   3      13.370  41.598  19.5590  0.00  0.00     0.000 C
ATOM     39  O5  GCU B   3      13.927  41.368  18.2600  0.00  0.00     0.000 O
ATOM     40   O  GCU B   3      12.275  44.038  16.3600  0.00  0.00     0.000 O
ATOM     42  HD  GCU B   3      11.910  44.822  16.3230  0.00  0.00     0.000 HD
ATOM     42   O  GCU B   3      10.281  43.388  18.3510  0.00  0.00     0.000 O
ATOM     44  HD  GCU B   3       9.916  44.172  18.3140  0.00  0.00     0.000 HD
BRANCH 38 44
ATOM     44   C  GCU B   3      13.640  40.386  20.4150  0.00  0.00     0.000 C
ATOM     45   O  GCU B   3      13.929  40.556  21.6100  0.00  0.00     0.000 OA
ATOM     46   O  GCU B   3      13.565  39.247  19.9160  0.00  0.00     0.000 OA
ENDBRANCH 38 44
BRANCH 34 47
ATOM     47  O3  NAG B   4      14.318  42.078  16.2260  0.00  0.00     0.000 O
BRANCH 47 50
ATOM     48  C1  NAG B   4      17.443  43.873  15.3490  0.00  0.00     0.000 C
ATOM     49  C2  NAG B   4      16.364  43.269  16.2410  0.00  0.00     0.000 C
ATOM     50  C3  NAG B   4      15.530  42.243  15.4910  0.00  0.00     0.000 C
ATOM     51  C4  NAG B   4      15.202  42.648  14.0500  0.00  0.00     0.000 C
ATOM     52  C5  NAG B   4      16.467  42.860  13.2350  0.00  0.00     0.000 C
ATOM     53  O5  NAG B   4      17.512  43.565  13.9410  0.00  0.00     0.000 O
BRANCH 49 56
ATOM     54   N  NAG B   4      17.205  42.308  16.9750  0.00  0.00     0.000 N
ATOM     56  HD  NAG B   4      17.571  41.598  16.6400  0.00  0.00     0.000 HD
ATOM     56   C  NAG B   4      18.355  41.259  18.8370  0.00  0.00     0.000 C
ATOM     57   O  NAG B   4      16.803  42.996  19.1040  0.00  0.00     0.000 OA
ATOM     58   C  NAG B   4      17.376  42.263  18.3110  0.00  0.00     0.000 C
ENDBRANCH 49 56
ATOM     59   O  NAG B   4      17.166  43.507  10.9570  0.00  0.00     0.000 O
ATOM     61  HD  NAG B   4      16.986  43.740  11.7720  0.00  0.00     0.000 HD
ATOM     61   O  NAG B   4      17.166  43.507  10.9570  0.00  0.00     0.000 O
ATOM     63  HD  NAG B   4      16.986  43.740  11.7720  0.00  0.00     0.000 HD
ENDBRANCH 47 50
ENDBRANCH 34 47
ENDBRANCH 33 37
ENDBRANCH 17 33
ENDBRANCH 16 19
ENDBRANCH 1 16
TORSDOF 10
ENDMDL
MODEL 23
REMARK VINA RESULT:      -4.6     15.352     23.015
ROOT
ATOM      1  C1  GCU B   1      12.882  57.542   3.9110  0.00  0.00     0.000 C
ATOM      2  C2  GCU B   1      13.846  58.303   3.0150  0.00  0.00     0.000 C
ATOM      3  C3  GCU B   1      13.155  58.730   1.7290  0.00  0.00     0.000 C
ATOM      4  C4  GCU B   1      12.471  57.536   1.0800  0.00  0.00     0.000 C
ATOM      5  C5  GCU B   1      11.573  56.805   2.0790  0.00  0.00     0.000 C
ATOM      6  O5  GCU B   1      12.358  56.403   3.2090  0.00  0.00     0.000 O
ATOM      7   O  GCU B   1      14.306  59.439   3.7410  0.00  0.00     0.000 O
ATOM      9  HD  GCU B   1      15.133  59.664   3.8670  0.00  0.00     0.000 HD
ATOM      9   O  GCU B   1      14.095  59.304   0.8180  0.00  0.00     0.000 O
ATOM     11  HD  GCU B   1      14.921  59.529   0.9440  0.00  0.00     0.000 HD
ATOM     11   O  GCU B   1      11.691  57.996  -0.0250  0.00  0.00     0.000 O
ATOM     13  HD  GCU B   1      12.518  58.221   0.1010  0.00  0.00     0.000 HD
ENDROOT
BRANCH 5 13
ATOM     13   C  GCU B   1      10.898  55.636   1.4040  0.00  0.00     0.000 C
ATOM     14   O  GCU B   1       9.928  55.821   0.6400  0.00  0.00     0.000 OA
ATOM     15   O  GCU B   1      11.366  54.501   1.6190  0.00  0.00     0.000 OA
ENDBRANCH 5 13
BRANCH 1 16
ATOM     16  O3  NAG B   2      13.181  56.634   4.8420  0.00  0.00     0.000 O
BRANCH 16 19
ATOM     17  C1  NAG B   2      11.031  54.954   7.4470  0.00  0.00     0.000 C
ATOM     18  C2  NAG B   2      11.662  56.108   6.6780  0.00  0.00     0.000 C
ATOM     19  C3  NAG B   2      12.434  55.580   5.4700  0.00  0.00     0.000 C
ATOM     20  C4  NAG B   2      13.417  54.492   5.9010  0.00  0.00     0.000 C
ATOM     21  C5  NAG B   2      12.675  53.396   6.6520  0.00  0.00     0.000 C
ATOM     22  O5  NAG B   2      12.023  53.975   7.7960  0.00  0.00     0.000 O
ATOM     23   O  NAG B   2      14.059  53.975   4.7300  0.00  0.00     0.000 O
ATOM     25  HD  NAG B   2      14.549  54.429   5.2810  0.00  0.00     0.000 HD
ATOM     25   C  NAG B   2      13.595  52.262   7.1010  0.00  0.00     0.000 C
ATOM     26   O  NAG B   2      14.431  52.660   8.1990  0.00  0.00     0.000 O
ATOM     28  HD  NAG B   2      14.921  53.114   8.7500  0.00  0.00     0.000 HD
BRANCH 18 30
ATOM     28   N  NAG B   2      10.480  56.948   6.6230  0.00  0.00     0.000 N
ATOM     30  HD  NAG B   2      11.123  57.518   6.7300  0.00  0.00     0.000 HD
ATOM     30   C  NAG B   2      10.492  58.268   6.8440  0.00  0.00     0.000 C
ATOM     31   C  NAG B   2       9.177  58.994   6.7960  0.00  0.00     0.000 C
ATOM     32   O  NAG B   2      11.520  58.869   7.0800  0.00  0.00     0.000 OA
ENDBRANCH 18 30
BRANCH 17 33
ATOM     33  O4  GCU B   3      10.351  55.512   8.5890  0.00  0.00     0.000 O
BRANCH 33 37
ATOM     34  C1  GCU B   3       7.522  53.858  11.1570  0.00  0.00     0.000 C
ATOM     35  C2  GCU B   3       8.991  53.512  11.4020  0.00  0.00     0.000 C
ATOM     36  C3  GCU B   3       9.874  54.507  10.6780  0.00  0.00     0.000 C
ATOM     37  C4  GCU B   3       9.499  54.543   9.2030  0.00  0.00     0.000 C
ATOM     38  C5  GCU B   3       8.018  54.898   9.0570  0.00  0.00     0.000 C
ATOM     39  O5  GCU B   3       7.243  53.918   9.7550  0.00  0.00     0.000 O
ATOM     40   O  GCU B   3       9.249  53.555  12.8070  0.00  0.00     0.000 O
ATOM     42  HD  GCU B   3       9.796  53.882  13.3930  0.00  0.00     0.000 HD
ATOM     42   O  GCU B   3      11.264  54.169  10.8270  0.00  0.00     0.000 O
ATOM     44  HD  GCU B   3      11.812  54.496  11.4130  0.00  0.00     0.000 HD
BRANCH 38 44
ATOM     44   C  GCU B   3       7.566  54.929   7.6190  0.00  0.00     0.000 C
ATOM     45   O  GCU B   3       7.152  53.879   7.1040  0.00  0.00     0.000 OA
ATOM     46   O  GCU B   3       7.612  55.997   6.9790  0.00  0.00     0.000 OA
ENDBRANCH 38 44
BRANCH 34 47
ATOM     47  O3  NAG B   4       6.768  52.870  11.6190  0.00  0.00     0.000 O
BRANCH 47 50
ATOM     48  C1  NAG B   4       3.103  52.434  11.9780  0.00  0.00     0.000 C
ATOM     49  C2  NAG B   4       4.431  53.171  11.8400  0.00  0.00     0.000 C
ATOM     50  C3  NAG B   4       5.520  52.260  11.2960  0.00  0.00     0.000 C
ATOM     51  C4  NAG B   4       5.482  50.840  11.8730  0.00  0.00     0.000 C
ATOM     52  C5  NAG B   4       4.157  50.159  11.5750  0.00  0.00     0.000 C
ATOM     53  O5  NAG B   4       3.004  51.014  11.7400  0.00  0.00     0.000 O
BRANCH 49 56
ATOM     54   N  NAG B   4       4.305  53.916  10.5750  0.00  0.00     0.000 N
ATOM     56  HD  NAG B   4       4.592  53.651   9.8010  0.00  0.00     0.000 HD
ATOM     56   C  NAG B   4       3.761  55.726   9.0520  0.00  0.00     0.000 C
ATOM     57   O  NAG B   4       3.651  55.936  11.3850  0.00  0.00     0.000 OA
ATOM     58   C  NAG B   4       3.910  55.198  10.4460  0.00  0.00     0.000 C
ENDBRANCH 49 56
ATOM     59   O  NAG B   4       2.994  48.020  11.9820  0.00  0.00     0.000 O
ATOM     61  HD  NAG B   4       3.155  48.834  12.2280  0.00  0.00     0.000 HD
ATOM     61   O  NAG B   4       2.994  48.020  11.9820  0.00  0.00     0.000 O
ATOM     63  HD  NAG B   4       3.155  48.834  12.2280  0.00  0.00     0.000 HD
ENDBRANCH 47 50
ENDBRANCH 34 47
ENDBRANCH 33 37
ENDBRANCH 17 33
ENDBRANCH 16 19
ENDBRANCH 1 16
TORSDOF 10
ENDMDL
MODEL 24
REMARK VINA RESULT:      -4.4     23.363     28.676
ROOT
ATOM      1  C1  GCU B   1      17.710  20.258  33.9690  0.00  0.00     0.000 C
ATOM      2  C2  GCU B   1      18.074  21.548  33.2500  0.00  0.00     0.000 C
ATOM      3  C3  GCU B   1      18.497  21.258  31.8180  0.00  0.00     0.000 C
ATOM      4  C4  GCU B   1      19.569  20.180  31.7960  0.00  0.00     0.000 C
ATOM      5  C5  GCU B   1      19.131  18.952  32.5960  0.00  0.00     0.000 C
ATOM      6  O5  GCU B   1      18.824  19.351  33.9390  0.00  0.00     0.000 O
ATOM      7   O  GCU B   1      16.929  22.395  33.2760  0.00  0.00     0.000 O
ATOM      9  HD  GCU B   1      16.907  23.217  33.5480  0.00  0.00     0.000 HD
ATOM      9   O  GCU B   1      18.990  22.444  31.1890  0.00  0.00     0.000 O
ATOM     11  HD  GCU B   1      18.968  23.265  31.4610  0.00  0.00     0.000 HD
ATOM     11   O  GCU B   1      19.822  19.808  30.4400  0.00  0.00     0.000 O
ATOM     13  HD  GCU B   1      19.800  20.630  30.7130  0.00  0.00     0.000 HD
ENDROOT
BRANCH 5 13
ATOM     13   C  GCU B   1      20.207  17.894  32.5450  0.00  0.00     0.000 C
ATOM     14   O  GCU B   1      20.995  17.748  33.5020  0.00  0.00     0.000 OA
ATOM     15   O  GCU B   1      20.252  17.170  31.5320  0.00  0.00     0.000 OA
ENDBRANCH 5 13
BRANCH 1 16
ATOM     16  O3  NAG B   2      17.752  20.019  35.2810  0.00  0.00     0.000 O
BRANCH 16 19
ATOM     17  C1  NAG B   2      15.182  19.476  37.9880  0.00  0.00     0.000 C
ATOM     18  C2  NAG B   2      15.941  20.229  36.9030  0.00  0.00     0.000 C
ATOM     19  C3  NAG B   2      16.903  19.288  36.1790  0.00  0.00     0.000 C
ATOM     20  C4  NAG B   2      17.791  18.558  37.1860  0.00  0.00     0.000 C
ATOM     21  C5  NAG B   2      16.926  17.842  38.2130  0.00  0.00     0.000 C
ATOM     22  O5  NAG B   2      16.093  18.810  38.8760  0.00  0.00     0.000 O
ATOM     23   O  NAG B   2      18.618  17.633  36.4700  0.00  0.00     0.000 O
ATOM     25  HD  NAG B   2      19.011  18.311  36.8390  0.00  0.00     0.000 HD
ATOM     25   C  NAG B   2      17.749  17.074  39.2460  0.00  0.00     0.000 C
ATOM     26   O  NAG B   2      18.390  17.959  40.1770  0.00  0.00     0.000 O
ATOM     28  HD  NAG B   2      18.783  18.637  40.5460  0.00  0.00     0.000 HD
BRANCH 18 30
ATOM     28   N  NAG B   2      15.308  21.532  36.9830  0.00  0.00     0.000 N
ATOM     30  HD  NAG B   2      15.158  21.289  36.1660  0.00  0.00     0.000 HD
ATOM     30   C  NAG B   2      14.775  22.168  35.9330  0.00  0.00     0.000 C
ATOM     31   C  NAG B   2      14.194  23.534  36.1680  0.00  0.00     0.000 C
ATOM     32   O  NAG B   2      14.756  21.671  34.8250  0.00  0.00     0.000 OA
ENDBRANCH 18 30
BRANCH 17 33
ATOM     33  O4  GCU B   3      14.322  20.422  38.6550  0.00  0.00     0.000 O
BRANCH 33 37
ATOM     34  C1  GCU B   3      10.515  19.952  40.2710  0.00  0.00     0.000 C
ATOM     35  C2  GCU B   3      11.711  19.639  41.1710  0.00  0.00     0.000 C
ATOM     36  C3  GCU B   3      12.962  20.259  40.5840  0.00  0.00     0.000 C
ATOM     37  C4  GCU B   3      13.143  19.785  39.1490  0.00  0.00     0.000 C
ATOM     38  C5  GCU B   3      11.903  20.142  38.3280  0.00  0.00     0.000 C
ATOM     39  O5  GCU B   3      10.763  19.520  38.9310  0.00  0.00     0.000 O
ATOM     40   O  GCU B   3      11.462  20.168  42.4750  0.00  0.00     0.000 O
ATOM     42  HD  GCU B   3      11.819  20.654  43.0960  0.00  0.00     0.000 HD
ATOM     42   O  GCU B   3      14.122  19.924  41.3670  0.00  0.00     0.000 O
ATOM     44  HD  GCU B   3      14.479  20.409  41.9890  0.00  0.00     0.000 HD
BRANCH 38 44
ATOM     44   C  GCU B   3      11.999  19.679  36.8960  0.00  0.00     0.000 C
ATOM     45   O  GCU B   3      11.948  20.528  35.9930  0.00  0.00     0.000 OA
ATOM     46   O  GCU B   3      12.132  18.466  36.6470  0.00  0.00     0.000 OA
ENDBRANCH 38 44
BRANCH 34 47
ATOM     47  O3  NAG B   4       9.475  19.237  40.6800  0.00  0.00     0.000 O
BRANCH 47 50
ATOM     48  C1  NAG B   4       6.437  21.350  40.9200  0.00  0.00     0.000 C
ATOM     49  C2  NAG B   4       7.723  20.789  40.3240  0.00  0.00     0.000 C
ATOM     50  C3  NAG B   4       8.091  19.453  40.9490  0.00  0.00     0.000 C
ATOM     51  C4  NAG B   4       7.851  19.392  42.4620  0.00  0.00     0.000 C
ATOM     52  C5  NAG B   4       6.390  19.642  42.7980  0.00  0.00     0.000 C
ATOM     53  O5  NAG B   4       5.783  20.708  42.0340  0.00  0.00     0.000 O
BRANCH 49 56
ATOM     54   N  NAG B   4       7.156  20.254  39.0740  0.00  0.00     0.000 N
ATOM     56  HD  NAG B   4       6.605  19.588  39.0130  0.00  0.00     0.000 HD
ATOM     56   C  NAG B   4       6.764  19.981  36.6940  0.00  0.00     0.000 C
ATOM     57   O  NAG B   4       8.477  21.325  37.5660  0.00  0.00     0.000 OA
ATOM     58   C  NAG B   4       7.547  20.575  37.8250  0.00  0.00     0.000 C
ENDBRANCH 49 56
ATOM     59   O  NAG B   4       4.901  19.805  44.7600  0.00  0.00     0.000 O
ATOM     61  HD  NAG B   4       5.411  20.200  44.1830  0.00  0.00     0.000 HD
ATOM     61   O  NAG B   4       4.901  19.805  44.7600  0.00  0.00     0.000 O
ATOM     63  HD  NAG B   4       5.411  20.200  44.1830  0.00  0.00     0.000 HD
ENDBRANCH 47 50
ENDBRANCH 34 47
ENDBRANCH 33 37
ENDBRANCH 17 33
ENDBRANCH 16 19
ENDBRANCH 1 16
TORSDOF 10
ENDMDL
MODEL 25
REMARK VINA RESULT:      -4.4     16.971     18.993
ROOT
ATOM      1  C1  GCU B   1      19.075  23.664  18.7330  0.00  0.00     0.000 C
ATOM      2  C2  GCU B   1      18.136  23.788  19.9220  0.00  0.00     0.000 C
ATOM      3  C3  GCU B   1      18.572  22.857  21.0430  0.00  0.00     0.000 C
ATOM      4  C4  GCU B   1      18.760  21.445  20.5100  0.00  0.00     0.000 C
ATOM      5  C5  GCU B   1      19.670  21.438  19.2800  0.00  0.00     0.000 C
ATOM      6  O5  GCU B   1      19.114  22.301  18.2800  0.00  0.00     0.000 O
ATOM      7   O  GCU B   1      18.162  25.144  20.3550  0.00  0.00     0.000 O
ATOM      9  HD  GCU B   1      17.473  25.655  20.4770  0.00  0.00     0.000 HD
ATOM      9   O  GCU B   1      17.606  22.851  22.0980  0.00  0.00     0.000 O
ATOM     11  HD  GCU B   1      16.917  23.361  22.2200  0.00  0.00     0.000 HD
ATOM     11   O  GCU B   1      19.332  20.636  21.5390  0.00  0.00     0.000 O
ATOM     13  HD  GCU B   1      18.643  21.146  21.6610  0.00  0.00     0.000 HD
ENDROOT
BRANCH 5 13
ATOM     13   C  GCU B   1      19.850  20.024  18.7820  0.00  0.00     0.000 C
ATOM     14   O  GCU B   1      19.317  19.659  17.7140  0.00  0.00     0.000 OA
ATOM     15   O  GCU B   1      20.567  19.263  19.4610  0.00  0.00     0.000 OA
ENDBRANCH 5 13
BRANCH 1 16
ATOM     16  O3  NAG B   2      18.802  23.918  17.4510  0.00  0.00     0.000 O
BRANCH 16 19
ATOM     17  C1  NAG B   2      20.417  26.250  14.9650  0.00  0.00     0.000 C
ATOM     18  C2  NAG B   2      19.728  25.835  16.2590  0.00  0.00     0.000 C
ATOM     19  C3  NAG B   2      19.607  24.314  16.3300  0.00  0.00     0.000 C
ATOM     20  C4  NAG B   2      18.952  23.772  15.0590  0.00  0.00     0.000 C
ATOM     21  C5  NAG B   2      19.726  24.247  13.8380  0.00  0.00     0.000 C
ATOM     22  O5  NAG B   2      19.745  25.685  13.8280  0.00  0.00     0.000 O
ATOM     23   O  NAG B   2      18.931  22.342  15.1370  0.00  0.00     0.000 O
ATOM     25  HD  NAG B   2      18.169  22.752  15.1780  0.00  0.00     0.000 HD
ATOM     25   C  NAG B   2      19.136  23.729  12.5270  0.00  0.00     0.000 C
ATOM     26   O  NAG B   2      17.908  24.397  12.1980  0.00  0.00     0.000 O
ATOM     28  HD  NAG B   2      17.146  24.806  12.2390  0.00  0.00     0.000 HD
BRANCH 18 30
ATOM     28   N  NAG B   2      20.506  26.721  17.1030  0.00  0.00     0.000 N
ATOM     30  HD  NAG B   2      19.742  26.681  17.5100  0.00  0.00     0.000 HD
ATOM     30   C  NAG B   2      20.005  27.376  18.1580  0.00  0.00     0.000 C
ATOM     31   C  NAG B   2      20.927  28.296  18.9090  0.00  0.00     0.000 C
ATOM     32   O  NAG B   2      18.848  27.244  18.5040  0.00  0.00     0.000 OA
ENDBRANCH 18 30
BRANCH 17 33
ATOM     33  O4  GCU B   3      20.469  27.691  14.9420  0.00  0.00     0.000 O
BRANCH 33 37
ATOM     34  C1  GCU B   3      22.526  30.295  12.4280  0.00  0.00     0.000 C
ATOM     35  C2  GCU B   3      21.155  29.798  11.9670  0.00  0.00     0.000 C
ATOM     36  C3  GCU B   3      20.396  29.235  13.1500  0.00  0.00     0.000 C
ATOM     37  C4  GCU B   3      21.232  28.159  13.8290  0.00  0.00     0.000 C
ATOM     38  C5  GCU B   3      22.578  28.747  14.2550  0.00  0.00     0.000 C
ATOM     39  O5  GCU B   3      23.244  29.252  13.0930  0.00  0.00     0.000 O
ATOM     40   O  GCU B   3      20.435  30.892  11.3930  0.00  0.00     0.000 O
ATOM     42  HD  GCU B   3      19.670  31.297  11.4200  0.00  0.00     0.000 HD
ATOM     42   O  GCU B   3      19.128  28.692  12.7400  0.00  0.00     0.000 O
ATOM     44  HD  GCU B   3      18.363  29.097  12.7670  0.00  0.00     0.000 HD
BRANCH 38 44
ATOM     44   C  GCU B   3      23.474  27.729  14.9150  0.00  0.00     0.000 C
ATOM     45   O  GCU B   3      24.216  27.038  14.2000  0.00  0.00     0.000 OA
ATOM     46   O  GCU B   3      23.458  27.602  16.1550  0.00  0.00     0.000 OA
ENDBRANCH 38 44
BRANCH 34 47
ATOM     47  O3  NAG B   4      23.254  30.591  11.3600  0.00  0.00     0.000 O
BRANCH 47 50
ATOM     48  C1  NAG B   4      26.623  32.119  11.6220  0.00  0.00     0.000 C
ATOM     49  C2  NAG B   4      25.577  31.014  11.5240  0.00  0.00     0.000 C
ATOM     50  C3  NAG B   4      24.252  31.544  11.0000  0.00  0.00     0.000 C
ATOM     51  C4  NAG B   4      23.872  32.919  11.5610  0.00  0.00     0.000 C
ATOM     52  C5  NAG B   4      24.923  33.963  11.2220  0.00  0.00     0.000 C
ATOM     53  O5  NAG B   4      26.283  33.498  11.3670  0.00  0.00     0.000 O
BRANCH 49 56
ATOM     54   N  NAG B   4      26.159  29.931  10.7120  0.00  0.00     0.000 N
ATOM     56  HD  NAG B   4      26.507  29.200  11.0190  0.00  0.00     0.000 HD
ATOM     56   C  NAG B   4      26.927  28.731   8.7470  0.00  0.00     0.000 C
ATOM     57   O  NAG B   4      26.260  30.979   8.6970  0.00  0.00     0.000 OA
ATOM     58   C  NAG B   4      26.424  29.986   9.3910  0.00  0.00     0.000 C
ENDBRANCH 49 56
ATOM     59   O  NAG B   4      25.394  36.360  11.5780  0.00  0.00     0.000 O
ATOM     61  HD  NAG B   4      25.491  35.539  11.8360  0.00  0.00     0.000 HD
ATOM     61   O  NAG B   4      25.394  36.360  11.5780  0.00  0.00     0.000 O
ATOM     63  HD  NAG B   4      25.491  35.539  11.8360  0.00  0.00     0.000 HD
ENDBRANCH 47 50
ENDBRANCH 34 47
ENDBRANCH 33 37
ENDBRANCH 17 33
ENDBRANCH 16 19
ENDBRANCH 1 16
TORSDOF 10
ENDMDL
MODEL 26
REMARK VINA RESULT:      -4.4     21.598     24.089
ROOT
ATOM      1  C1  GCU B   1      12.307  19.792  37.8560  0.00  0.00     0.000 C
ATOM      2  C2  GCU B   1      12.453  18.709  38.9130  0.00  0.00     0.000 C
ATOM      3  C3  GCU B   1      11.221  17.817  38.9350  0.00  0.00     0.000 C
ATOM      4  C4  GCU B   1       9.962  18.662  39.0430  0.00  0.00     0.000 C
ATOM      5  C5  GCU B   1       9.942  19.758  37.9760  0.00  0.00     0.000 C
ATOM      6  O5  GCU B   1      11.121  20.563  38.1070  0.00  0.00     0.000 O
ATOM      7   O  GCU B   1      13.618  17.952  38.5990  0.00  0.00     0.000 O
ATOM      9  HD  GCU B   1      14.273  17.776  39.1370  0.00  0.00     0.000 HD
ATOM      9   O  GCU B   1      11.283  16.898  40.0290  0.00  0.00     0.000 O
ATOM     11  HD  GCU B   1      11.938  16.722  40.5670  0.00  0.00     0.000 HD
ATOM     11   O  GCU B   1       8.822  17.816  38.8890  0.00  0.00     0.000 O
ATOM     13  HD  GCU B   1       9.477  17.639  39.4270  0.00  0.00     0.000 HD
ENDROOT
BRANCH 5 13
ATOM     13   C  GCU B   1       8.676  20.572  38.0990  0.00  0.00     0.000 C
ATOM     14   O  GCU B   1       8.166  21.103  37.0910  0.00  0.00     0.000 OA
ATOM     15   O  GCU B   1       8.159  20.662  39.2300  0.00  0.00     0.000 OA
ENDBRANCH 5 13
BRANCH 1 16
ATOM     16  O3  NAG B   2      12.893  20.991  37.8340  0.00  0.00     0.000 O
BRANCH 16 19
ATOM     17  C1  NAG B   2      15.447  22.455  35.4750  0.00  0.00     0.000 C
ATOM     18  C2  NAG B   2      14.852  21.450  36.4540  0.00  0.00     0.000 C
ATOM     19  C3  NAG B   2      13.406  21.820  36.7790  0.00  0.00     0.000 C
ATOM     20  C4  NAG B   2      13.318  23.276  37.2330  0.00  0.00     0.000 C
ATOM     21  C5  NAG B   2      13.936  24.183  36.1790  0.00  0.00     0.000 C
ATOM     22  O5  NAG B   2      15.306  23.794  35.9760  0.00  0.00     0.000 O
ATOM     23   O  NAG B   2      11.940  23.599  37.4510  0.00  0.00     0.000 O
ATOM     25  HD  NAG B   2      12.453  23.567  38.1480  0.00  0.00     0.000 HD
ATOM     25   C  NAG B   2      13.870  25.661  36.5590  0.00  0.00     0.000 C
ATOM     26   O  NAG B   2      14.802  25.983  37.6030  0.00  0.00     0.000 O
ATOM     28  HD  NAG B   2      15.315  25.951  38.2990  0.00  0.00     0.000 HD
BRANCH 18 30
ATOM     28   N  NAG B   2      15.907  20.480  36.6740  0.00  0.00     0.000 N
ATOM     30  HD  NAG B   2      15.309  20.026  36.2420  0.00  0.00     0.000 HD
ATOM     30   C  NAG B   2      15.804  19.182  36.3640  0.00  0.00     0.000 C
ATOM     31   C  NAG B   2      16.969  18.291  36.6950  0.00  0.00     0.000 C
ATOM     32   O  NAG B   2      14.809  18.726  35.8360  0.00  0.00     0.000 OA
ENDBRANCH 18 30
BRANCH 17 33
ATOM     33  O4  GCU B   3      16.817  22.074  35.2370  0.00  0.00     0.000 O
BRANCH 33 37
ATOM     34  C1  GCU B   3      19.176  22.340  31.8180  0.00  0.00     0.000 C
ATOM     35  C2  GCU B   3      18.847  23.638  32.5570  0.00  0.00     0.000 C
ATOM     36  C3  GCU B   3      18.370  23.318  33.9570  0.00  0.00     0.000 C
ATOM     37  C4  GCU B   3      17.199  22.348  33.8890  0.00  0.00     0.000 C
ATOM     38  C5  GCU B   3      17.622  21.083  33.1380  0.00  0.00     0.000 C
ATOM     39  O5  GCU B   3      18.052  21.456  31.8250  0.00  0.00     0.000 O
ATOM     40   O  GCU B   3      20.021  24.452  32.6090  0.00  0.00     0.000 O
ATOM     42  HD  GCU B   3      20.514  24.909  33.1550  0.00  0.00     0.000 HD
ATOM     42   O  GCU B   3      17.982  24.513  34.6580  0.00  0.00     0.000 O
ATOM     44  HD  GCU B   3      18.475  24.970  35.2040  0.00  0.00     0.000 HD
BRANCH 38 44
ATOM     44   C  GCU B   3      16.501  20.082  33.0080  0.00  0.00     0.000 C
ATOM     45   O  GCU B   3      16.786  18.875  32.9650  0.00  0.00     0.000 OA
ATOM     46   O  GCU B   3      15.322  20.479  32.9490  0.00  0.00     0.000 OA
ENDBRANCH 38 44
BRANCH 34 47
ATOM     47  O3  NAG B   4      19.392  22.619  30.5400  0.00  0.00     0.000 O
BRANCH 47 50
ATOM     48  C1  NAG B   4      22.899  21.861  29.6010  0.00  0.00     0.000 C
ATOM     49  C2  NAG B   4      21.532  21.651  30.2430  0.00  0.00     0.000 C
ATOM     50  C3  NAG B   4      20.478  22.550  29.6170  0.00  0.00     0.000 C
ATOM     51  C4  NAG B   4      20.977  23.967  29.3120  0.00  0.00     0.000 C
ATOM     52  C5  NAG B   4      22.153  23.941  28.3490  0.00  0.00     0.000 C
ATOM     53  O5  NAG B   4      23.118  22.902  28.6260  0.00  0.00     0.000 O
BRANCH 49 56
ATOM     54   N  NAG B   4      21.228  20.212  30.1590  0.00  0.00     0.000 N
ATOM     56  HD  NAG B   4      21.322  19.637  30.8000  0.00  0.00     0.000 HD
ATOM     56   C  NAG B   4      20.575  18.083  29.1920  0.00  0.00     0.000 C
ATOM     57   O  NAG B   4      20.966  20.008  27.9100  0.00  0.00     0.000 OA
ATOM     58   C  NAG B   4      20.949  19.525  29.0330  0.00  0.00     0.000 C
ENDBRANCH 49 56
ATOM     59   O  NAG B   4      23.708  25.489  27.2180  0.00  0.00     0.000 O
ATOM     61  HD  NAG B   4      23.534  24.976  27.8940  0.00  0.00     0.000 HD
ATOM     61   O  NAG B   4      23.708  25.489  27.2180  0.00  0.00     0.000 O
ATOM     63  HD  NAG B   4      23.534  24.976  27.8940  0.00  0.00     0.000 HD
ENDBRANCH 47 50
ENDBRANCH 34 47
ENDBRANCH 33 37
ENDBRANCH 17 33
ENDBRANCH 16 19
ENDBRANCH 1 16
TORSDOF 10
ENDMDL
MODEL 27
REMARK VINA RESULT:      -4.4     14.539     19.372
ROOT
ATOM      1  C1  GCU B   1      18.699  47.861  10.5240  0.00  0.00     0.000 C
ATOM      2  C2  GCU B   1      20.204  47.808  10.7360  0.00  0.00     0.000 C
ATOM      3  C3  GCU B   1      20.765  46.487  10.2340  0.00  0.00     0.000 C
ATOM      4  C4  GCU B   1      19.985  45.325  10.8300  0.00  0.00     0.000 C
ATOM      5  C5  GCU B   1      18.481  45.505  10.6170  0.00  0.00     0.000 C
ATOM      6  O5  GCU B   1      18.072  46.754  11.1900  0.00  0.00     0.000 O
ATOM      7   O  GCU B   1      20.780  48.902  10.0280  0.00  0.00     0.000 O
ATOM      9  HD  GCU B   1      21.323  49.492  10.3540  0.00  0.00     0.000 HD
ATOM      9   O  GCU B   1      22.149  46.365  10.5740  0.00  0.00     0.000 O
ATOM     11  HD  GCU B   1      22.693  46.955  10.9000  0.00  0.00     0.000 HD
ATOM     11   O  GCU B   1      20.419  44.112  10.2120  0.00  0.00     0.000 O
ATOM     13  HD  GCU B   1      20.963  44.702  10.5380  0.00  0.00     0.000 HD
ENDROOT
BRANCH 5 13
ATOM     13   C  GCU B   1      17.735  44.332  11.2050  0.00  0.00     0.000 C
ATOM     14   O  GCU B   1      18.181  43.739  12.2090  0.00  0.00     0.000 OA
ATOM     15   O  GCU B   1      16.658  44.009  10.6670  0.00  0.00     0.000 OA
ENDBRANCH 5 13
BRANCH 1 16
ATOM     16  O3  NAG B   2      17.806  48.577  11.2110  0.00  0.00     0.000 O
BRANCH 16 19
ATOM     17  C1  NAG B   2      15.490  51.319  10.0500  0.00  0.00     0.000 C
ATOM     18  C2  NAG B   2      16.810  50.583  10.2410  0.00  0.00     0.000 C
ATOM     19  C3  NAG B   2      16.564  49.207  10.8580  0.00  0.00     0.000 C
ATOM     20  C4  NAG B   2      15.719  49.335  12.1250  0.00  0.00     0.000 C
ATOM     21  C5  NAG B   2      14.430  50.080  11.8120  0.00  0.00     0.000 C
ATOM     22  O5  NAG B   2      14.758  51.378  11.2850  0.00  0.00     0.000 O
ATOM     23   O  NAG B   2      15.450  48.019  12.6230  0.00  0.00     0.000 O
ATOM     25  HD  NAG B   2      15.972  48.522  13.0970  0.00  0.00     0.000 HD
ATOM     25   C  NAG B   2      13.524  50.231  13.0330  0.00  0.00     0.000 C
ATOM     26   O  NAG B   2      14.040  51.201  13.9580  0.00  0.00     0.000 O
ATOM     28  HD  NAG B   2      14.561  51.704  14.4330  0.00  0.00     0.000 HD
BRANCH 18 30
ATOM     28   N  NAG B   2      17.334  50.856   8.9170  0.00  0.00     0.000 N
ATOM     30  HD  NAG B   2      18.041  50.878   9.4170  0.00  0.00     0.000 HD
ATOM     30   C  NAG B   2      18.607  51.191   8.6730  0.00  0.00     0.000 C
ATOM     31   C  NAG B   2      18.990  51.488   7.2500  0.00  0.00     0.000 C
ATOM     32   O  NAG B   2      19.433  51.258   9.5610  0.00  0.00     0.000 OA
ENDBRANCH 18 30
BRANCH 17 33
ATOM     33  O4  GCU B   3      15.791  52.618   9.5020  0.00  0.00     0.000 O
BRANCH 33 37
ATOM     34  C1  GCU B   3      13.370  55.342   7.4880  0.00  0.00     0.000 C
ATOM     35  C2  GCU B   3      13.380  55.395   9.0160  0.00  0.00     0.000 C
ATOM     36  C3  GCU B   3      14.595  54.660   9.5420  0.00  0.00     0.000 C
ATOM     37  C4  GCU B   3      14.614  53.243   8.9860  0.00  0.00     0.000 C
ATOM     38  C5  GCU B   3      14.605  53.289   7.4570  0.00  0.00     0.000 C
ATOM     39  O5  GCU B   3      13.431  53.988   7.0290  0.00  0.00     0.000 O
ATOM     40   O  GCU B   3      13.412  56.762   9.4320  0.00  0.00     0.000 O
ATOM     42  HD  GCU B   3      13.832  57.309   9.9560  0.00  0.00     0.000 HD
ATOM     42   O  GCU B   3      14.598  54.627  10.9800  0.00  0.00     0.000 O
ATOM     44  HD  GCU B   3      15.018  55.174  11.5050  0.00  0.00     0.000 HD
BRANCH 38 44
ATOM     44   C  GCU B   3      14.598  51.916   6.8330  0.00  0.00     0.000 C
ATOM     45   O  GCU B   3      13.539  51.270   6.8310  0.00  0.00     0.000 OA
ATOM     46   O  GCU B   3      15.643  51.460   6.3320  0.00  0.00     0.000 OA
ENDBRANCH 38 44
BRANCH 34 47
ATOM     47  O3  NAG B   4      12.207  55.804   7.0520  0.00  0.00     0.000 O
BRANCH 47 50
ATOM     48  C1  NAG B   4       8.884  55.998   5.4160  0.00  0.00     0.000 C
ATOM     49  C2  NAG B   4      10.392  56.163   5.5760  0.00  0.00     0.000 C
ATOM     50  C3  NAG B   4      10.936  55.272   6.6810  0.00  0.00     0.000 C
ATOM     51  C4  NAG B   4      10.032  55.201   7.9170  0.00  0.00     0.000 C
ATOM     52  C5  NAG B   4       8.656  54.662   7.5640  0.00  0.00     0.000 C
ATOM     53  O5  NAG B   4       8.117  55.188   6.3310  0.00  0.00     0.000 O
BRANCH 49 56
ATOM     54   N  NAG B   4      11.030  55.355   4.5210  0.00  0.00     0.000 N
ATOM     56  HD  NAG B   4      11.456  54.611   4.6430  0.00  0.00     0.000 HD
ATOM     56   C  NAG B   4      11.812  54.715   2.3150  0.00  0.00     0.000 C
ATOM     57   O  NAG B   4      10.946  56.839   2.8010  0.00  0.00     0.000 OA
ATOM     58   C  NAG B   4      11.228  55.735   3.2430  0.00  0.00     0.000 C
ENDBRANCH 49 56
ATOM     59   O  NAG B   4       6.491  54.150   8.6340  0.00  0.00     0.000 O
ATOM     61  HD  NAG B   4       6.992  54.713   8.2070  0.00  0.00     0.000 HD
ATOM     61   O  NAG B   4       6.491  54.150   8.6340  0.00  0.00     0.000 O
ATOM     63  HD  NAG B   4       6.992  54.713   8.2070  0.00  0.00     0.000 HD
ENDBRANCH 47 50
ENDBRANCH 34 47
ENDBRANCH 33 37
ENDBRANCH 17 33
ENDBRANCH 16 19
ENDBRANCH 1 16
TORSDOF 10
ENDMDL
MODEL 28
REMARK VINA RESULT:      -4.4     20.079     23.556
ROOT
ATOM      1  C1  GCU B   1      14.408  19.265  36.3790  0.00  0.00     0.000 C
ATOM      2  C2  GCU B   1      13.051  18.587  36.2820  0.00  0.00     0.000 C
ATOM      3  C3  GCU B   1      12.844  17.641  37.4550  0.00  0.00     0.000 C
ATOM      4  C4  GCU B   1      14.031  16.700  37.5880  0.00  0.00     0.000 C
ATOM      5  C5  GCU B   1      15.348  17.477  37.6150  0.00  0.00     0.000 C
ATOM      6  O5  GCU B   1      15.448  18.275  36.4280  0.00  0.00     0.000 O
ATOM      7   O  GCU B   1      12.057  19.606  36.2740  0.00  0.00     0.000 O
ATOM      9  HD  GCU B   1      11.422  19.697  35.6920  0.00  0.00     0.000 HD
ATOM      9   O  GCU B   1      11.643  16.884  37.2870  0.00  0.00     0.000 O
ATOM     11  HD  GCU B   1      11.008  16.975  36.7040  0.00  0.00     0.000 HD
ATOM     11   O  GCU B   1      13.890  15.945  38.7920  0.00  0.00     0.000 O
ATOM     13  HD  GCU B   1      13.256  16.036  38.2090  0.00  0.00     0.000 HD
ENDROOT
BRANCH 5 13
ATOM     13   C  GCU B   1      16.507  16.520  37.7610  0.00  0.00     0.000 C
ATOM     14   O  GCU B   1      16.367  15.312  37.4780  0.00  0.00     0.000 OA
ATOM     15   O  GCU B   1      17.596  16.990  38.1420  0.00  0.00     0.000 OA
ENDBRANCH 5 13
BRANCH 1 16
ATOM     16  O3  NAG B   2      15.143  19.761  35.3810  0.00  0.00     0.000 O
BRANCH 16 19
ATOM     17  C1  NAG B   2      16.572  23.233  35.0220  0.00  0.00     0.000 C
ATOM     18  C2  NAG B   2      15.514  22.171  35.2920  0.00  0.00     0.000 C
ATOM     19  C3  NAG B   2      16.150  20.782  35.3090  0.00  0.00     0.000 C
ATOM     20  C4  NAG B   2      16.968  20.555  34.0380  0.00  0.00     0.000 C
ATOM     21  C5  NAG B   2      17.990  21.671  33.8770  0.00  0.00     0.000 C
ATOM     22  O5  NAG B   2      17.299  22.931  33.8200  0.00  0.00     0.000 O
ATOM     23   O  NAG B   2      17.606  19.277  34.1350  0.00  0.00     0.000 O
ATOM     25  HD  NAG B   2      16.982  19.363  33.5410  0.00  0.00     0.000 HD
ATOM     25   C  NAG B   2      18.858  21.501  32.6320  0.00  0.00     0.000 C
ATOM     26   O  NAG B   2      18.126  21.791  31.4310  0.00  0.00     0.000 O
ATOM     28  HD  NAG B   2      17.502  21.877  30.8370  0.00  0.00     0.000 HD
BRANCH 18 30
ATOM     28   N  NAG B   2      14.892  22.836  36.4210  0.00  0.00     0.000 N
ATOM     30  HD  NAG B   2      14.221  22.468  36.0150  0.00  0.00     0.000 HD
ATOM     30   C  NAG B   2      13.568  22.913  36.6040  0.00  0.00     0.000 C
ATOM     31   C  NAG B   2      13.074  23.676  37.8010  0.00  0.00     0.000 C
ATOM     32   O  NAG B   2      12.783  22.391  35.8380  0.00  0.00     0.000 OA
ENDBRANCH 18 30
BRANCH 17 33
ATOM     33  O4  GCU B   3      15.906  24.512  34.9820  0.00  0.00     0.000 O
BRANCH 33 37
ATOM     34  C1  GCU B   3      17.408  28.361  35.4860  0.00  0.00     0.000 C
ATOM     35  C2  GCU B   3      17.416  27.776  34.0730  0.00  0.00     0.000 C
ATOM     36  C3  GCU B   3      16.472  26.594  34.0090  0.00  0.00     0.000 C
ATOM     37  C4  GCU B   3      16.845  25.583  35.0850  0.00  0.00     0.000 C
ATOM     38  C5  GCU B   3      16.808  26.256  36.4580  0.00  0.00     0.000 C
ATOM     39  O5  GCU B   3      17.725  27.355  36.4520  0.00  0.00     0.000 O
ATOM     40   O  GCU B   3      17.004  28.787  33.1510  0.00  0.00     0.000 O
ATOM     42  HD  GCU B   3      16.457  28.935  32.4960  0.00  0.00     0.000 HD
ATOM     42   O  GCU B   3      16.508  25.972  32.7120  0.00  0.00     0.000 O
ATOM     44  HD  GCU B   3      15.961  26.120  32.0570  0.00  0.00     0.000 HD
BRANCH 38 44
ATOM     44   C  GCU B   3      17.193  25.319  37.5760  0.00  0.00     0.000 C
ATOM     45   O  GCU B   3      18.394  25.060  37.7460  0.00  0.00     0.000 OA
ATOM     46   O  GCU B   3      16.308  24.828  38.3030  0.00  0.00     0.000 OA
ENDBRANCH 38 44
BRANCH 34 47
ATOM     47  O3  NAG B   4      18.383  29.255  35.5830  0.00  0.00     0.000 O
BRANCH 47 50
ATOM     48  C1  NAG B   4      18.944  32.919  35.7140  0.00  0.00     0.000 C
ATOM     49  C2  NAG B   4      18.305  31.602  35.2850  0.00  0.00     0.000 C
ATOM     50  C3  NAG B   4      18.618  30.485  36.2670  0.00  0.00     0.000 C
ATOM     51  C4  NAG B   4      20.058  30.508  36.7910  0.00  0.00     0.000 C
ATOM     52  C5  NAG B   4      20.363  31.814  37.5070  0.00  0.00     0.000 C
ATOM     53  O5  NAG B   4      19.838  32.986  36.8450  0.00  0.00     0.000 O
BRANCH 49 56
ATOM     54   N  NAG B   4      16.945  31.942  35.7390  0.00  0.00     0.000 N
ATOM     56  HD  NAG B   4      16.725  32.180  36.5420  0.00  0.00     0.000 HD
ATOM     56   C  NAG B   4      14.540  32.257  35.6610  0.00  0.00     0.000 C
ATOM     57   O  NAG B   4      15.751  31.205  33.9510  0.00  0.00     0.000 OA
ATOM     58   C  NAG B   4      15.806  31.747  35.0450  0.00  0.00     0.000 C
ENDBRANCH 49 56
ATOM     59   O  NAG B   4      22.222  32.945  38.6720  0.00  0.00     0.000 O
ATOM     61  HD  NAG B   4      21.783  32.805  37.9390  0.00  0.00     0.000 HD
ATOM     61   O  NAG B   4      22.222  32.945  38.6720  0.00  0.00     0.000 O
ATOM     63  HD  NAG B   4      21.783  32.805  37.9390  0.00  0.00     0.000 HD
ENDBRANCH 47 50
ENDBRANCH 34 47
ENDBRANCH 33 37
ENDBRANCH 17 33
ENDBRANCH 16 19
ENDBRANCH 1 16
TORSDOF 10
ENDMDL
MODEL 29
REMARK VINA RESULT:      -4.2     20.336     23.787
ROOT
ATOM      1  C1  GCU B   1      14.443  19.219  36.3840  0.00  0.00     0.000 C
ATOM      2  C2  GCU B   1      13.082  18.547  36.2820  0.00  0.00     0.000 C
ATOM      3  C3  GCU B   1      12.866  17.602  37.4530  0.00  0.00     0.000 C
ATOM      4  C4  GCU B   1      14.048  16.654  37.5890  0.00  0.00     0.000 C
ATOM      5  C5  GCU B   1      15.369  17.425  37.6220  0.00  0.00     0.000 C
ATOM      6  O5  GCU B   1      15.477  18.223  36.4360  0.00  0.00     0.000 O
ATOM      7   O  GCU B   1      12.093  19.572  36.2710  0.00  0.00     0.000 O
ATOM      9  HD  GCU B   1      11.462  19.667  35.6860  0.00  0.00     0.000 HD
ATOM      9   O  GCU B   1      11.661  16.851  37.2790  0.00  0.00     0.000 O
ATOM     11  HD  GCU B   1      11.030  16.946  36.6940  0.00  0.00     0.000 HD
ATOM     11   O  GCU B   1      13.898  15.899  38.7920  0.00  0.00     0.000 O
ATOM     13  HD  GCU B   1      13.266  15.994  38.2070  0.00  0.00     0.000 HD
ENDROOT
BRANCH 5 13
ATOM     13   C  GCU B   1      16.522  16.461  37.7710  0.00  0.00     0.000 C
ATOM     14   O  GCU B   1      16.374  15.252  37.4960  0.00  0.00     0.000 OA
ATOM     15   O  GCU B   1      17.614  16.927  38.1480  0.00  0.00     0.000 OA
ENDBRANCH 5 13
BRANCH 1 16
ATOM     16  O3  NAG B   2      15.184  19.712  35.3900  0.00  0.00     0.000 O
BRANCH 16 19
ATOM     17  C1  NAG B   2      16.563  23.206  35.0430  0.00  0.00     0.000 C
ATOM     18  C2  NAG B   2      15.521  22.127  35.3130  0.00  0.00     0.000 C
ATOM     19  C3  NAG B   2      16.176  20.747  35.3180  0.00  0.00     0.000 C
ATOM     20  C4  NAG B   2      16.988  20.539  34.0390  0.00  0.00     0.000 C
ATOM     21  C5  NAG B   2      17.994  21.670  33.8780  0.00  0.00     0.000 C
ATOM     22  O5  NAG B   2      17.285  22.921  33.8340  0.00  0.00     0.000 O
ATOM     23   O  NAG B   2      17.644  19.269  34.1230  0.00  0.00     0.000 O
ATOM     25  HD  NAG B   2      17.015  19.351  33.5340  0.00  0.00     0.000 HD
ATOM     25   C  NAG B   2      18.855  21.520  32.6250  0.00  0.00     0.000 C
ATOM     26   O  NAG B   2      18.110  21.807  31.4320  0.00  0.00     0.000 O
ATOM     28  HD  NAG B   2      17.481  21.888  30.8420  0.00  0.00     0.000 HD
BRANCH 18 30
ATOM     28   N  NAG B   2      14.899  22.743  36.4700  0.00  0.00     0.000 N
ATOM     30  HD  NAG B   2      14.226  22.409  36.0380  0.00  0.00     0.000 HD
ATOM     30   C  NAG B   2      13.574  22.834  36.6440  0.00  0.00     0.000 C
ATOM     31   C  NAG B   2      13.081  23.542  37.8750  0.00  0.00     0.000 C
ATOM     32   O  NAG B   2      12.789  22.367  35.8440  0.00  0.00     0.000 OA
ENDBRANCH 18 30
BRANCH 17 33
ATOM     33  O4  GCU B   3      15.879  24.475  35.0150  0.00  0.00     0.000 O
BRANCH 33 37
ATOM     34  C1  GCU B   3      17.332  28.338  35.5640  0.00  0.00     0.000 C
ATOM     35  C2  GCU B   3      17.327  27.776  34.1420  0.00  0.00     0.000 C
ATOM     36  C3  GCU B   3      16.400  26.581  34.0710  0.00  0.00     0.000 C
ATOM     37  C4  GCU B   3      16.803  25.558  35.1240  0.00  0.00     0.000 C
ATOM     38  C5  GCU B   3      16.776  26.207  36.5090  0.00  0.00     0.000 C
ATOM     39  O5  GCU B   3      17.677  27.320  36.5090  0.00  0.00     0.000 O
ATOM     40   O  GCU B   3      16.888  28.797  33.2430  0.00  0.00     0.000 O
ATOM     42  HD  GCU B   3      16.330  28.947  32.5980  0.00  0.00     0.000 HD
ATOM     42   O  GCU B   3      16.427  25.982  32.7630  0.00  0.00     0.000 O
ATOM     44  HD  GCU B   3      15.869  26.133  32.1180  0.00  0.00     0.000 HD
BRANCH 38 44
ATOM     44   C  GCU B   3      17.190  25.258  37.6050  0.00  0.00     0.000 C
ATOM     45   O  GCU B   3      18.397  25.009  37.7500  0.00  0.00     0.000 OA
ATOM     46   O  GCU B   3      16.324  24.746  38.3390  0.00  0.00     0.000 OA
ENDBRANCH 38 44
BRANCH 34 47
ATOM     47  O3  NAG B   4      18.294  29.244  35.6630  0.00  0.00     0.000 O
BRANCH 47 50
ATOM     48  C1  NAG B   4      19.244  31.464  38.4780  0.00  0.00     0.000 C
ATOM     49  C2  NAG B   4      19.353  30.301  37.4970  0.00  0.00     0.000 C
ATOM     50  C3  NAG B   4      18.478  30.520  36.2730  0.00  0.00     0.000 C
ATOM     51  C4  NAG B   4      17.110  31.134  36.5940  0.00  0.00     0.000 C
ATOM     52  C5  NAG B   4      17.259  32.487  37.2700  0.00  0.00     0.000 C
ATOM     53  O5  NAG B   4      18.300  32.535  38.2700  0.00  0.00     0.000 O
BRANCH 49 56
ATOM     54   N  NAG B   4      20.647  30.695  36.9140  0.00  0.00     0.000 N
ATOM     56  HD  NAG B   4      20.812  31.441  36.5060  0.00  0.00     0.000 HD
ATOM     56   C  NAG B   4      22.966  30.530  36.2160  0.00  0.00     0.000 C
ATOM     57   O  NAG B   4      21.730  28.699  37.0050  0.00  0.00     0.000 OA
ATOM     58   C  NAG B   4      21.716  29.893  36.7420  0.00  0.00     0.000 C
ENDBRANCH 49 56
ATOM     59   O  NAG B   4      15.866  34.295  38.2120  0.00  0.00     0.000 O
ATOM     61  HD  NAG B   4      16.312  33.563  38.3340  0.00  0.00     0.000 HD
ATOM     61   O  NAG B   4      15.866  34.295  38.2120  0.00  0.00     0.000 O
ATOM     63  HD  NAG B   4      16.312  33.563  38.3340  0.00  0.00     0.000 HD
ENDBRANCH 47 50
ENDBRANCH 34 47
ENDBRANCH 33 37
ENDBRANCH 17 33
ENDBRANCH 16 19
ENDBRANCH 1 16
TORSDOF 10
ENDMDL
MODEL 30
REMARK VINA RESULT:      -4.2     11.352     18.301
ROOT
ATOM      1  C1  GCU B   1      13.183  54.944   8.4720  0.00  0.00     0.000 C
ATOM      2  C2  GCU B   1      13.507  56.427   8.3790  0.00  0.00     0.000 C
ATOM      3  C3  GCU B   1      12.441  57.249   9.0870  0.00  0.00     0.000 C
ATOM      4  C4  GCU B   1      11.058  56.856   8.5910  0.00  0.00     0.000 C
ATOM      5  C5  GCU B   1      10.857  55.341   8.6690  0.00  0.00     0.000 C
ATOM      6  O5  GCU B   1      11.885  54.691   7.9100  0.00  0.00     0.000 O
ATOM      7   O  GCU B   1      14.782  56.630   8.9800  0.00  0.00     0.000 O
ATOM      9  HD  GCU B   1      15.457  57.037   8.6220  0.00  0.00     0.000 HD
ATOM      9   O  GCU B   1      12.654  58.646   8.8690  0.00  0.00     0.000 O
ATOM     11  HD  GCU B   1      13.329  59.054   8.5100  0.00  0.00     0.000 HD
ATOM     11   O  GCU B   1      10.076  57.516   9.3910  0.00  0.00     0.000 O
ATOM     13  HD  GCU B   1      10.751  57.923   9.0320  0.00  0.00     0.000 HD
ENDROOT
BRANCH 5 13
ATOM     13   C  GCU B   1       9.473  54.982   8.1840  0.00  0.00     0.000 C
ATOM     14   O  GCU B   1       8.504  55.000   8.9700  0.00  0.00     0.000 OA
ATOM     15   O  GCU B   1       9.343  54.700   6.9770  0.00  0.00     0.000 OA
ENDBRANCH 5 13
BRANCH 1 16
ATOM     16  O3  NAG B   2      13.561  53.975   7.6350  0.00  0.00     0.000 O
BRANCH 16 19
ATOM     17  C1  NAG B   2      15.068  50.730   8.8270  0.00  0.00     0.000 C
ATOM     18  C2  NAG B   2      14.775  52.225   8.8250  0.00  0.00     0.000 C
ATOM     19  C3  NAG B   2      13.716  52.555   7.7740  0.00  0.00     0.000 C
ATOM     20  C4  NAG B   2      14.118  51.984   6.4150  0.00  0.00     0.000 C
ATOM     21  C5  NAG B   2      14.381  50.490   6.5400  0.00  0.00     0.000 C
ATOM     22  O5  NAG B   2      15.422  50.280   7.5100  0.00  0.00     0.000 O
ATOM     23   O  NAG B   2      13.063  52.249   5.4840  0.00  0.00     0.000 O
ATOM     25  HD  NAG B   2      13.811  52.669   5.3630  0.00  0.00     0.000 HD
ATOM     25   C  NAG B   2      14.774  49.847   5.2120  0.00  0.00     0.000 C
ATOM     26   O  NAG B   2      16.110  50.204   4.8240  0.00  0.00     0.000 O
ATOM     28  HD  NAG B   2      16.857  50.624   4.7030  0.00  0.00     0.000 HD
BRANCH 18 30
ATOM     28   N  NAG B   2      14.601  52.384  10.2560  0.00  0.00     0.000 N
ATOM     30  HD  NAG B   2      15.020  53.107  10.0260  0.00  0.00     0.000 HD
ATOM     30   C  NAG B   2      15.134  53.387  10.9650  0.00  0.00     0.000 C
ATOM     31   C  NAG B   2      14.901  53.391  12.4500  0.00  0.00     0.000 C
ATOM     32   O  NAG B   2      15.786  54.267  10.4400  0.00  0.00     0.000 OA
ENDBRANCH 18 30
BRANCH 17 33
ATOM     33  O4  GCU B   3      16.097  50.490   9.8090  0.00  0.00     0.000 O
BRANCH 33 37
ATOM     34  C1  GCU B   3      17.396  46.944  11.5620  0.00  0.00     0.000 C
ATOM     35  C2  GCU B   3      18.036  47.357  10.2360  0.00  0.00     0.000 C
ATOM     36  C3  GCU B   3      17.770  48.825   9.9800  0.00  0.00     0.000 C
ATOM     37  C4  GCU B   3      16.272  49.090  10.0370  0.00  0.00     0.000 C
ATOM     38  C5  GCU B   3      15.723  48.650  11.3950  0.00  0.00     0.000 C
ATOM     39  O5  GCU B   3      16.000  47.257  11.5690  0.00  0.00     0.000 O
ATOM     40   O  GCU B   3      19.443  47.114  10.3060  0.00  0.00     0.000 O
ATOM     42  HD  GCU B   3      20.210  47.490  10.1630  0.00  0.00     0.000 HD
ATOM     42   O  GCU B   3      18.296  49.231   8.7040  0.00  0.00     0.000 O
ATOM     44  HD  GCU B   3      19.064  49.607   8.5610  0.00  0.00     0.000 HD
BRANCH 38 44
ATOM     44   C  GCU B   3      14.234  48.860  11.5170  0.00  0.00     0.000 C
ATOM     45   O  GCU B   3      13.822  49.930  11.9900  0.00  0.00     0.000 OA
ATOM     46   O  GCU B   3      13.452  47.967  11.1400  0.00  0.00     0.000 OA
ENDBRANCH 38 44
BRANCH 34 47
ATOM     47  O3  NAG B   4      17.457  45.625  11.6740  0.00  0.00     0.000 O
BRANCH 47 50
ATOM     48  C1  NAG B   4      18.028  44.386  15.1230  0.00  0.00     0.000 C
ATOM     49  C2  NAG B   4      17.276  45.012  13.9530  0.00  0.00     0.000 C
ATOM     50  C3  NAG B   4      17.928  44.670  12.6240  0.00  0.00     0.000 C
ATOM     51  C4  NAG B   4      19.460  44.702  12.6610  0.00  0.00     0.000 C
ATOM     52  C5  NAG B   4      20.007  43.716  13.6800  0.00  0.00     0.000 C
ATOM     53  O5  NAG B   4      19.276  43.689  14.9260  0.00  0.00     0.000 O
BRANCH 49 56
ATOM     54   N  NAG B   4      15.874  44.579  14.0920  0.00  0.00     0.000 N
ATOM     56  HD  NAG B   4      15.243  45.027  14.4800  0.00  0.00     0.000 HD
ATOM     56   C  NAG B   4      13.914  43.156  13.9410  0.00  0.00     0.000 C
ATOM     57   O  NAG B   4      16.084  42.404  13.4680  0.00  0.00     0.000 OA
ATOM     58   C  NAG B   4      15.394  43.349  13.8200  0.00  0.00     0.000 C
ENDBRANCH 49 56
ATOM     59   O  NAG B   4      22.165  42.939  14.5930  0.00  0.00     0.000 O
ATOM     61  HD  NAG B   4      21.487  43.474  14.6490  0.00  0.00     0.000 HD
ATOM     61   O  NAG B   4      22.165  42.939  14.5930  0.00  0.00     0.000 O
ATOM     63  HD  NAG B   4      21.487  43.474  14.6490  0.00  0.00     0.000 HD
ENDBRANCH 47 50
ENDBRANCH 34 47
ENDBRANCH 33 37
ENDBRANCH 17 33
ENDBRANCH 16 19
ENDBRANCH 1 16
TORSDOF 10
ENDMDL
MODEL 31
REMARK VINA RESULT:      -4.0     18.040     20.936
ROOT
ATOM      1  C1  GCU B   1      19.312  23.395  18.3960  0.00  0.00     0.000 C
ATOM      2  C2  GCU B   1      18.545  23.838  19.6330  0.00  0.00     0.000 C
ATOM      3  C3  GCU B   1      19.146  23.214  20.8830  0.00  0.00     0.000 C
ATOM      4  C4  GCU B   1      19.278  21.709  20.7070  0.00  0.00     0.000 C
ATOM      5  C5  GCU B   1      20.009  21.370  19.4070  0.00  0.00     0.000 C
ATOM      6  O5  GCU B   1      19.307  21.961  18.3060  0.00  0.00     0.000 O
ATOM      7   O  GCU B   1      18.611  25.259  19.6960  0.00  0.00     0.000 O
ATOM      9  HD  GCU B   1      17.939  25.799  19.7780  0.00  0.00     0.000 HD
ATOM      9   O  GCU B   1      18.336  23.498  22.0270  0.00  0.00     0.000 O
ATOM     11  HD  GCU B   1      17.663  24.038  22.1090  0.00  0.00     0.000 HD
ATOM     11   O  GCU B   1      19.998  21.177  21.8200  0.00  0.00     0.000 O
ATOM     13  HD  GCU B   1      19.326  21.716  21.9020  0.00  0.00     0.000 HD
ENDROOT
BRANCH 5 13
ATOM     13   C  GCU B   1      20.138  19.872  19.2660  0.00  0.00     0.000 C
ATOM     14   O  GCU B   1      19.501  19.263  18.3820  0.00  0.00     0.000 OA
ATOM     15   O  GCU B   1      20.919  19.288  20.0420  0.00  0.00     0.000 OA
ENDBRANCH 5 13
BRANCH 1 16
ATOM     16  O3  NAG B   2      18.860  23.320  17.1420  0.00  0.00     0.000 O
BRANCH 16 19
ATOM     17  C1  NAG B   2      20.058  24.234  13.6850  0.00  0.00     0.000 C
ATOM     18  C2  NAG B   2      19.553  24.466  15.1030  0.00  0.00     0.000 C
ATOM     19  C3  NAG B   2      19.503  23.146  15.8700  0.00  0.00     0.000 C
ATOM     20  C4  NAG B   2      18.718  22.100  15.0790  0.00  0.00     0.000 C
ATOM     21  C5  NAG B   2      19.314  21.952  13.6870  0.00  0.00     0.000 C
ATOM     22  O5  NAG B   2      19.274  23.228  13.0250  0.00  0.00     0.000 O
ATOM     23   O  NAG B   2      18.765  20.862  15.7980  0.00  0.00     0.000 O
ATOM     25  HD  NAG B   2      17.998  21.261  15.7480  0.00  0.00     0.000 HD
ATOM     25   C  NAG B   2      18.588  20.907  12.8420  0.00  0.00     0.000 C
ATOM     26   O  NAG B   2      17.302  21.377  12.4080  0.00  0.00     0.000 O
ATOM     28  HD  NAG B   2      16.535  21.776  12.3570  0.00  0.00     0.000 HD
BRANCH 18 30
ATOM     28   N  NAG B   2      20.407  25.603  15.3870  0.00  0.00     0.000 N
ATOM     30  HD  NAG B   2      19.677  25.794  15.8120  0.00  0.00     0.000 HD
ATOM     30   C  NAG B   2      20.000  26.697  16.0440  0.00  0.00     0.000 C
ATOM     31   C  NAG B   2      20.991  27.812  16.2220  0.00  0.00     0.000 C
ATOM     32   O  NAG B   2      18.872  26.797  16.4840  0.00  0.00     0.000 OA
ENDBRANCH 18 30
BRANCH 17 33
ATOM     33  O4  GCU B   3      20.047  25.506  13.0050  0.00  0.00     0.000 O
BRANCH 33 37
ATOM     34  C1  GCU B   3      21.783  26.700   9.4140  0.00  0.00     0.000 C
ATOM     35  C2  GCU B   3      20.502  25.868   9.3410  0.00  0.00     0.000 C
ATOM     36  C3  GCU B   3      19.802  25.895  10.6830  0.00  0.00     0.000 C
ATOM     37  C4  GCU B   3      20.763  25.434  11.7700  0.00  0.00     0.000 C
ATOM     38  C5  GCU B   3      22.007  26.323  11.7690  0.00  0.00     0.000 C
ATOM     39  O5  GCU B   3      22.622  26.245  10.4790  0.00  0.00     0.000 O
ATOM     40   O  GCU B   3      19.652  26.412   8.3290  0.00  0.00     0.000 O
ATOM     42  HD  GCU B   3      18.839  26.673   8.1860  0.00  0.00     0.000 HD
ATOM     42   O  GCU B   3      18.629  25.062  10.6730  0.00  0.00     0.000 O
ATOM     44  HD  GCU B   3      17.816  25.322  10.5290  0.00  0.00     0.000 HD
BRANCH 38 44
ATOM     44   C  GCU B   3      23.020  25.909  12.8070  0.00  0.00     0.000 C
ATOM     45   O  GCU B   3      23.738  24.925  12.5760  0.00  0.00     0.000 OA
ATOM     46   O  GCU B   3      23.119  26.558  13.8670  0.00  0.00     0.000 OA
ENDBRANCH 38 44
BRANCH 34 47
ATOM     47  O3  NAG B   4      22.485  26.501   8.3080  0.00  0.00     0.000 O
BRANCH 47 50
ATOM     48  C1  NAG B   4      24.775  29.175   7.1420  0.00  0.00     0.000 C
ATOM     49  C2  NAG B   4      24.307  27.968   7.9480  0.00  0.00     0.000 C
ATOM     50  C3  NAG B   4      23.108  27.295   7.3000  0.00  0.00     0.000 C
ATOM     51  C4  NAG B   4      22.085  28.279   6.7220  0.00  0.00     0.000 C
ATOM     52  C5  NAG B   4      22.713  29.166   5.6590  0.00  0.00     0.000 C
ATOM     53  O5  NAG B   4      24.034  29.645   5.9960  0.00  0.00     0.000 O
BRANCH 49 56
ATOM     54   N  NAG B   4      25.477  27.090   8.1250  0.00  0.00     0.000 N
ATOM     56  HD  NAG B   4      25.976  27.048   8.8320  0.00  0.00     0.000 HD
ATOM     56   C  NAG B   4      27.196  25.463   7.5850  0.00  0.00     0.000 C
ATOM     57   O  NAG B   4      25.752  26.384   5.9820  0.00  0.00     0.000 OA
ATOM     58   C  NAG B   4      26.077  26.364   7.1600  0.00  0.00     0.000 C
ENDBRANCH 49 56
ATOM     59   O  NAG B   4      22.110  31.017   4.1400  0.00  0.00     0.000 O
ATOM     61  HD  NAG B   4      22.427  30.757   4.9040  0.00  0.00     0.000 HD
ATOM     61   O  NAG B   4      22.110  31.017   4.1400  0.00  0.00     0.000 O
ATOM     63  HD  NAG B   4      22.427  30.757   4.9040  0.00  0.00     0.000 HD
ENDBRANCH 47 50
ENDBRANCH 34 47
ENDBRANCH 33 37
ENDBRANCH 17 33
ENDBRANCH 16 19
ENDBRANCH 1 16
TORSDOF 10
ENDMDL
MODEL 32
REMARK VINA RESULT:      -3.9     10.424     18.764
ROOT
ATOM      1  C1  GCU B   1      13.649  55.068   7.8280  0.00  0.00     0.000 C
ATOM      2  C2  GCU B   1      14.104  56.519   7.8640  0.00  0.00     0.000 C
ATOM      3  C3  GCU B   1      12.972  57.420   8.3330  0.00  0.00     0.000 C
ATOM      4  C4  GCU B   1      11.717  57.155   7.5160  0.00  0.00     0.000 C
ATOM      5  C5  GCU B   1      11.381  55.663   7.4930  0.00  0.00     0.000 C
ATOM      6  O5  GCU B   1      12.502  54.937   6.9720  0.00  0.00     0.000 O
ATOM      7   O  GCU B   1      15.215  56.602   8.7510  0.00  0.00     0.000 O
ATOM      9  HD  GCU B   1      15.985  56.955   8.5740  0.00  0.00     0.000 HD
ATOM      9   O  GCU B   1      13.342  58.796   8.2170  0.00  0.00     0.000 O
ATOM     11  HD  GCU B   1      14.113  59.149   8.0390  0.00  0.00     0.000 HD
ATOM     11   O  GCU B   1      10.631  57.886   8.0870  0.00  0.00     0.000 O
ATOM     13  HD  GCU B   1      11.402  58.239   7.9090  0.00  0.00     0.000 HD
ENDROOT
BRANCH 5 13
ATOM     13   C  GCU B   1      10.124  55.431   6.6870  0.00  0.00     0.000 C
ATOM     14   O  GCU B   1       9.241  54.654   7.1050  0.00  0.00     0.000 OA
ATOM     15   O  GCU B   1      10.002  56.064   5.6210  0.00  0.00     0.000 OA
ENDBRANCH 5 13
BRANCH 1 16
ATOM     16  O3  NAG B   2      14.133  54.082   7.0700  0.00  0.00     0.000 O
BRANCH 16 19
ATOM     17  C1  NAG B   2      15.503  50.810   8.3510  0.00  0.00     0.000 C
ATOM     18  C2  NAG B   2      15.267  52.315   8.3110  0.00  0.00     0.000 C
ATOM     19  C3  NAG B   2      14.231  52.660   7.2430  0.00  0.00     0.000 C
ATOM     20  C4  NAG B   2      14.623  52.043   5.9010  0.00  0.00     0.000 C
ATOM     21  C5  NAG B   2      14.826  50.544   6.0630  0.00  0.00     0.000 C
ATOM     22  O5  NAG B   2      15.850  50.316   7.0470  0.00  0.00     0.000 O
ATOM     23   O  NAG B   2      13.587  52.327   4.9540  0.00  0.00     0.000 O
ATOM     25  HD  NAG B   2      14.351  52.715   4.8310  0.00  0.00     0.000 HD
ATOM     25   C  NAG B   2      15.206  49.855   4.7530  0.00  0.00     0.000 C
ATOM     26   O  NAG B   2      16.558  50.152   4.3700  0.00  0.00     0.000 O
ATOM     28  HD  NAG B   2      17.322  50.539   4.2480  0.00  0.00     0.000 HD
BRANCH 18 30
ATOM     28   N  NAG B   2      15.038  52.553   9.7230  0.00  0.00     0.000 N
ATOM     30  HD  NAG B   2      15.554  53.209   9.4940  0.00  0.00     0.000 HD
ATOM     30   C  NAG B   2      15.652  53.511  10.4280  0.00  0.00     0.000 C
ATOM     31   C  NAG B   2      15.342  53.605  11.8950  0.00  0.00     0.000 C
ATOM     32   O  NAG B   2      16.436  54.283   9.9120  0.00  0.00     0.000 OA
ENDBRANCH 18 30
BRANCH 17 33
ATOM     33  O4  GCU B   3      16.512  50.553   9.3480  0.00  0.00     0.000 O
BRANCH 33 37
ATOM     34  C1  GCU B   3      17.104  47.176  11.7090  0.00  0.00     0.000 C
ATOM     35  C2  GCU B   3      17.969  47.327  10.4580  0.00  0.00     0.000 C
ATOM     36  C3  GCU B   3      17.925  48.764   9.9820  0.00  0.00     0.000 C
ATOM     37  C4  GCU B   3      16.479  49.190   9.7720  0.00  0.00     0.000 C
ATOM     38  C5  GCU B   3      15.695  49.006  11.0730  0.00  0.00     0.000 C
ATOM     39  O5  GCU B   3      15.770  47.630  11.4600  0.00  0.00     0.000 O
ATOM     40   O  GCU B   3      19.311  46.952  10.7740  0.00  0.00     0.000 O
ATOM     42  HD  GCU B   3      20.131  47.221  10.7070  0.00  0.00     0.000 HD
ATOM     42   O  GCU B   3      18.671  48.928   8.7620  0.00  0.00     0.000 O
ATOM     44  HD  GCU B   3      19.492  49.197   8.6950  0.00  0.00     0.000 HD
BRANCH 38 44
ATOM     44   C  GCU B   3      14.242  49.385  10.9350  0.00  0.00     0.000 C
ATOM     45   O  GCU B   3      13.832  50.393  11.5310  0.00  0.00     0.000 OA
ATOM     46   O  GCU B   3      13.486  48.690  10.2300  0.00  0.00     0.000 OA
ENDBRANCH 38 44
BRANCH 34 47
ATOM     47  O3  NAG B   4      16.984  45.887  11.9930  0.00  0.00     0.000 O
BRANCH 47 50
ATOM     48  C1  NAG B   4      16.785  42.655  13.8020  0.00  0.00     0.000 C
ATOM     49  C2  NAG B   4      17.374  43.736  12.9020  0.00  0.00     0.000 C
ATOM     50  C3  NAG B   4      16.709  45.083  13.1380  0.00  0.00     0.000 C
ATOM     51  C4  NAG B   4      15.193  44.994  13.3470  0.00  0.00     0.000 C
ATOM     52  C5  NAG B   4      14.851  44.124  14.5450  0.00  0.00     0.000 C
ATOM     53  O5  NAG B   4      15.644  42.921  14.6450  0.00  0.00     0.000 O
BRANCH 49 56
ATOM     54   N  NAG B   4      18.832  43.852  13.0790  0.00  0.00     0.000 N
ATOM     56  HD  NAG B   4      19.426  43.756  12.4560  0.00  0.00     0.000 HD
ATOM     56   C  NAG B   4      20.966  44.137  14.1990  0.00  0.00     0.000 C
ATOM     57   O  NAG B   4      18.942  43.851  15.3490  0.00  0.00     0.000 OA
ATOM     58   C  NAG B   4      19.484  43.926  14.2560  0.00  0.00     0.000 C
ENDBRANCH 49 56
ATOM     59   O  NAG B   4      12.882  43.279  15.7710  0.00  0.00     0.000 O
ATOM     61  HD  NAG B   4      13.477  43.161  15.1520  0.00  0.00     0.000 HD
ATOM     61   O  NAG B   4      12.882  43.279  15.7710  0.00  0.00     0.000 O
ATOM     63  HD  NAG B   4      13.477  43.161  15.1520  0.00  0.00     0.000 HD
ENDBRANCH 47 50
ENDBRANCH 34 47
ENDBRANCH 33 37
ENDBRANCH 17 33
ENDBRANCH 16 19
ENDBRANCH 1 16
TORSDOF 10
ENDMDL
MODEL 33
REMARK VINA RESULT:      -3.9     26.559     32.390
ROOT
ATOM      1  C1  GCU B   1      16.294  19.345  35.3770  0.00  0.00     0.000 C
ATOM      2  C2  GCU B   1      15.903  20.802  35.1770  0.00  0.00     0.000 C
ATOM      3  C3  GCU B   1      16.043  21.194  33.7140  0.00  0.00     0.000 C
ATOM      4  C4  GCU B   1      17.423  20.816  33.1980  0.00  0.00     0.000 C
ATOM      5  C5  GCU B   1      17.741  19.352  33.5020  0.00  0.00     0.000 C
ATOM      6  O5  GCU B   1      17.637  19.132  34.9150  0.00  0.00     0.000 O
ATOM      7   O  GCU B   1      14.556  20.952  35.6140  0.00  0.00     0.000 O
ATOM      9  HD  GCU B   1      14.265  21.540  36.1800  0.00  0.00     0.000 HD
ATOM      9   O  GCU B   1      15.831  22.598  33.5470  0.00  0.00     0.000 O
ATOM     11  HD  GCU B   1      15.540  23.186  34.1130  0.00  0.00     0.000 HD
ATOM     11   O  GCU B   1      17.464  21.037  31.7880  0.00  0.00     0.000 O
ATOM     13  HD  GCU B   1      17.173  21.625  32.3540  0.00  0.00     0.000 HD
ENDROOT
BRANCH 5 13
ATOM     13   C  GCU B   1      19.109  19.002  32.9670  0.00  0.00     0.000 C
ATOM     14   O  GCU B   1      19.281  18.818  31.7440  0.00  0.00     0.000 OA
ATOM     15   O  GCU B   1      20.046  18.935  33.7860  0.00  0.00     0.000 OA
ENDBRANCH 5 13
BRANCH 1 16
ATOM     16  O3  NAG B   2      16.752  18.772  36.4910  0.00  0.00     0.000 O
BRANCH 16 19
ATOM     17  C1  NAG B   2      15.269  16.184  38.8010  0.00  0.00     0.000 C
ATOM     18  C2  NAG B   2      15.352  17.495  38.0290  0.00  0.00     0.000 C
ATOM     19  C3  NAG B   2      16.556  17.481  37.0890  0.00  0.00     0.000 C
ATOM     20  C4  NAG B   2      17.826  17.115  37.8570  0.00  0.00     0.000 C
ATOM     21  C5  NAG B   2      17.627  15.792  38.5820  0.00  0.00     0.000 C
ATOM     22  O5  NAG B   2      16.508  15.915  39.4770  0.00  0.00     0.000 O
ATOM     23   O  NAG B   2      18.910  17.038  36.9250  0.00  0.00     0.000 O
ATOM     25  HD  NAG B   2      18.928  17.687  37.4980  0.00  0.00     0.000 HD
ATOM     25   C  NAG B   2      18.866  15.353  39.3600  0.00  0.00     0.000 C
ATOM     26   O  NAG B   2      19.058  16.147  40.5420  0.00  0.00     0.000 O
ATOM     28  HD  NAG B   2      19.076  16.795  41.1150  0.00  0.00     0.000 HD
BRANCH 18 30
ATOM     28   N  NAG B   2      14.203  18.264  38.4670  0.00  0.00     0.000 N
ATOM     30  HD  NAG B   2      14.012  18.075  37.6430  0.00  0.00     0.000 HD
ATOM     30   C  NAG B   2      13.210  18.651  37.6550  0.00  0.00     0.000 C
ATOM     31   C  NAG B   2      12.109  19.483  38.2490  0.00  0.00     0.000 C
ATOM     32   O  NAG B   2      13.190  18.348  36.4790  0.00  0.00     0.000 OA
ENDBRANCH 18 30
BRANCH 17 33
ATOM     33  O4  GCU B   3      14.139  16.274  39.6920  0.00  0.00     0.000 O
BRANCH 33 37
ATOM     34  C1  GCU B   3      11.521  13.356  41.0920  0.00  0.00     0.000 C
ATOM     35  C2  GCU B   3      12.942  13.365  41.6570  0.00  0.00     0.000 C
ATOM     36  C3  GCU B   3      13.591  14.703  41.3750  0.00  0.00     0.000 C
ATOM     37  C4  GCU B   3      13.532  14.995  39.8820  0.00  0.00     0.000 C
ATOM     38  C5  GCU B   3      12.077  14.967  39.4090  0.00  0.00     0.000 C
ATOM     39  O5  GCU B   3      11.529  13.677  39.6980  0.00  0.00     0.000 O
ATOM     40   O  GCU B   3      12.881  13.132  43.0660  0.00  0.00     0.000 O
ATOM     42  HD  GCU B   3      13.166  13.440  43.8240  0.00  0.00     0.000 HD
ATOM     42   O  GCU B   3      14.956  14.722  41.8290  0.00  0.00     0.000 O
ATOM     44  HD  GCU B   3      15.241  15.030  42.5870  0.00  0.00     0.000 HD
BRANCH 38 44
ATOM     44   C  GCU B   3      11.941  15.225  37.9300  0.00  0.00     0.000 C
ATOM     45   O  GCU B   3      12.726  14.657  37.1540  0.00  0.00     0.000 OA
ATOM     46   O  GCU B   3      11.052  15.992  37.5150  0.00  0.00     0.000 OA
ENDBRANCH 38 44
BRANCH 34 47
ATOM     47  O3  NAG B   4      11.041  12.122  41.1610  0.00  0.00     0.000 O
BRANCH 47 50
ATOM     48  C1  NAG B   4      11.220   8.652  39.8640  0.00  0.00     0.000 C
ATOM     49  C2  NAG B   4      11.147  10.175  39.8200  0.00  0.00     0.000 C
ATOM     50  C3  NAG B   4      11.555  10.791  41.1480  0.00  0.00     0.000 C
ATOM     51  C4  NAG B   4      11.029  10.030  42.3700  0.00  0.00     0.000 C
ATOM     52  C5  NAG B   4      11.532   8.596  42.3840  0.00  0.00     0.000 C
ATOM     53  O5  NAG B   4      11.508   7.950  41.0910  0.00  0.00     0.000 O
BRANCH 49 56
ATOM     54   N  NAG B   4      12.415  10.464  39.1270  0.00  0.00     0.000 N
ATOM     56  HD  NAG B   4      13.205  10.422  39.4800  0.00  0.00     0.000 HD
ATOM     56   C  NAG B   4      13.930  11.141  37.3550  0.00  0.00     0.000 C
ATOM     57   O  NAG B   4      11.605  11.426  37.2340  0.00  0.00     0.000 OA
ATOM     58   C  NAG B   4      12.542  11.028  37.9090  0.00  0.00     0.000 C
ENDBRANCH 49 56
ATOM     59   O  NAG B   4      11.355   6.540  43.7390  0.00  0.00     0.000 O
ATOM     61  HD  NAG B   4      11.065   7.020  43.0790  0.00  0.00     0.000 HD
ATOM     61   O  NAG B   4      11.355   6.540  43.7390  0.00  0.00     0.000 O
ATOM     63  HD  NAG B   4      11.065   7.020  43.0790  0.00  0.00     0.000 HD
ENDBRANCH 47 50
ENDBRANCH 34 47
ENDBRANCH 33 37
ENDBRANCH 17 33
ENDBRANCH 16 19
ENDBRANCH 1 16
TORSDOF 10
ENDMDL
MODEL 34
REMARK VINA RESULT:      -3.9     12.120     15.477
ROOT
ATOM      1  C1  GCU B   1      21.488  26.566  25.8040  0.00  0.00     0.000 C
ATOM      2  C2  GCU B   1      21.729  26.642  27.3040  0.00  0.00     0.000 C
ATOM      3  C3  GCU B   1      22.806  25.652  27.7200  0.00  0.00     0.000 C
ATOM      4  C4  GCU B   1      22.481  24.266  27.1860  0.00  0.00     0.000 C
ATOM      5  C5  GCU B   1      22.196  24.309  25.6830  0.00  0.00     0.000 C
ATOM      6  O5  GCU B   1      21.122  25.226  25.4350  0.00  0.00     0.000 O
ATOM      7   O  GCU B   1      22.123  27.975  27.6110  0.00  0.00     0.000 O
ATOM      9  HD  GCU B   1      21.768  28.487  28.2130  0.00  0.00     0.000 HD
ATOM      9   O  GCU B   1      22.924  25.606  29.1440  0.00  0.00     0.000 O
ATOM     11  HD  GCU B   1      22.569  26.117  29.7460  0.00  0.00     0.000 HD
ATOM     11   O  GCU B   1      23.587  23.400  27.4430  0.00  0.00     0.000 O
ATOM     13  HD  GCU B   1      23.232  23.912  28.0450  0.00  0.00     0.000 HD
ENDROOT
BRANCH 5 13
ATOM     13   C  GCU B   1      21.890  22.919  25.1780  0.00  0.00     0.000 C
ATOM     14   O  GCU B   1      22.735  22.007  25.2910  0.00  0.00     0.000 OA
ATOM     15   O  GCU B   1      20.765  22.724  24.6800  0.00  0.00     0.000 OA
ENDBRANCH 5 13
BRANCH 1 16
ATOM     16  O3  NAG B   2      20.374  26.885  25.1420  0.00  0.00     0.000 O
BRANCH 16 19
ATOM     17  C1  NAG B   2      19.246  29.406  22.5730  0.00  0.00     0.000 C
ATOM     18  C2  NAG B   2      19.694  28.894  23.9360  0.00  0.00     0.000 C
ATOM     19  C3  NAG B   2      20.123  27.431  23.8380  0.00  0.00     0.000 C
ATOM     20  C4  NAG B   2      19.025  26.599  23.1760  0.00  0.00     0.000 C
ATOM     21  C5  NAG B   2      18.665  27.200  21.8260  0.00  0.00     0.000 C
ATOM     22  O5  NAG B   2      18.227  28.556  22.0220  0.00  0.00     0.000 O
ATOM     23   O  NAG B   2      19.501  25.255  23.0350  0.00  0.00     0.000 O
ATOM     25  HD  NAG B   2      18.856  25.389  23.5970  0.00  0.00     0.000 HD
ATOM     25   C  NAG B   2      17.581  26.408  21.0970  0.00  0.00     0.000 C
ATOM     26   O  NAG B   2      16.291  26.598  21.6970  0.00  0.00     0.000 O
ATOM     28  HD  NAG B   2      15.645  26.731  22.2590  0.00  0.00     0.000 HD
BRANCH 18 30
ATOM     28   N  NAG B   2      20.383  30.137  24.2280  0.00  0.00     0.000 N
ATOM     30  HD  NAG B   2      20.270  29.785  25.0110  0.00  0.00     0.000 HD
ATOM     30   C  NAG B   2      20.607  30.593  25.4660  0.00  0.00     0.000 C
ATOM     31   C  NAG B   2      21.295  31.922  25.6060  0.00  0.00     0.000 C
ATOM     32   O  NAG B   2      20.269  29.966  26.4500  0.00  0.00     0.000 OA
ENDBRANCH 18 30
BRANCH 17 33
ATOM     33  O4  GCU B   3      18.822  30.774  22.7390  0.00  0.00     0.000 O
BRANCH 33 37
ATOM     34  C1  GCU B   3      18.455  33.842  19.9480  0.00  0.00     0.000 C
ATOM     35  C2  GCU B   3      17.231  32.959  20.1970  0.00  0.00     0.000 C
ATOM     36  C3  GCU B   3      17.404  32.210  21.5020  0.00  0.00     0.000 C
ATOM     37  C4  GCU B   3      18.714  31.435  21.4770  0.00  0.00     0.000 C
ATOM     38  C5  GCU B   3      19.877  32.398  21.2250  0.00  0.00     0.000 C
ATOM     39  O5  GCU B   3      19.655  33.064  19.9780  0.00  0.00     0.000 O
ATOM     40   O  GCU B   3      16.067  33.785  20.2530  0.00  0.00     0.000 O
ATOM     42  HD  GCU B   3      15.365  33.948  20.7330  0.00  0.00     0.000 HD
ATOM     42   O  GCU B   3      16.303  31.312  21.7330  0.00  0.00     0.000 O
ATOM     44  HD  GCU B   3      15.601  31.475  22.2140  0.00  0.00     0.000 HD
BRANCH 38 44
ATOM     44   C  GCU B   3      21.210  31.696  21.1620  0.00  0.00     0.000 C
ATOM     45   O  GCU B   3      21.968  31.773  22.1410  0.00  0.00     0.000 OA
ATOM     46   O  GCU B   3      21.523  31.055  20.1410  0.00  0.00     0.000 OA
ENDBRANCH 38 44
BRANCH 34 47
ATOM     47  O3  NAG B   4      18.386  34.328  18.7170  0.00  0.00     0.000 O
BRANCH 47 50
ATOM     48  C1  NAG B   4      18.737  36.453  15.6970  0.00  0.00     0.000 C
ATOM     49  C2  NAG B   4      18.079  35.484  16.6740  0.00  0.00     0.000 C
ATOM     50  C3  NAG B   4      18.744  35.532  18.0400  0.00  0.00     0.000 C
ATOM     51  C4  NAG B   4      20.271  35.649  17.9800  0.00  0.00     0.000 C
ATOM     52  C5  NAG B   4      20.699  36.907  17.2440  0.00  0.00     0.000 C
ATOM     53  O5  NAG B   4      19.928  37.186  16.0550  0.00  0.00     0.000 O
BRANCH 49 56
ATOM     54   N  NAG B   4      16.891  36.342  16.8270  0.00  0.00     0.000 N
ATOM     56  HD  NAG B   4      16.889  37.208  16.8180  0.00  0.00     0.000 HD
ATOM     56   C  NAG B   4      14.575  36.965  17.1970  0.00  0.00     0.000 C
ATOM     57   O  NAG B   4      15.384  34.787  17.5180  0.00  0.00     0.000 OA
ATOM     58   C  NAG B   4      15.662  35.934  17.2010  0.00  0.00     0.000 C
ENDBRANCH 49 56
ATOM     59   O  NAG B   4      22.753  38.083  16.5410  0.00  0.00     0.000 O
ATOM     61  HD  NAG B   4      22.120  37.521  16.3560  0.00  0.00     0.000 HD
ATOM     61   O  NAG B   4      22.753  38.083  16.5410  0.00  0.00     0.000 O
ATOM     63  HD  NAG B   4      22.120  37.521  16.3560  0.00  0.00     0.000 HD
ENDBRANCH 47 50
ENDBRANCH 34 47
ENDBRANCH 33 37
ENDBRANCH 17 33
ENDBRANCH 16 19
ENDBRANCH 1 16
TORSDOF 10
ENDMDL
MODEL 35
REMARK VINA RESULT:      -3.9     23.316     27.611
ROOT
ATOM      1  C1  GCU B   1      20.790  23.141  37.2430  0.00  0.00     0.000 C
ATOM      2  C2  GCU B   1      21.964  22.827  38.1580  0.00  0.00     0.000 C
ATOM      3  C3  GCU B   1      22.700  24.103  38.5350  0.00  0.00     0.000 C
ATOM      4  C4  GCU B   1      23.047  24.898  37.2860  0.00  0.00     0.000 C
ATOM      5  C5  GCU B   1      21.813  25.106  36.4060  0.00  0.00     0.000 C
ATOM      6  O5  GCU B   1      21.255  23.829  36.0700  0.00  0.00     0.000 O
ATOM      7   O  GCU B   1      21.447  22.181  39.3170  0.00  0.00     0.000 O
ATOM      9  HD  GCU B   1      21.719  21.427  39.6450  0.00  0.00     0.000 HD
ATOM      9   O  GCU B   1      23.893  23.799  39.2620  0.00  0.00     0.000 O
ATOM     11  HD  GCU B   1      24.165  23.045  39.5900  0.00  0.00     0.000 HD
ATOM     11   O  GCU B   1      23.580  26.163  37.6780  0.00  0.00     0.000 O
ATOM     13  HD  GCU B   1      23.852  25.409  38.0060  0.00  0.00     0.000 HD
ENDROOT
BRANCH 5 13
ATOM     13   C  GCU B   1      22.184  25.909  35.1830  0.00  0.00     0.000 C
ATOM     14   O  GCU B   1      22.511  25.333  34.1250  0.00  0.00     0.000 OA
ATOM     15   O  GCU B   1      22.121  27.151  35.2700  0.00  0.00     0.000 OA
ENDBRANCH 5 13
BRANCH 1 16
ATOM     16  O3  NAG B   2      20.216  22.332  36.3490  0.00  0.00     0.000 O
BRANCH 16 19
ATOM     17  C1  NAG B   2      16.578  21.360  36.1280  0.00  0.00     0.000 C
ATOM     18  C2  NAG B   2      17.926  21.615  36.7910  0.00  0.00     0.000 C
ATOM     19  C3  NAG B   2      18.893  22.253  35.7960  0.00  0.00     0.000 C
ATOM     20  C4  NAG B   2      18.963  21.424  34.5140  0.00  0.00     0.000 C
ATOM     21  C5  NAG B   2      17.565  21.239  33.9420  0.00  0.00     0.000 C
ATOM     22  O5  NAG B   2      16.741  20.589  34.9270  0.00  0.00     0.000 O
ATOM     23   O  NAG B   2      19.818  22.100  33.5850  0.00  0.00     0.000 O
ATOM     25  HD  NAG B   2      20.103  21.349  33.9100  0.00  0.00     0.000 HD
ATOM     25   C  NAG B   2      17.558  20.430  32.6470  0.00  0.00     0.000 C
ATOM     26   O  NAG B   2      17.808  19.037  32.8900  0.00  0.00     0.000 O
ATOM     28  HD  NAG B   2      18.093  18.287  33.2160  0.00  0.00     0.000 HD
BRANCH 18 30
ATOM     28   N  NAG B   2      17.432  22.265  37.9900  0.00  0.00     0.000 N
ATOM     30  HD  NAG B   2      18.082  21.775  38.2840  0.00  0.00     0.000 HD
ATOM     30   C  NAG B   2      17.866  21.983  39.2240  0.00  0.00     0.000 C
ATOM     31   C  NAG B   2      17.223  22.711  40.3720  0.00  0.00     0.000 C
ATOM     32   O  NAG B   2      18.745  21.168  39.4240  0.00  0.00     0.000 OA
ENDBRANCH 18 30
BRANCH 17 33
ATOM     33  O4  GCU B   3      15.726  20.726  37.1030  0.00  0.00     0.000 O
BRANCH 33 37
ATOM     34  C1  GCU B   3      11.741  19.543  36.8770  0.00  0.00     0.000 C
ATOM     35  C2  GCU B   3      12.797  18.587  36.3230  0.00  0.00     0.000 C
ATOM     36  C3  GCU B   3      14.159  18.968  36.8630  0.00  0.00     0.000 C
ATOM     37  C4  GCU B   3      14.443  20.430  36.5490  0.00  0.00     0.000 C
ATOM     38  C5  GCU B   3      13.339  21.308  37.1420  0.00  0.00     0.000 C
ATOM     39  O5  GCU B   3      12.085  20.901  36.5850  0.00  0.00     0.000 O
ATOM     40   O  GCU B   3      12.466  17.253  36.7150  0.00  0.00     0.000 O
ATOM     42  HD  GCU B   3      12.803  16.542  37.0770  0.00  0.00     0.000 HD
ATOM     42   O  GCU B   3      15.190  18.133  36.3050  0.00  0.00     0.000 O
ATOM     44  HD  GCU B   3      15.527  17.423  36.6680  0.00  0.00     0.000 HD
BRANCH 38 44
ATOM     44   C  GCU B   3      13.539  22.774  36.8480  0.00  0.00     0.000 C
ATOM     45   O  GCU B   3      13.264  23.195  35.7150  0.00  0.00     0.000 OA
ATOM     46   O  GCU B   3      13.971  23.529  37.7400  0.00  0.00     0.000 OA
ENDBRANCH 38 44
BRANCH 34 47
ATOM     47  O3  NAG B   4      10.597  19.331  36.2410  0.00  0.00     0.000 O
BRANCH 47 50
ATOM     48  C1  NAG B   4       7.880  18.544  38.6400  0.00  0.00     0.000 C
ATOM     49  C2  NAG B   4       9.107  19.254  38.0790  0.00  0.00     0.000 C
ATOM     50  C3  NAG B   4       9.244  19.034  36.5810  0.00  0.00     0.000 C
ATOM     51  C4  NAG B   4       8.908  17.607  36.1340  0.00  0.00     0.000 C
ATOM     52  C5  NAG B   4       7.480  17.237  36.4990  0.00  0.00     0.000 C
ATOM     53  O5  NAG B   4       7.077  17.672  37.8170  0.00  0.00     0.000 O
BRANCH 49 56
ATOM     54   N  NAG B   4       8.534  20.611  38.0250  0.00  0.00     0.000 N
ATOM     56  HD  NAG B   4       7.871  20.860  37.5260  0.00  0.00     0.000 HD
ATOM     56   C  NAG B   4       8.261  22.978  38.4830  0.00  0.00     0.000 C
ATOM     57   O  NAG B   4      10.137  21.748  39.1670  0.00  0.00     0.000 OA
ATOM     58   C  NAG B   4       9.065  21.718  38.5810  0.00  0.00     0.000 C
ENDBRANCH 49 56
ATOM     59   O  NAG B   4       5.914  15.336  36.3290  0.00  0.00     0.000 O
ATOM     61  HD  NAG B   4       6.509  15.767  36.7870  0.00  0.00     0.000 HD
ATOM     61   O  NAG B   4       5.914  15.336  36.3290  0.00  0.00     0.000 O
ATOM     63  HD  NAG B   4       6.509  15.767  36.7870  0.00  0.00     0.000 HD
ENDBRANCH 47 50
ENDBRANCH 34 47
ENDBRANCH 33 37
ENDBRANCH 17 33
ENDBRANCH 16 19
ENDBRANCH 1 16
TORSDOF 10
ENDMDL
MODEL 36
REMARK VINA RESULT:      -3.8     13.891     19.585
ROOT
ATOM      1  C1  GCU B   1      14.364  55.028   8.5290  0.00  0.00     0.000 C
ATOM      2  C2  GCU B   1      14.750  56.434   8.9600  0.00  0.00     0.000 C
ATOM      3  C3  GCU B   1      13.564  57.137   9.6030  0.00  0.00     0.000 C
ATOM      4  C4  GCU B   1      12.346  57.048   8.6970  0.00  0.00     0.000 C
ATOM      5  C5  GCU B   1      12.081  55.603   8.2720  0.00  0.00     0.000 C
ATOM      6  O5  GCU B   1      13.249  55.082   7.6240  0.00  0.00     0.000 O
ATOM      7   O  GCU B   1      15.830  56.323   9.8800  0.00  0.00     0.000 O
ATOM      9  HD  GCU B   1      16.588  56.739   9.8310  0.00  0.00     0.000 HD
ATOM      9   O  GCU B   1      13.873  58.508   9.8650  0.00  0.00     0.000 O
ATOM     11  HD  GCU B   1      14.631  58.924   9.8160  0.00  0.00     0.000 HD
ATOM     11   O  GCU B   1      11.212  57.562   9.3970  0.00  0.00     0.000 O
ATOM     13  HD  GCU B   1      11.970  57.978   9.3470  0.00  0.00     0.000 HD
ENDROOT
BRANCH 5 13
ATOM     13   C  GCU B   1      10.859  55.544   7.3860  0.00  0.00     0.000 C
ATOM     14   O  GCU B   1      10.109  54.546   7.4120  0.00  0.00     0.000 OA
ATOM     15   O  GCU B   1      10.626  56.532   6.6640  0.00  0.00     0.000 OA
ENDBRANCH 5 13
BRANCH 1 16
ATOM     16  O3  NAG B   2      14.914  54.295   7.5580  0.00  0.00     0.000 O
BRANCH 16 19
ATOM     17  C1  NAG B   2      16.665  50.954   7.6280  0.00  0.00     0.000 C
ATOM     18  C2  NAG B   2      16.394  52.406   8.0020  0.00  0.00     0.000 C
ATOM     19  C3  NAG B   2      15.089  52.882   7.3660  0.00  0.00     0.000 C
ATOM     20  C4  NAG B   2      15.096  52.604   5.8640  0.00  0.00     0.000 C
ATOM     21  C5  NAG B   2      15.371  51.128   5.6140  0.00  0.00     0.000 C
ATOM     22  O5  NAG B   2      16.637  50.784   6.2020  0.00  0.00     0.000 O
ATOM     23   O  NAG B   2      13.827  52.994   5.3270  0.00  0.00     0.000 O
ATOM     25  HD  NAG B   2      14.516  53.464   5.0930  0.00  0.00     0.000 HD
ATOM     25   C  NAG B   2      15.377  50.772   4.1290  0.00  0.00     0.000 C
ATOM     26   O  NAG B   2      16.556  51.259   3.4710  0.00  0.00     0.000 O
ATOM     28  HD  NAG B   2      17.245  51.729   3.2370  0.00  0.00     0.000 HD
BRANCH 18 30
ATOM     28   N  NAG B   2      16.630  52.275   9.4270  0.00  0.00     0.000 N
ATOM     30  HD  NAG B   2      16.966  53.051   9.2420  0.00  0.00     0.000 HD
ATOM     30   C  NAG B   2      17.339  53.150  10.1500  0.00  0.00     0.000 C
ATOM     31   C  NAG B   2      17.533  52.852  11.6100  0.00  0.00     0.000 C
ATOM     32   O  NAG B   2      17.817  54.151   9.6550  0.00  0.00     0.000 OA
ENDBRANCH 18 30
BRANCH 17 33
ATOM     33  O4  GCU B   3      17.922  50.578   8.2260  0.00  0.00     0.000 O
BRANCH 33 37
ATOM     34  C1  GCU B   3      19.522  46.826   9.0600  0.00  0.00     0.000 C
ATOM     35  C2  GCU B   3      19.703  47.376   7.6450  0.00  0.00     0.000 C
ATOM     36  C3  GCU B   3      19.453  48.869   7.6450  0.00  0.00     0.000 C
ATOM     37  C4  GCU B   3      18.080  49.158   8.2360  0.00  0.00     0.000 C
ATOM     38  C5  GCU B   3      17.995  48.575   9.6480  0.00  0.00     0.000 C
ATOM     39  O5  GCU B   3      18.231  47.165   9.5740  0.00  0.00     0.000 O
ATOM     40   O  GCU B   3      21.034  47.097   7.2060  0.00  0.00     0.000 O
ATOM     42  HD  GCU B   3      21.730  47.471   6.8490  0.00  0.00     0.000 HD
ATOM     42   O  GCU B   3      19.543  49.410   6.3150  0.00  0.00     0.000 O
ATOM     44  HD  GCU B   3      20.239  49.783   5.9580  0.00  0.00     0.000 HD
BRANCH 38 44
ATOM     44   C  GCU B   3      16.649  48.801  10.2900  0.00  0.00     0.000 C
ATOM     45   O  GCU B   3      16.579  49.550  11.2760  0.00  0.00     0.000 OA
ATOM     46   O  GCU B   3      15.639  48.240   9.8220  0.00  0.00     0.000 OA
ENDBRANCH 38 44
BRANCH 34 47
ATOM     47  O3  NAG B   4      19.539  45.502   9.0090  0.00  0.00     0.000 O
BRANCH 47 50
ATOM     48  C1  NAG B   4      21.246  44.004  11.9420  0.00  0.00     0.000 C
ATOM     49  C2  NAG B   4      20.207  44.814  11.1730  0.00  0.00     0.000 C
ATOM     50  C3  NAG B   4      20.176  44.430   9.7030  0.00  0.00     0.000 C
ATOM     51  C4  NAG B   4      21.563  44.185   9.0990  0.00  0.00     0.000 C
ATOM     52  C5  NAG B   4      22.291  43.066   9.8250  0.00  0.00     0.000 C
ATOM     53  O5  NAG B   4      22.149  43.106  11.2630  0.00  0.00     0.000 O
BRANCH 49 56
ATOM     54   N  NAG B   4      19.005  44.062  11.5720  0.00  0.00     0.000 N
ATOM     56  HD  NAG B   4      18.806  43.257  11.3210  0.00  0.00     0.000 HD
ATOM     56   C  NAG B   4      16.862  43.594  12.6120  0.00  0.00     0.000 C
ATOM     57   O  NAG B   4      17.799  45.741  12.5170  0.00  0.00     0.000 OA
ATOM     58   C  NAG B   4      17.934  44.564  12.2200  0.00  0.00     0.000 C
ENDBRANCH 49 56
ATOM     59   O  NAG B   4      24.449  41.868   9.7800  0.00  0.00     0.000 O
ATOM     61  HD  NAG B   4      23.966  42.513  10.0980  0.00  0.00     0.000 HD
ATOM     61   O  NAG B   4      24.449  41.868   9.7800  0.00  0.00     0.000 O
ATOM     63  HD  NAG B   4      23.966  42.513  10.0980  0.00  0.00     0.000 HD
ENDBRANCH 47 50
ENDBRANCH 34 47
ENDBRANCH 33 37
ENDBRANCH 17 33
ENDBRANCH 16 19
ENDBRANCH 1 16
TORSDOF 10
ENDMDL
MODEL 37
REMARK VINA RESULT:      -3.7      9.424     17.884
ROOT
ATOM      1  C1  GCU B   1      24.966  38.019  13.1540  0.00  0.00     0.000 C
ATOM      2  C2  GCU B   1      26.044  39.078  13.3250  0.00  0.00     0.000 C
ATOM      3  C3  GCU B   1      25.916  40.147  12.2510  0.00  0.00     0.000 C
ATOM      4  C4  GCU B   1      25.853  39.503  10.8740  0.00  0.00     0.000 C
ATOM      5  C5  GCU B   1      24.780  38.413  10.8260  0.00  0.00     0.000 C
ATOM      6  O5  GCU B   1      25.054  37.440  11.8420  0.00  0.00     0.000 O
ATOM      7   O  GCU B   1      25.891  39.645  14.6220  0.00  0.00     0.000 O
ATOM      9  HD  GCU B   1      26.511  39.725  15.2210  0.00  0.00     0.000 HD
ATOM      9   O  GCU B   1      27.019  41.055  12.3100  0.00  0.00     0.000 O
ATOM     11  HD  GCU B   1      27.639  41.135  12.9090  0.00  0.00     0.000 HD
ATOM     11   O  GCU B   1      25.561  40.512   9.9060  0.00  0.00     0.000 O
ATOM     13  HD  GCU B   1      26.181  40.591  10.5050  0.00  0.00     0.000 HD
ENDROOT
BRANCH 5 13
ATOM     13   C  GCU B   1      24.731  37.803   9.4460  0.00  0.00     0.000 C
ATOM     14   O  GCU B   1      24.233  38.437   8.4920  0.00  0.00     0.000 OA
ATOM     15   O  GCU B   1      25.227  36.668   9.3020  0.00  0.00     0.000 OA
ENDBRANCH 5 13
BRANCH 1 16
ATOM     16  O3  NAG B   2      25.006  36.745  13.5490  0.00  0.00     0.000 O
BRANCH 16 19
ATOM     17  C1  NAG B   2      22.597  34.791  15.6940  0.00  0.00     0.000 C
ATOM     18  C2  NAG B   2      23.524  35.937  15.3100  0.00  0.00     0.000 C
ATOM     19  C3  NAG B   2      23.994  35.777  13.8660  0.00  0.00     0.000 C
ATOM     20  C4  NAG B   2      24.585  34.384  13.6490  0.00  0.00     0.000 C
ATOM     21  C5  NAG B   2      23.572  33.325  14.0610  0.00  0.00     0.000 C
ATOM     22  O5  NAG B   2      23.227  33.524  15.4440  0.00  0.00     0.000 O
ATOM     23   O  NAG B   2      24.939  34.253  12.2680  0.00  0.00     0.000 O
ATOM     25  HD  NAG B   2      25.587  34.277  12.8410  0.00  0.00     0.000 HD
ATOM     25   C  NAG B   2      24.089  31.903  13.8570  0.00  0.00     0.000 C
ATOM     26   O  NAG B   2      25.080  31.553  14.8350  0.00  0.00     0.000 O
ATOM     28  HD  NAG B   2      25.729  31.577  15.4080  0.00  0.00     0.000 HD
BRANCH 18 30
ATOM     28   N  NAG B   2      23.384  36.737  16.5130  0.00  0.00     0.000 N
ATOM     30  HD  NAG B   2      23.194  37.297  15.8800  0.00  0.00     0.000 HD
ATOM     30   C  NAG B   2      23.154  38.055  16.5090  0.00  0.00     0.000 C
ATOM     31   C  NAG B   2      23.079  38.753  17.8380  0.00  0.00     0.000 C
ATOM     32   O  NAG B   2      23.011  38.678  15.4760  0.00  0.00     0.000 OA
ENDBRANCH 18 30
BRANCH 17 33
ATOM     33  O4  GCU B   3      22.219  34.979  17.0730  0.00  0.00     0.000 O
BRANCH 33 37
ATOM     34  C1  GCU B   3      18.865  33.700  19.1820  0.00  0.00     0.000 C
ATOM     35  C2  GCU B   3      19.991  32.689  18.9590  0.00  0.00     0.000 C
ATOM     36  C3  GCU B   3      21.260  33.421  18.5740  0.00  0.00     0.000 C
ATOM     37  C4  GCU B   3      20.993  34.306  17.3650  0.00  0.00     0.000 C
ATOM     38  C5  GCU B   3      19.858  35.282  17.6820  0.00  0.00     0.000 C
ATOM     39  O5  GCU B   3      18.692  34.527  18.0290  0.00  0.00     0.000 O
ATOM     40   O  GCU B   3      20.194  31.948  20.1640  0.00  0.00     0.000 O
ATOM     42  HD  GCU B   3      20.812  31.689  20.7120  0.00  0.00     0.000 HD
ATOM     42   O  GCU B   3      22.323  32.496  18.2850  0.00  0.00     0.000 O
ATOM     44  HD  GCU B   3      22.942  32.237  18.8340  0.00  0.00     0.000 HD
BRANCH 38 44
ATOM     44   C  GCU B   3      19.518  36.178  16.5180  0.00  0.00     0.000 C
ATOM     45   O  GCU B   3      20.106  37.266  16.4150  0.00  0.00     0.000 OA
ATOM     46   O  GCU B   3      18.666  35.814  15.6860  0.00  0.00     0.000 OA
ENDBRANCH 38 44
BRANCH 34 47
ATOM     47  O3  NAG B   4      17.722  33.042  19.3140  0.00  0.00     0.000 O
BRANCH 47 50
ATOM     48  C1  NAG B   4      16.232  33.615  22.6620  0.00  0.00     0.000 C
ATOM     49  C2  NAG B   4      16.976  33.944  21.3720  0.00  0.00     0.000 C
ATOM     50  C3  NAG B   4      16.681  32.925  20.2830  0.00  0.00     0.000 C
ATOM     51  C4  NAG B   4      16.618  31.480  20.7900  0.00  0.00     0.000 C
ATOM     52  C5  NAG B   4      15.537  31.313  21.8450  0.00  0.00     0.000 C
ATOM     53  O5  NAG B   4      15.475  32.395  22.8010  0.00  0.00     0.000 O
BRANCH 49 56
ATOM     54   N  NAG B   4      16.073  35.005  20.8950  0.00  0.00     0.000 N
ATOM     56  HD  NAG B   4      15.244  34.899  20.6650  0.00  0.00     0.000 HD
ATOM     56   C  NAG B   4      15.332  37.204  20.1830  0.00  0.00     0.000 C
ATOM     57   O  NAG B   4      17.586  36.663  20.5390  0.00  0.00     0.000 OA
ATOM     58   C  NAG B   4      16.433  36.257  20.5500  0.00  0.00     0.000 C
ENDBRANCH 49 56
ATOM     59   O  NAG B   4      14.573  29.575  23.3090  0.00  0.00     0.000 O
ATOM     61  HD  NAG B   4      15.144  30.216  23.1970  0.00  0.00     0.000 HD
ATOM     61   O  NAG B   4      14.573  29.575  23.3090  0.00  0.00     0.000 O
ATOM     63  HD  NAG B   4      15.144  30.216  23.1970  0.00  0.00     0.000 HD
ENDBRANCH 47 50
ENDBRANCH 34 47
ENDBRANCH 33 37
ENDBRANCH 17 33
ENDBRANCH 16 19
ENDBRANCH 1 16
TORSDOF 10
ENDMDL
MODEL 38
REMARK VINA RESULT:      -3.7     12.213     16.270
ROOT
ATOM      1  C1  GCU B   1      22.500  26.834  25.4870  0.00  0.00     0.000 C
ATOM      2  C2  GCU B   1      22.977  26.106  26.7350  0.00  0.00     0.000 C
ATOM      3  C3  GCU B   1      24.456  26.369  26.9710  0.00  0.00     0.000 C
ATOM      4  C4  GCU B   1      25.250  26.077  25.7070  0.00  0.00     0.000 C
ATOM      5  C5  GCU B   1      24.654  26.807  24.5020  0.00  0.00     0.000 C
ATOM      6  O5  GCU B   1      23.280  26.423  24.3530  0.00  0.00     0.000 O
ATOM      7   O  GCU B   1      22.200  26.575  27.8330  0.00  0.00     0.000 O
ATOM      9  HD  GCU B   1      21.766  26.083  28.3980  0.00  0.00     0.000 HD
ATOM      9   O  GCU B   1      24.946  25.564  28.0460  0.00  0.00     0.000 O
ATOM     11  HD  GCU B   1      24.512  25.072  28.6120  0.00  0.00     0.000 HD
ATOM     11   O  GCU B   1      26.602  26.494  25.9040  0.00  0.00     0.000 O
ATOM     13  HD  GCU B   1      26.168  26.002  26.4690  0.00  0.00     0.000 HD
ENDROOT
BRANCH 5 13
ATOM     13   C  GCU B   1      25.469  26.510  23.2660  0.00  0.00     0.000 C
ATOM     14   O  GCU B   1      26.128  25.453  23.1840  0.00  0.00     0.000 OA
ATOM     15   O  GCU B   1      25.430  27.342  22.3390  0.00  0.00     0.000 OA
ENDBRANCH 5 13
BRANCH 1 16
ATOM     16  O3  NAG B   2      21.472  26.510  24.7000  0.00  0.00     0.000 O
BRANCH 16 19
ATOM     17  C1  NAG B   2      19.562  28.724  22.3160  0.00  0.00     0.000 C
ATOM     18  C2  NAG B   2      20.220  28.308  23.6260  0.00  0.00     0.000 C
ATOM     19  C3  NAG B   2      21.000  27.008  23.4390  0.00  0.00     0.000 C
ATOM     20  C4  NAG B   2      20.107  25.939  22.8090  0.00  0.00     0.000 C
ATOM     21  C5  NAG B   2      19.512  26.463  21.5110  0.00  0.00     0.000 C
ATOM     22  O5  NAG B   2      18.758  27.655  21.7920  0.00  0.00     0.000 O
ATOM     23   O  NAG B   2      20.899  24.767  22.5820  0.00  0.00     0.000 O
ATOM     25  HD  NAG B   2      20.282  24.715  23.1870  0.00  0.00     0.000 HD
ATOM     25   C  NAG B   2      18.618  25.438  20.8150  0.00  0.00     0.000 C
ATOM     26   O  NAG B   2      17.367  25.273  21.5010  0.00  0.00     0.000 O
ATOM     28  HD  NAG B   2      16.750  25.221  22.1060  0.00  0.00     0.000 HD
BRANCH 18 30
ATOM     28   N  NAG B   2      20.756  29.620  23.9390  0.00  0.00     0.000 N
ATOM     30  HD  NAG B   2      20.570  29.291  24.7190  0.00  0.00     0.000 HD
ATOM     30   C  NAG B   2      20.774  30.144  25.1710  0.00  0.00     0.000 C
ATOM     31   C  NAG B   2      21.322  31.534  25.3290  0.00  0.00     0.000 C
ATOM     32   O  NAG B   2      20.362  29.529  26.1350  0.00  0.00     0.000 OA
ENDBRANCH 18 30
BRANCH 17 33
ATOM     33  O4  GCU B   3      18.816  29.932  22.5670  0.00  0.00     0.000 O
BRANCH 33 37
ATOM     34  C1  GCU B   3      17.214  32.662  19.8640  0.00  0.00     0.000 C
ATOM     35  C2  GCU B   3      16.270  31.619  20.4620  0.00  0.00     0.000 C
ATOM     36  C3  GCU B   3      16.900  31.016  21.7000  0.00  0.00     0.000 C
ATOM     37  C4  GCU B   3      18.274  30.461  21.3560  0.00  0.00     0.000 C
ATOM     38  C5  GCU B   3      19.146  31.573  20.7690  0.00  0.00     0.000 C
ATOM     39  O5  GCU B   3      18.499  32.091  19.6020  0.00  0.00     0.000 O
ATOM     40   O  GCU B   3      15.032  32.251  20.7950  0.00  0.00     0.000 O
ATOM     42  HD  GCU B   3      14.459  32.338  21.4390  0.00  0.00     0.000 HD
ATOM     42   O  GCU B   3      16.070  29.977  22.2500  0.00  0.00     0.000 O
ATOM     44  HD  GCU B   3      15.497  30.064  22.8940  0.00  0.00     0.000 HD
BRANCH 38 44
ATOM     44   C  GCU B   3      20.520  31.090  20.3780  0.00  0.00     0.000 C
ATOM     45   O  GCU B   3      20.650  30.463  19.3160  0.00  0.00     0.000 OA
ATOM     46   O  GCU B   3      21.493  31.329  21.1200  0.00  0.00     0.000 OA
ENDBRANCH 38 44
BRANCH 34 47
ATOM     47  O3  NAG B   4      16.748  33.029  18.6780  0.00  0.00     0.000 O
BRANCH 47 50
ATOM     48  C1  NAG B   4      18.578  35.915  17.2360  0.00  0.00     0.000 C
ATOM     49  C2  NAG B   4      18.359  34.497  17.7540  0.00  0.00     0.000 C
ATOM     50  C3  NAG B   4      16.882  34.140  17.7940  0.00  0.00     0.000 C
ATOM     51  C4  NAG B   4      15.983  35.285  18.2750  0.00  0.00     0.000 C
ATOM     52  C5  NAG B   4      16.111  36.503  17.3740  0.00  0.00     0.000 C
ATOM     53  O5  NAG B   4      17.468  36.798  16.9720  0.00  0.00     0.000 O
BRANCH 49 56
ATOM     54   N  NAG B   4      18.632  33.673  16.5640  0.00  0.00     0.000 N
ATOM     56  HD  NAG B   4      18.052  33.447  15.9610  0.00  0.00     0.000 HD
ATOM     56   C  NAG B   4      19.863  32.283  15.0000  0.00  0.00     0.000 C
ATOM     57   O  NAG B   4      20.700  32.899  17.1030  0.00  0.00     0.000 OA
ATOM     58   C  NAG B   4      19.762  32.978  16.3240  0.00  0.00     0.000 C
ENDBRANCH 49 56
ATOM     59   O  NAG B   4      15.239  38.802  17.1630  0.00  0.00     0.000 O
ATOM     61  HD  NAG B   4      15.850  38.266  17.4610  0.00  0.00     0.000 HD
ATOM     61   O  NAG B   4      15.239  38.802  17.1630  0.00  0.00     0.000 O
ATOM     63  HD  NAG B   4      15.850  38.266  17.4610  0.00  0.00     0.000 HD
ENDBRANCH 47 50
ENDBRANCH 34 47
ENDBRANCH 33 37
ENDBRANCH 17 33
ENDBRANCH 16 19
ENDBRANCH 1 16
TORSDOF 10
ENDMDL
MODEL 39
REMARK VINA RESULT:      -3.7     15.215     23.128
ROOT
ATOM      1  C1  GCU B   1      13.080  57.597   3.9780  0.00  0.00     0.000 C
ATOM      2  C2  GCU B   1      14.084  58.196   3.0050  0.00  0.00     0.000 C
ATOM      3  C3  GCU B   1      13.426  58.464   1.6600  0.00  0.00     0.000 C
ATOM      4  C4  GCU B   1      12.710  57.216   1.1670  0.00  0.00     0.000 C
ATOM      5  C5  GCU B   1      11.773  56.660   2.2400  0.00  0.00     0.000 C
ATOM      6  O5  GCU B   1      12.527  56.390   3.4290  0.00  0.00     0.000 O
ATOM      7   O  GCU B   1      14.574  59.404   3.5770  0.00  0.00     0.000 O
ATOM      9  HD  GCU B   1      15.406  59.617   3.6870  0.00  0.00     0.000 HD
ATOM      9   O  GCU B   1      14.399  58.876   0.6970  0.00  0.00     0.000 O
ATOM     11  HD  GCU B   1      15.231  59.089   0.8060  0.00  0.00     0.000 HD
ATOM     11   O  GCU B   1      11.963  57.545  -0.0050  0.00  0.00     0.000 O
ATOM     13  HD  GCU B   1      12.795  57.758   0.1050  0.00  0.00     0.000 HD
ENDROOT
BRANCH 5 13
ATOM     13   C  GCU B   1      11.066  55.431   1.7180  0.00  0.00     0.000 C
ATOM     14   O  GCU B   1      10.135  55.541   0.8940  0.00  0.00     0.000 OA
ATOM     15   O  GCU B   1      11.470  54.323   2.1210  0.00  0.00     0.000 OA
ENDBRANCH 5 13
BRANCH 1 16
ATOM     16  O3  NAG B   2      13.334  56.816   5.0310  0.00  0.00     0.000 O
BRANCH 16 19
ATOM     17  C1  NAG B   2      10.862  55.784   7.6860  0.00  0.00     0.000 C
ATOM     18  C2  NAG B   2      11.574  56.720   6.7180  0.00  0.00     0.000 C
ATOM     19  C3  NAG B   2      12.525  55.931   5.8200  0.00  0.00     0.000 C
ATOM     20  C4  NAG B   2      13.457  55.062   6.6650  0.00  0.00     0.000 C
ATOM     21  C5  NAG B   2      12.637  54.170   7.5860  0.00  0.00     0.000 C
ATOM     22  O5  NAG B   2      11.812  54.999   8.4240  0.00  0.00     0.000 O
ATOM     23   O  NAG B   2      14.273  54.285   5.7820  0.00  0.00     0.000 O
ATOM     25  HD  NAG B   2      14.668  54.901   6.2460  0.00  0.00     0.000 HD
ATOM     25   C  NAG B   2      13.504  53.259   8.4520  0.00  0.00     0.000 C
ATOM     26   O  NAG B   2      14.163  53.991   9.4970  0.00  0.00     0.000 O
ATOM     28  HD  NAG B   2      14.558  54.607   9.9610  0.00  0.00     0.000 HD
BRANCH 18 30
ATOM     28   N  NAG B   2      10.397  57.440   6.2680  0.00  0.00     0.000 N
ATOM     30  HD  NAG B   2      11.004  58.056   6.3050  0.00  0.00     0.000 HD
ATOM     30   C  NAG B   2      10.348  58.769   6.1180  0.00  0.00     0.000 C
ATOM     31   C  NAG B   2       9.041  59.373   5.6860  0.00  0.00     0.000 C
ATOM     32   O  NAG B   2      11.316  59.473   6.3220  0.00  0.00     0.000 OA
ENDBRANCH 18 30
BRANCH 17 33
ATOM     33  O4  GCU B   3      10.011  56.590   8.5260  0.00  0.00     0.000 O
BRANCH 33 37
ATOM     34  C1  GCU B   3       6.782  55.525  10.9290  0.00  0.00     0.000 C
ATOM     35  C2  GCU B   3       8.180  55.455  11.5460  0.00  0.00     0.000 C
ATOM     36  C3  GCU B   3       9.146  56.262  10.7040  0.00  0.00     0.000 C
ATOM     37  C4  GCU B   3       9.097  55.776   9.2620  0.00  0.00     0.000 C
ATOM     38  C5  GCU B   3       7.666  55.885   8.7310  0.00  0.00     0.000 C
ATOM     39  O5  GCU B   3       6.810  55.097   9.5640  0.00  0.00     0.000 O
ATOM     40   O  GCU B   3       8.126  55.979  12.8740  0.00  0.00     0.000 O
ATOM     42  HD  GCU B   3       8.517  56.540  13.4060  0.00  0.00     0.000 HD
ATOM     42   O  GCU B   3      10.487  56.159  11.2150  0.00  0.00     0.000 O
ATOM     44  HD  GCU B   3      10.879  56.720  11.7460  0.00  0.00     0.000 HD
BRANCH 38 44
ATOM     44   C  GCU B   3       7.533  55.396   7.3110  0.00  0.00     0.000 C
ATOM     45   O  GCU B   3       7.370  54.183   7.1130  0.00  0.00     0.000 OA
ATOM     46   O  GCU B   3       7.587  56.211   6.3700  0.00  0.00     0.000 OA
ENDBRANCH 38 44
BRANCH 34 47
ATOM     47  O3  NAG B   4       5.997  54.656  11.5500  0.00  0.00     0.000 O
BRANCH 47 50
ATOM     48  C1  NAG B   4       4.763  51.689   9.7000  0.00  0.00     0.000 C
ATOM     49  C2  NAG B   4       5.721  52.541  10.5250  0.00  0.00     0.000 C
ATOM     50  C3  NAG B   4       5.001  53.699  11.1960  0.00  0.00     0.000 C
ATOM     51  C4  NAG B   4       3.945  54.367  10.3080  0.00  0.00     0.000 C
ATOM     52  C5  NAG B   4       2.873  53.376   9.8850  0.00  0.00     0.000 C
ATOM     53  O5  NAG B   4       3.386  52.078   9.5100  0.00  0.00     0.000 O
BRANCH 49 56
ATOM     54   N  NAG B   4       5.955  51.861  11.8120  0.00  0.00     0.000 N
ATOM     56  HD  NAG B   4       5.705  52.150  12.5890  0.00  0.00     0.000 HD
ATOM     56   C  NAG B   4       6.772  50.205  13.3870  0.00  0.00     0.000 C
ATOM     57   O  NAG B   4       7.448  50.283  11.1430  0.00  0.00     0.000 OA
ATOM     58   C  NAG B   4       6.758  50.797  12.0110  0.00  0.00     0.000 C
ENDBRANCH 49 56
ATOM     59   O  NAG B   4       0.814  53.279   8.5280  0.00  0.00     0.000 O
ATOM     61  HD  NAG B   4       1.672  53.178   8.5800  0.00  0.00     0.000 HD
ATOM     61   O  NAG B   4       0.814  53.279   8.5280  0.00  0.00     0.000 O
ATOM     63  HD  NAG B   4       1.672  53.178   8.5800  0.00  0.00     0.000 HD
ENDBRANCH 47 50
ENDBRANCH 34 47
ENDBRANCH 33 37
ENDBRANCH 17 33
ENDBRANCH 16 19
ENDBRANCH 1 16
TORSDOF 10
ENDMDL
MODEL 40
REMARK VINA RESULT:      -3.7     12.294     15.672
ROOT
ATOM      1  C1  GCU B   1      21.692  26.638  25.6520  0.00  0.00     0.000 C
ATOM      2  C2  GCU B   1      21.940  26.900  27.1300  0.00  0.00     0.000 C
ATOM      3  C3  GCU B   1      22.986  25.938  27.6720  0.00  0.00     0.000 C
ATOM      4  C4  GCU B   1      22.615  24.506  27.3210  0.00  0.00     0.000 C
ATOM      5  C5  GCU B   1      22.327  24.363  25.8260  0.00  0.00     0.000 C
ATOM      6  O5  GCU B   1      21.283  25.274  25.4590  0.00  0.00     0.000 O
ATOM      7   O  GCU B   1      22.377  28.248  27.2620  0.00  0.00     0.000 O
ATOM      9  HD  GCU B   1      22.040  28.845  27.7920  0.00  0.00     0.000 HD
ATOM      9   O  GCU B   1      23.107  26.073  29.0910  0.00  0.00     0.000 O
ATOM     11  HD  GCU B   1      22.770  26.670  29.6210  0.00  0.00     0.000 HD
ATOM     11   O  GCU B   1      23.694  23.646  27.6900  0.00  0.00     0.000 O
ATOM     13  HD  GCU B   1      23.357  24.242  28.2200  0.00  0.00     0.000 HD
ENDROOT
BRANCH 5 13
ATOM     13   C  GCU B   1      21.976  22.929  25.5050  0.00  0.00     0.000 C
ATOM     14   O  GCU B   1      22.798  22.015  25.7200  0.00  0.00     0.000 OA
ATOM     15   O  GCU B   1      20.838  22.705  25.0510  0.00  0.00     0.000 OA
ENDBRANCH 5 13
BRANCH 1 16
ATOM     16  O3  NAG B   2      20.587  26.904  24.9530  0.00  0.00     0.000 O
BRANCH 16 19
ATOM     17  C1  NAG B   2      19.269  28.973  22.0880  0.00  0.00     0.000 C
ATOM     18  C2  NAG B   2      19.691  28.662  23.5180  0.00  0.00     0.000 C
ATOM     19  C3  NAG B   2      20.349  27.286  23.5890  0.00  0.00     0.000 C
ATOM     20  C4  NAG B   2      19.447  26.231  22.9500  0.00  0.00     0.000 C
ATOM     21  C5  NAG B   2      19.096  26.645  21.5280  0.00  0.00     0.000 C
ATOM     22  O5  NAG B   2      18.439  27.924  21.5640  0.00  0.00     0.000 O
ATOM     23   O  NAG B   2      20.137  24.976  22.9700  0.00  0.00     0.000 O
ATOM     25  HD  NAG B   2      19.439  25.051  23.4770  0.00  0.00     0.000 HD
ATOM     25   C  NAG B   2      18.207  25.626  20.8190  0.00  0.00     0.000 C
ATOM     26   O  NAG B   2      16.862  25.655  21.3220  0.00  0.00     0.000 O
ATOM     28  HD  NAG B   2      16.164  25.730  21.8290  0.00  0.00     0.000 HD
BRANCH 18 30
ATOM     28   N  NAG B   2      19.785  30.088  23.7710  0.00  0.00     0.000 N
ATOM     30  HD  NAG B   2      20.142  29.738  24.4770  0.00  0.00     0.000 HD
ATOM     30   C  NAG B   2      20.211  30.614  24.9250  0.00  0.00     0.000 C
ATOM     31   C  NAG B   2      20.209  32.112  25.0500  0.00  0.00     0.000 C
ATOM     32   O  NAG B   2      20.587  29.918  25.8470  0.00  0.00     0.000 OA
ENDBRANCH 18 30
BRANCH 17 33
ATOM     33  O4  GCU B   3      18.625  30.263  22.0940  0.00  0.00     0.000 O
BRANCH 33 37
ATOM     34  C1  GCU B   3      18.150  33.060  19.0470  0.00  0.00     0.000 C
ATOM     35  C2  GCU B   3      17.065  31.994  19.2070  0.00  0.00     0.000 C
ATOM     36  C3  GCU B   3      17.176  31.360  20.5770  0.00  0.00     0.000 C
ATOM     37  C4  GCU B   3      18.586  30.824  20.7800  0.00  0.00     0.000 C
ATOM     38  C5  GCU B   3      19.598  31.957  20.6040  0.00  0.00     0.000 C
ATOM     39  O5  GCU B   3      19.445  32.504  19.2900  0.00  0.00     0.000 O
ATOM     40   O  GCU B   3      15.785  32.608  19.0480  0.00  0.00     0.000 O
ATOM     42  HD  GCU B   3      15.006  32.673  19.4210  0.00  0.00     0.000 HD
ATOM     42   O  GCU B   3      16.216  30.300  20.7370  0.00  0.00     0.000 O
ATOM     44  HD  GCU B   3      15.437  30.365  21.1090  0.00  0.00     0.000 HD
BRANCH 38 44
ATOM     44   C  GCU B   3      21.024  31.494  20.7660  0.00  0.00     0.000 C
ATOM     45   O  GCU B   3      21.610  31.738  21.8320  0.00  0.00     0.000 OA
ATOM     46   O  GCU B   3      21.584  30.879  19.8380  0.00  0.00     0.000 OA
ENDBRANCH 38 44
BRANCH 34 47
ATOM     47  O3  NAG B   4      18.174  33.457  17.7820  0.00  0.00     0.000 O
BRANCH 47 50
ATOM     48  C1  NAG B   4      19.756  36.746  17.1230  0.00  0.00     0.000 C
ATOM     49  C2  NAG B   4      19.674  35.256  17.4330  0.00  0.00     0.000 C
ATOM     50  C3  NAG B   4      18.313  34.684  17.0680  0.00  0.00     0.000 C
ATOM     51  C4  NAG B   4      17.141  35.611  17.4150  0.00  0.00     0.000 C
ATOM     52  C5  NAG B   4      17.261  36.943  16.6940  0.00  0.00     0.000 C
ATOM     53  O5  NAG B   4      18.600  37.485  16.6740  0.00  0.00     0.000 O
BRANCH 49 56
ATOM     54   N  NAG B   4      20.468  34.849  16.2610  0.00  0.00     0.000 N
ATOM     56  HD  NAG B   4      20.345  35.121  15.4480  0.00  0.00     0.000 HD
ATOM     56   C  NAG B   4      22.137  33.674  14.9480  0.00  0.00     0.000 C
ATOM     57   O  NAG B   4      21.617  33.108  17.1630  0.00  0.00     0.000 OA
ATOM     58   C  NAG B   4      21.374  33.852  16.2240  0.00  0.00     0.000 C
ENDBRANCH 49 56
ATOM     59   O  NAG B   4      16.073  39.098  16.4890  0.00  0.00     0.000 O
ATOM     61  HD  NAG B   4      16.683  38.622  16.8780  0.00  0.00     0.000 HD
ATOM     61   O  NAG B   4      16.073  39.098  16.4890  0.00  0.00     0.000 O
ATOM     63  HD  NAG B   4      16.683  38.622  16.8780  0.00  0.00     0.000 HD
ENDBRANCH 47 50
ENDBRANCH 34 47
ENDBRANCH 33 37
ENDBRANCH 17 33
ENDBRANCH 16 19
ENDBRANCH 1 16
TORSDOF 10
ENDMDL
MODEL 41
REMARK VINA RESULT:      -3.5      4.109      6.597
ROOT
ATOM      1  C1  GCU B   1      11.713  41.816  25.5540  0.00  0.00     0.000 C
ATOM      2  C2  GCU B   1      11.947  42.675  26.7870  0.00  0.00     0.000 C
ATOM      3  C3  GCU B   1      12.309  41.805  27.9810  0.00  0.00     0.000 C
ATOM      4  C4  GCU B   1      11.284  40.694  28.1510  0.00  0.00     0.000 C
ATOM      5  C5  GCU B   1      11.077  39.932  26.8410  0.00  0.00     0.000 C
ATOM      6  O5  GCU B   1      10.678  40.855  25.8180  0.00  0.00     0.000 O
ATOM      7   O  GCU B   1      13.002  43.584  26.4870  0.00  0.00     0.000 O
ATOM      9  HD  GCU B   1      12.980  44.444  26.5860  0.00  0.00     0.000 HD
ATOM      9   O  GCU B   1      12.374  42.590  29.1740  0.00  0.00     0.000 O
ATOM     11  HD  GCU B   1      12.352  43.450  29.2740  0.00  0.00     0.000 HD
ATOM     11   O  GCU B   1      11.739  39.798  29.1650  0.00  0.00     0.000 O
ATOM     13  HD  GCU B   1      11.716  40.658  29.2640  0.00  0.00     0.000 HD
ENDROOT
BRANCH 5 13
ATOM     13   C  GCU B   1      10.067  38.828  27.0430  0.00  0.00     0.000 C
ATOM     14   O  GCU B   1       8.850  39.049  26.8760  0.00  0.00     0.000 OA
ATOM     15   O  GCU B   1      10.502  37.702  27.3500  0.00  0.00     0.000 OA
ENDBRANCH 5 13
BRANCH 1 16
ATOM     16  O3  NAG B   2      10.956  42.105  24.4930  0.00  0.00     0.000 O
BRANCH 16 19
ATOM     17  C1  NAG B   2      11.635  42.835  20.8550  0.00  0.00     0.000 C
ATOM     18  C2  NAG B   2      11.681  43.049  22.3630  0.00  0.00     0.000 C
ATOM     19  C3  NAG B   2      11.086  41.843  23.0870  0.00  0.00     0.000 C
ATOM     20  C4  NAG B   2       9.698  41.522  22.5340  0.00  0.00     0.000 C
ATOM     21  C5  NAG B   2       9.777  41.325  21.0260  0.00  0.00     0.000 C
ATOM     22  O5  NAG B   2      10.300  42.524  20.4270  0.00  0.00     0.000 O
ATOM     23   O  NAG B   2       9.214  40.342  23.1860  0.00  0.00     0.000 O
ATOM     25  HD  NAG B   2       8.808  41.086  23.3630  0.00  0.00     0.000 HD
ATOM     25   C  NAG B   2       8.424  40.984  20.4040  0.00  0.00     0.000 C
ATOM     26   O  NAG B   2       7.556  42.127  20.3630  0.00  0.00     0.000 O
ATOM     28  HD  NAG B   2       7.150  42.871  20.5410  0.00  0.00     0.000 HD
BRANCH 18 30
ATOM     28   N  NAG B   2      12.358  44.326  22.4850  0.00  0.00     0.000 N
ATOM     30  HD  NAG B   2      12.904  43.775  22.8700  0.00  0.00     0.000 HD
ATOM     30   C  NAG B   2      13.488  44.508  23.1790  0.00  0.00     0.000 C
ATOM     31   C  NAG B   2      14.046  45.902  23.2500  0.00  0.00     0.000 C
ATOM     32   O  NAG B   2      14.052  43.589  23.7390  0.00  0.00     0.000 OA
ENDBRANCH 18 30
BRANCH 17 33
ATOM     33  O4  GCU B   3      12.176  44.017  20.2310  0.00  0.00     0.000 O
BRANCH 33 37
ATOM     34  C1  GCU B   3      14.359  44.488  16.7180  0.00  0.00     0.000 C
ATOM     35  C2  GCU B   3      12.838  44.391  16.6000  0.00  0.00     0.000 C
ATOM     36  C3  GCU B   3      12.207  44.653  17.9510  0.00  0.00     0.000 C
ATOM     37  C4  GCU B   3      12.796  43.701  18.9830  0.00  0.00     0.000 C
ATOM     38  C5  GCU B   3      14.315  43.871  19.0320  0.00  0.00     0.000 C
ATOM     39  O5  GCU B   3      14.846  43.602  17.7300  0.00  0.00     0.000 O
ATOM     40   O  GCU B   3      12.384  45.355  15.6480  0.00  0.00     0.000 O
ATOM     42  HD  GCU B   3      11.803  45.988  15.5380  0.00  0.00     0.000 HD
ATOM     42   O  GCU B   3      10.778  44.498  17.8940  0.00  0.00     0.000 O
ATOM     44  HD  GCU B   3      10.197  45.131  17.7840  0.00  0.00     0.000 HD
BRANCH 38 44
ATOM     44   C  GCU B   3      14.974  42.939  20.0180  0.00  0.00     0.000 C
ATOM     45   O  GCU B   3      15.711  43.422  20.8900  0.00  0.00     0.000 OA
ATOM     46   O  GCU B   3      14.765  41.713  19.9430  0.00  0.00     0.000 OA
ENDBRANCH 38 44
BRANCH 34 47
ATOM     47  O3  NAG B   4      14.903  44.057  15.5880  0.00  0.00     0.000 O
BRANCH 47 50
ATOM     48  C1  NAG B   4      16.530  44.262  12.2620  0.00  0.00     0.000 C
ATOM     49  C2  NAG B   4      15.405  44.316  13.2890  0.00  0.00     0.000 C
ATOM     50  C3  NAG B   4      15.946  44.459  14.7030  0.00  0.00     0.000 C
ATOM     51  C4  NAG B   4      17.198  43.616  14.9730  0.00  0.00     0.000 C
ATOM     52  C5  NAG B   4      18.330  43.994  14.0330  0.00  0.00     0.000 C
ATOM     53  O5  NAG B   4      17.915  44.213  12.6670  0.00  0.00     0.000 O
BRANCH 49 56
ATOM     54   N  NAG B   4      14.853  45.682  13.2960  0.00  0.00     0.000 N
ATOM     56  HD  NAG B   4      14.911  46.247  13.9500  0.00  0.00     0.000 HD
ATOM     56   C  NAG B   4      13.648  47.646  12.5340  0.00  0.00     0.000 C
ATOM     57   O  NAG B   4      13.541  45.573  11.4440  0.00  0.00     0.000 OA
ATOM     58   C  NAG B   4      14.008  46.200  12.3830  0.00  0.00     0.000 C
ENDBRANCH 49 56
ATOM     59   O  NAG B   4      20.663  43.361  13.5290  0.00  0.00     0.000 O
ATOM     61  HD  NAG B   4      19.818  43.265  13.3670  0.00  0.00     0.000 HD
ATOM     61   O  NAG B   4      20.663  43.361  13.5290  0.00  0.00     0.000 O
ATOM     63  HD  NAG B   4      19.818  43.265  13.3670  0.00  0.00     0.000 HD
ENDBRANCH 47 50
ENDBRANCH 34 47
ENDBRANCH 33 37
ENDBRANCH 17 33
ENDBRANCH 16 19
ENDBRANCH 1 16
TORSDOF 10
ENDMDL
MODEL 42
REMARK VINA RESULT:      -3.3      5.135      8.209
ROOT
ATOM      1  C1  GCU B   1      12.754  44.474  26.2670  0.00  0.00     0.000 C
ATOM      2  C2  GCU B   1      12.417  45.383  27.4380  0.00  0.00     0.000 C
ATOM      3  C3  GCU B   1      13.249  45.012  28.6560  0.00  0.00     0.000 C
ATOM      4  C4  GCU B   1      13.133  43.522  28.9380  0.00  0.00     0.000 C
ATOM      5  C5  GCU B   1      13.431  42.700  27.6830  0.00  0.00     0.000 C
ATOM      6  O5  GCU B   1      12.539  43.102  26.6350  0.00  0.00     0.000 O
ATOM      7   O  GCU B   1      12.682  46.723  27.0360  0.00  0.00     0.000 O
ATOM      9  HD  GCU B   1      12.133  47.391  27.0900  0.00  0.00     0.000 HD
ATOM      9   O  GCU B   1      12.825  45.756  29.8020  0.00  0.00     0.000 O
ATOM     11  HD  GCU B   1      12.276  46.423  29.8560  0.00  0.00     0.000 HD
ATOM     11   O  GCU B   1      14.053  43.175  29.9740  0.00  0.00     0.000 O
ATOM     13  HD  GCU B   1      13.504  43.843  30.0280  0.00  0.00     0.000 HD
ENDROOT
BRANCH 5 13
ATOM     13   C  GCU B   1      13.322  41.227  27.9960  0.00  0.00     0.000 C
ATOM     14   O  GCU B   1      12.593  40.832  28.9290  0.00  0.00     0.000 OA
ATOM     15   O  GCU B   1      13.961  40.438  27.2730  0.00  0.00     0.000 OA
ENDBRANCH 5 13
BRANCH 1 16
ATOM     16  O3  NAG B   2      11.973  44.155  25.2330  0.00  0.00     0.000 O
BRANCH 16 19
ATOM     17  C1  NAG B   2      12.978  42.331  22.0880  0.00  0.00     0.000 C
ATOM     18  C2  NAG B   2      13.083  43.352  23.2140  0.00  0.00     0.000 C
ATOM     19  C3  NAG B   2      12.001  43.097  24.2630  0.00  0.00     0.000 C
ATOM     20  C4  NAG B   2      10.626  43.022  23.6010  0.00  0.00     0.000 C
ATOM     21  C5  NAG B   2      10.640  41.971  22.5000  0.00  0.00     0.000 C
ATOM     22  O5  NAG B   2      11.651  42.319  21.5370  0.00  0.00     0.000 O
ATOM     23   O  NAG B   2       9.658  42.705  24.6070  0.00  0.00     0.000 O
ATOM     25  HD  NAG B   2       9.619  43.496  24.2570  0.00  0.00     0.000 HD
ATOM     25   C  NAG B   2       9.289  41.828  21.8020  0.00  0.00     0.000 C
ATOM     26   O  NAG B   2       9.016  42.945  20.9420  0.00  0.00     0.000 O
ATOM     28  HD  NAG B   2       8.977  43.736  20.5920  0.00  0.00     0.000 HD
BRANCH 18 30
ATOM     28   N  NAG B   2      14.507  43.227  23.4590  0.00  0.00     0.000 N
ATOM     30  HD  NAG B   2      14.367  44.077  23.5390  0.00  0.00     0.000 HD
ATOM     30   C  NAG B   2      15.332  44.270  23.6160  0.00  0.00     0.000 C
ATOM     31   C  NAG B   2      16.792  43.979  23.8180  0.00  0.00     0.000 C
ATOM     32   O  NAG B   2      14.927  45.415  23.5960  0.00  0.00     0.000 OA
ENDBRANCH 18 30
BRANCH 17 33
ATOM     33  O4  GCU B   3      13.997  42.646  21.1180  0.00  0.00     0.000 O
BRANCH 33 37
ATOM     34  C1  GCU B   3      15.772  40.264  18.2010  0.00  0.00     0.000 C
ATOM     35  C2  GCU B   3      14.520  41.051  17.8100  0.00  0.00     0.000 C
ATOM     36  C3  GCU B   3      14.277  42.152  18.8210  0.00  0.00     0.000 C
ATOM     37  C4  GCU B   3      14.205  41.555  20.2190  0.00  0.00     0.000 C
ATOM     38  C5  GCU B   3      15.496  40.793  20.5210  0.00  0.00     0.000 C
ATOM     39  O5  GCU B   3      15.660  39.766  19.5370  0.00  0.00     0.000 O
ATOM     40   O  GCU B   3      14.711  41.608  16.5080  0.00  0.00     0.000 O
ATOM     42  HD  GCU B   3      14.648  42.349  16.0650  0.00  0.00     0.000 HD
ATOM     42   O  GCU B   3      13.065  42.868  18.5240  0.00  0.00     0.000 O
ATOM     44  HD  GCU B   3      13.002  43.609  18.0810  0.00  0.00     0.000 HD
BRANCH 38 44
ATOM     44   C  GCU B   3      15.487  40.150  21.8860  0.00  0.00     0.000 C
ATOM     45   O  GCU B   3      14.840  39.105  22.0450  0.00  0.00     0.000 OA
ATOM     46   O  GCU B   3      16.126  40.673  22.8190  0.00  0.00     0.000 OA
ENDBRANCH 38 44
BRANCH 34 47
ATOM     47  O3  NAG B   4      15.856  39.186  17.4340  0.00  0.00     0.000 O
BRANCH 47 50
ATOM     48  C1  NAG B   4      17.759  36.262  16.1770  0.00  0.00     0.000 C
ATOM     49  C2  NAG B   4      17.459  37.724  16.4880  0.00  0.00     0.000 C
ATOM     50  C3  NAG B   4      16.369  37.859  17.5380  0.00  0.00     0.000 C
ATOM     51  C4  NAG B   4      15.222  36.856  17.3700  0.00  0.00     0.000 C
ATOM     52  C5  NAG B   4      15.726  35.424  17.4490  0.00  0.00     0.000 C
ATOM     53  O5  NAG B   4      16.966  35.197  16.7430  0.00  0.00     0.000 O
BRANCH 49 56
ATOM     54   N  NAG B   4      18.767  38.307  16.8360  0.00  0.00     0.000 N
ATOM     56  HD  NAG B   4      19.329  38.657  16.2780  0.00  0.00     0.000 HD
ATOM     56   C  NAG B   4      20.669  38.964  18.1920  0.00  0.00     0.000 C
ATOM     57   O  NAG B   4      18.953  37.572  18.9790  0.00  0.00     0.000 OA
ATOM     58   C  NAG B   4      19.384  38.211  18.0300  0.00  0.00     0.000 C
ENDBRANCH 49 56
ATOM     59   O  NAG B   4      14.882  33.109  17.3070  0.00  0.00     0.000 O
ATOM     61  HD  NAG B   4      15.227  33.797  16.9110  0.00  0.00     0.000 HD
ATOM     61   O  NAG B   4      14.882  33.109  17.3070  0.00  0.00     0.000 O
ATOM     63  HD  NAG B   4      15.227  33.797  16.9110  0.00  0.00     0.000 HD
ENDBRANCH 47 50
ENDBRANCH 34 47
ENDBRANCH 33 37
ENDBRANCH 17 33
ENDBRANCH 16 19
ENDBRANCH 1 16
TORSDOF 10
ENDMDL
MODEL 43
REMARK VINA RESULT:      -3.2     11.290     15.649
ROOT
ATOM      1  C1  GCU B   1      22.821  29.676  27.0100  0.00  0.00     0.000 C
ATOM      2  C2  GCU B   1      23.478  29.128  28.2680  0.00  0.00     0.000 C
ATOM      3  C3  GCU B   1      24.846  29.761  28.4720  0.00  0.00     0.000 C
ATOM      4  C4  GCU B   1      25.676  29.640  27.2030  0.00  0.00     0.000 C
ATOM      5  C5  GCU B   1      24.903  30.161  25.9900  0.00  0.00     0.000 C
ATOM      6  O5  GCU B   1      23.669  29.441  25.8740  0.00  0.00     0.000 O
ATOM      7   O  GCU B   1      22.619  29.419  29.3660  0.00  0.00     0.000 O
ATOM      9  HD  GCU B   1      22.328  28.850  29.9510  0.00  0.00     0.000 HD
ATOM      9   O  GCU B   1      25.533  29.136  29.5600  0.00  0.00     0.000 O
ATOM     11  HD  GCU B   1      25.242  28.567  30.1450  0.00  0.00     0.000 HD
ATOM     11   O  GCU B   1      26.881  30.389  27.3660  0.00  0.00     0.000 O
ATOM     13  HD  GCU B   1      26.590  29.820  27.9510  0.00  0.00     0.000 HD
ENDROOT
BRANCH 5 13
ATOM     13   C  GCU B   1      25.755  30.043  24.7490  0.00  0.00     0.000 C
ATOM     14   O  GCU B   1      26.658  29.184  24.6830  0.00  0.00     0.000 OA
ATOM     15   O  GCU B   1      25.497  30.809  23.8010  0.00  0.00     0.000 OA
ENDBRANCH 5 13
BRANCH 1 16
ATOM     16  O3  NAG B   2      21.900  29.082  26.2490  0.00  0.00     0.000 O
BRANCH 16 19
ATOM     17  C1  NAG B   2      19.808  30.330  23.3700  0.00  0.00     0.000 C
ATOM     18  C2  NAG B   2      20.371  30.295  24.7850  0.00  0.00     0.000 C
ATOM     19  C3  NAG B   2      21.486  29.255  24.8850  0.00  0.00     0.000 C
ATOM     20  C4  NAG B   2      21.002  27.904  24.3600  0.00  0.00     0.000 C
ATOM     21  C5  NAG B   2      20.468  28.062  22.9440  0.00  0.00     0.000 C
ATOM     22  O5  NAG B   2      19.394  29.019  22.9550  0.00  0.00     0.000 O
ATOM     23   O  NAG B   2      22.099  26.985  24.4010  0.00  0.00     0.000 O
ATOM     25  HD  NAG B   2      21.443  26.841  24.9480  0.00  0.00     0.000 HD
ATOM     25   C  NAG B   2      19.979  26.744  22.3470  0.00  0.00     0.000 C
ATOM     26   O  NAG B   2      18.737  26.324  22.9320  0.00  0.00     0.000 O
ATOM     28  HD  NAG B   2      18.080  26.180  23.4780  0.00  0.00     0.000 HD
BRANCH 18 30
ATOM     28   N  NAG B   2      20.699  31.686  25.0320  0.00  0.00     0.000 N
ATOM     30  HD  NAG B   2      20.225  31.469  25.7230  0.00  0.00     0.000 HD
ATOM     30   C  NAG B   2      20.206  32.399  26.0520  0.00  0.00     0.000 C
ATOM     31   C  NAG B   2      20.605  33.845  26.1490  0.00  0.00     0.000 C
ATOM     32   O  NAG B   2      19.459  31.908  26.8750  0.00  0.00     0.000 OA
ENDBRANCH 18 30
BRANCH 17 33
ATOM     33  O4  GCU B   3      18.741  31.300  23.3490  0.00  0.00     0.000 O
BRANCH 33 37
ATOM     34  C1  GCU B   3      16.874  33.220  20.1620  0.00  0.00     0.000 C
ATOM     35  C2  GCU B   3      16.351  31.840  20.5640  0.00  0.00     0.000 C
ATOM     36  C3  GCU B   3      16.838  31.500  21.9570  0.00  0.00     0.000 C
ATOM     37  C4  GCU B   3      18.355  31.611  22.0090  0.00  0.00     0.000 C
ATOM     38  C5  GCU B   3      18.783  33.020  21.5950  0.00  0.00     0.000 C
ATOM     39  O5  GCU B   3      18.299  33.272  20.2720  0.00  0.00     0.000 O
ATOM     40   O  GCU B   3      14.922  31.859  20.5310  0.00  0.00     0.000 O
ATOM     42  HD  GCU B   3      14.224  31.655  21.0010  0.00  0.00     0.000 HD
ATOM     42   O  GCU B   3      16.424  30.177  22.3410  0.00  0.00     0.000 O
ATOM     44  HD  GCU B   3      15.726  29.973  22.8110  0.00  0.00     0.000 HD
BRANCH 38 44
ATOM     44   C  GCU B   3      20.280  33.198  21.5980  0.00  0.00     0.000 C
ATOM     45   O  GCU B   3      20.932  32.762  20.6370  0.00  0.00     0.000 OA
ATOM     46   O  GCU B   3      20.832  33.777  22.5540  0.00  0.00     0.000 OA
ENDBRANCH 38 44
BRANCH 34 47
ATOM     47  O3  NAG B   4      16.617  33.415  18.8760  0.00  0.00     0.000 O
BRANCH 47 50
ATOM     48  C1  NAG B   4      18.669  35.995  17.1760  0.00  0.00     0.000 C
ATOM     49  C2  NAG B   4      18.332  34.648  17.8090  0.00  0.00     0.000 C
ATOM     50  C3  NAG B   4      16.830  34.437  17.9040  0.00  0.00     0.000 C
ATOM     51  C4  NAG B   4      16.055  35.696  18.3110  0.00  0.00     0.000 C
ATOM     52  C5  NAG B   4      16.273  36.823  17.3150  0.00  0.00     0.000 C
ATOM     53  O5  NAG B   4      17.639  36.956  16.8650  0.00  0.00     0.000 O
BRANCH 49 56
ATOM     54   N  NAG B   4      18.623  33.857  16.6000  0.00  0.00     0.000 N
ATOM     56  HD  NAG B   4      18.293  33.997  15.8120  0.00  0.00     0.000 HD
ATOM     56   C  NAG B   4      19.551  32.097  15.2100  0.00  0.00     0.000 C
ATOM     57   O  NAG B   4      19.685  32.086  17.5510  0.00  0.00     0.000 OA
ATOM     58   C  NAG B   4      19.283  32.682  16.5630  0.00  0.00     0.000 C
ENDBRANCH 49 56
ATOM     59   O  NAG B   4      15.613  39.172  16.9400  0.00  0.00     0.000 O
ATOM     61  HD  NAG B   4      16.179  38.605  17.2670  0.00  0.00     0.000 HD
ATOM     61   O  NAG B   4      15.613  39.172  16.9400  0.00  0.00     0.000 O
ATOM     63  HD  NAG B   4      16.179  38.605  17.2670  0.00  0.00     0.000 HD
ENDBRANCH 47 50
ENDBRANCH 34 47
ENDBRANCH 33 37
ENDBRANCH 17 33
ENDBRANCH 16 19
ENDBRANCH 1 16
TORSDOF 10
ENDMDL
MODEL 44
REMARK VINA RESULT:      -2.9     27.362     31.570
ROOT
ATOM      1  C1  GCU B   1      25.514  15.727  37.7040  0.00  0.00     0.000 C
ATOM      2  C2  GCU B   1      26.528  15.879  38.8280  0.00  0.00     0.000 C
ATOM      3  C3  GCU B   1      27.880  16.297  38.2700  0.00  0.00     0.000 C
ATOM      4  C4  GCU B   1      28.296  15.363  37.1440  0.00  0.00     0.000 C
ATOM      5  C5  GCU B   1      27.185  15.232  36.1000  0.00  0.00     0.000 C
ATOM      6  O5  GCU B   1      25.989  14.771  36.7430  0.00  0.00     0.000 O
ATOM      7   O  GCU B   1      26.030  16.860  39.7310  0.00  0.00     0.000 O
ATOM      9  HD  GCU B   1      25.939  16.768  40.5870  0.00  0.00     0.000 HD
ATOM      9   O  GCU B   1      28.874  16.286  39.2990  0.00  0.00     0.000 O
ATOM     11  HD  GCU B   1      28.784  16.194  40.1550  0.00  0.00     0.000 HD
ATOM     11   O  GCU B   1      29.478  15.878  36.5300  0.00  0.00     0.000 O
ATOM     13  HD  GCU B   1      29.387  15.785  37.3860  0.00  0.00     0.000 HD
ENDROOT
BRANCH 5 13
ATOM     13   C  GCU B   1      27.630  14.312  34.9890  0.00  0.00     0.000 C
ATOM     14   O  GCU B   1      28.334  14.745  34.0540  0.00  0.00     0.000 OA
ATOM     15   O  GCU B   1      27.291  13.115  35.0650  0.00  0.00     0.000 OA
ENDBRANCH 5 13
BRANCH 1 16
ATOM     16  O3  NAG B   2      24.421  14.961  37.6930  0.00  0.00     0.000 O
BRANCH 16 19
ATOM     17  C1  NAG B   2      20.852  15.995  37.0480  0.00  0.00     0.000 C
ATOM     18  C2  NAG B   2      22.241  16.057  37.6690  0.00  0.00     0.000 C
ATOM     19  C3  NAG B   2      23.166  15.041  37.0000  0.00  0.00     0.000 C
ATOM     20  C4  NAG B   2      22.528  13.653  37.0100  0.00  0.00     0.000 C
ATOM     21  C5  NAG B   2      21.151  13.714  36.3630  0.00  0.00     0.000 C
ATOM     22  O5  NAG B   2      20.338  14.654  37.0870  0.00  0.00     0.000 O
ATOM     23   O  NAG B   2      23.392  12.754  36.3070  0.00  0.00     0.000 O
ATOM     25  HD  NAG B   2      23.310  12.635  37.1610  0.00  0.00     0.000 HD
ATOM     25   C  NAG B   2      20.457  12.354  36.3230  0.00  0.00     0.000 C
ATOM     26   O  NAG B   2      19.997  11.954  37.6240  0.00  0.00     0.000 O
ATOM     28  HD  NAG B   2      19.914  11.836  38.4770  0.00  0.00     0.000 HD
BRANCH 18 30
ATOM     28   N  NAG B   2      22.383  17.500  37.6200  0.00  0.00     0.000 N
ATOM     30  HD  NAG B   2      22.775  17.288  38.3620  0.00  0.00     0.000 HD
ATOM     30   C  NAG B   2      22.891  18.234  38.6170  0.00  0.00     0.000 C
ATOM     31   C  NAG B   2      22.930  19.725  38.4340  0.00  0.00     0.000 C
ATOM     32   O  NAG B   2      23.306  17.726  39.6400  0.00  0.00     0.000 OA
ENDBRANCH 18 30
BRANCH 17 33
ATOM     33  O4  GCU B   3      20.021  16.947  37.7430  0.00  0.00     0.000 O
BRANCH 33 37
ATOM     34  C1  GCU B   3      16.297  18.534  36.7720  0.00  0.00     0.000 C
ATOM     35  C2  GCU B   3      16.330  17.161  37.4440  0.00  0.00     0.000 C
ATOM     36  C3  GCU B   3      17.680  16.947  38.0940  0.00  0.00     0.000 C
ATOM     37  C4  GCU B   3      18.781  17.141  37.0610  0.00  0.00     0.000 C
ATOM     38  C5  GCU B   3      18.670  18.538  36.4470  0.00  0.00     0.000 C
ATOM     39  O5  GCU B   3      17.378  18.670  35.8450  0.00  0.00     0.000 O
ATOM     40   O  GCU B   3      15.294  17.102  38.4270  0.00  0.00     0.000 O
ATOM     42  HD  GCU B   3      15.147  16.895  39.2550  0.00  0.00     0.000 HD
ATOM     42   O  GCU B   3      17.773  15.634  38.6750  0.00  0.00     0.000 O
ATOM     44  HD  GCU B   3      17.626  15.427  39.5030  0.00  0.00     0.000 HD
BRANCH 38 44
ATOM     44   C  GCU B   3      19.717  18.794  35.3920  0.00  0.00     0.000 C
ATOM     45   O  GCU B   3      20.754  19.393  35.7170  0.00  0.00     0.000 OA
ATOM     46   O  GCU B   3      19.527  18.403  34.2240  0.00  0.00     0.000 OA
ENDBRANCH 38 44
BRANCH 34 47
ATOM     47  O3  NAG B   4      15.197  18.625  36.0390  0.00  0.00     0.000 O
BRANCH 47 50
ATOM     48  C1  NAG B   4      12.848  21.108  37.4780  0.00  0.00     0.000 C
ATOM     49  C2  NAG B   4      14.173  20.541  36.9780  0.00  0.00     0.000 C
ATOM     50  C3  NAG B   4      13.959  19.332  36.0820  0.00  0.00     0.000 C
ATOM     51  C4  NAG B   4      12.851  18.391  36.5680  0.00  0.00     0.000 C
ATOM     52  C5  NAG B   4      11.515  19.110  36.6530  0.00  0.00     0.000 C
ATOM     53  O5  NAG B   4      11.597  20.441  37.2080  0.00  0.00     0.000 O
BRANCH 49 56
ATOM     54   N  NAG B   4      14.388  21.576  35.9530  0.00  0.00     0.000 N
ATOM     56  HD  NAG B   4      13.827  21.798  35.3320  0.00  0.00     0.000 HD
ATOM     56   C  NAG B   4      15.522  23.294  34.6660  0.00  0.00     0.000 C
ATOM     57   O  NAG B   4      16.612  21.944  36.2440  0.00  0.00     0.000 OA
ATOM     58   C  NAG B   4      15.554  22.201  35.6900  0.00  0.00     0.000 C
ENDBRANCH 49 56
ATOM     59   O  NAG B   4       9.168  18.676  37.2850  0.00  0.00     0.000 O
ATOM     61  HD  NAG B   4       9.959  18.946  37.5120  0.00  0.00     0.000 HD
ATOM     61   O  NAG B   4       9.168  18.676  37.2850  0.00  0.00     0.000 O
ATOM     63  HD  NAG B   4       9.959  18.946  37.5120  0.00  0.00     0.000 HD
ENDBRANCH 47 50
ENDBRANCH 34 47
ENDBRANCH 33 37
ENDBRANCH 17 33
ENDBRANCH 16 19
ENDBRANCH 1 16
TORSDOF 10
ENDMDL
MODEL 45
REMARK VINA RESULT:      -2.8      5.916      9.298
ROOT
ATOM      1  C1  GCU B   1      11.584  47.309  26.3950  0.00  0.00     0.000 C
ATOM      2  C2  GCU B   1      11.241  48.622  27.0810  0.00  0.00     0.000 C
ATOM      3  C3  GCU B   1      11.944  48.720  28.4260  0.00  0.00     0.000 C
ATOM      4  C4  GCU B   1      11.678  47.469  29.2500  0.00  0.00     0.000 C
ATOM      5  C5  GCU B   1      11.997  46.205  28.4500  0.00  0.00     0.000 C
ATOM      6  O5  GCU B   1      11.223  46.206  27.2420  0.00  0.00     0.000 O
ATOM      7   O  GCU B   1      11.651  49.680  26.2200  0.00  0.00     0.000 O
ATOM      9  HD  GCU B   1      11.159  50.342  25.9550  0.00  0.00     0.000 HD
ATOM      9   O  GCU B   1      11.502  49.875  29.1430  0.00  0.00     0.000 O
ATOM     11  HD  GCU B   1      11.011  50.537  28.8780  0.00  0.00     0.000 HD
ATOM     11   O  GCU B   1      12.484  47.512  30.4280  0.00  0.00     0.000 O
ATOM     13  HD  GCU B   1      11.993  48.174  30.1620  0.00  0.00     0.000 HD
ENDROOT
BRANCH 5 13
ATOM     13   C  GCU B   1      11.736  44.982  29.2960  0.00  0.00     0.000 C
ATOM     14   O  GCU B   1      12.413  43.946  29.1320  0.00  0.00     0.000 OA
ATOM     15   O  GCU B   1      10.850  45.066  30.1680  0.00  0.00     0.000 OA
ENDBRANCH 5 13
BRANCH 1 16
ATOM     16  O3  NAG B   2      10.857  46.649  25.4910  0.00  0.00     0.000 O
BRANCH 16 19
ATOM     17  C1  NAG B   2      11.398  45.951  21.8240  0.00  0.00     0.000 C
ATOM     18  C2  NAG B   2      11.235  46.790  23.0840  0.00  0.00     0.000 C
ATOM     19  C3  NAG B   2      11.192  45.891  24.3180  0.00  0.00     0.000 C
ATOM     20  C4  NAG B   2      10.139  44.797  24.1430  0.00  0.00     0.000 C
ATOM     21  C5  NAG B   2      10.405  44.025  22.8590  0.00  0.00     0.000 C
ATOM     22  O5  NAG B   2      10.378  44.942  21.7500  0.00  0.00     0.000 O
ATOM     23   O  NAG B   2      10.188  43.936  25.2860  0.00  0.00     0.000 O
ATOM     25  HD  NAG B   2       9.481  44.426  25.1920  0.00  0.00     0.000 HD
ATOM     25   C  NAG B   2       9.398  42.902  22.6250  0.00  0.00     0.000 C
ATOM     26   O  NAG B   2       8.115  43.413  22.2320  0.00  0.00     0.000 O
ATOM     28  HD  NAG B   2       7.407  43.903  22.1370  0.00  0.00     0.000 HD
BRANCH 18 30
ATOM     28   N  NAG B   2      12.282  47.758  22.8150  0.00  0.00     0.000 N
ATOM     30  HD  NAG B   2      11.649  48.241  23.1560  0.00  0.00     0.000 HD
ATOM     30   C  NAG B   2      12.133  49.079  22.9660  0.00  0.00     0.000 C
ATOM     31   C  NAG B   2      13.298  49.957  22.6030  0.00  0.00     0.000 C
ATOM     32   O  NAG B   2      11.099  49.565  23.3770  0.00  0.00     0.000 OA
ENDBRANCH 18 30
BRANCH 17 33
ATOM     33  O4  GCU B   3      11.396  46.850  20.6970  0.00  0.00     0.000 O
BRANCH 33 37
ATOM     34  C1  GCU B   3      12.850  46.339  16.8300  0.00  0.00     0.000 C
ATOM     35  C2  GCU B   3      11.399  45.939  17.1020  0.00  0.00     0.000 C
ATOM     36  C3  GCU B   3      10.931  46.576  18.3930  0.00  0.00     0.000 C
ATOM     37  C4  GCU B   3      11.882  46.202  19.5210  0.00  0.00     0.000 C
ATOM     38  C5  GCU B   3      13.303  46.641  19.1630  0.00  0.00     0.000 C
ATOM     39  O5  GCU B   3      13.684  45.999  17.9420  0.00  0.00     0.000 O
ATOM     40   O  GCU B   3      10.586  46.379  16.0110  0.00  0.00     0.000 O
ATOM     42  HD  GCU B   3       9.858  46.811  15.8310  0.00  0.00     0.000 HD
ATOM     42   O  GCU B   3       9.592  46.163  18.7180  0.00  0.00     0.000 O
ATOM     44  HD  GCU B   3       8.863  46.596  18.5380  0.00  0.00     0.000 HD
BRANCH 38 44
ATOM     44   C  GCU B   3      14.310  46.280  20.2270  0.00  0.00     0.000 C
ATOM     45   O  GCU B   3      14.714  45.109  20.2880  0.00  0.00     0.000 OA
ATOM     46   O  GCU B   3      14.716  47.155  21.0150  0.00  0.00     0.000 OA
ENDBRANCH 38 44
BRANCH 34 47
ATOM     47  O3  NAG B   4      13.309  45.617  15.8180  0.00  0.00     0.000 O
BRANCH 47 50
ATOM     48  C1  NAG B   4      13.961  46.331  12.2370  0.00  0.00     0.000 C
ATOM     49  C2  NAG B   4      13.330  46.487  13.6170  0.00  0.00     0.000 C
ATOM     50  C3  NAG B   4      14.164  45.809  14.6910  0.00  0.00     0.000 C
ATOM     51  C4  NAG B   4      14.747  44.459  14.2590  0.00  0.00     0.000 C
ATOM     52  C5  NAG B   4      15.647  44.611  13.0430  0.00  0.00     0.000 C
ATOM     53  O5  NAG B   4      15.127  45.506  12.0350  0.00  0.00     0.000 O
BRANCH 49 56
ATOM     54   N  NAG B   4      13.765  47.881  13.8160  0.00  0.00     0.000 N
ATOM     56  HD  NAG B   4      14.581  48.168  13.7660  0.00  0.00     0.000 HD
ATOM     56   C  NAG B   4      13.629  50.250  14.3270  0.00  0.00     0.000 C
ATOM     57   O  NAG B   4      11.858  48.755  14.6890  0.00  0.00     0.000 OA
ATOM     58   C  NAG B   4      13.008  48.886  14.2990  0.00  0.00     0.000 C
ENDBRANCH 49 56
ATOM     59   O  NAG B   4      17.033  43.239  11.5300  0.00  0.00     0.000 O
ATOM     61  HD  NAG B   4      16.269  43.609  11.7040  0.00  0.00     0.000 HD
ATOM     61   O  NAG B   4      17.033  43.239  11.5300  0.00  0.00     0.000 O
ATOM     63  HD  NAG B   4      16.269  43.609  11.7040  0.00  0.00     0.000 HD
ENDBRANCH 47 50
ENDBRANCH 34 47
ENDBRANCH 33 37
ENDBRANCH 17 33
ENDBRANCH 16 19
ENDBRANCH 1 16
TORSDOF 10
ENDMDL
MODEL 46
REMARK VINA RESULT:      -2.7     24.397     28.156
ROOT
ATOM      1  C1  GCU B   1      23.026  23.277  37.6040  0.00  0.00     0.000 C
ATOM      2  C2  GCU B   1      24.180  23.019  38.5600  0.00  0.00     0.000 C
ATOM      3  C3  GCU B   1      24.893  24.319  38.8960  0.00  0.00     0.000 C
ATOM      4  C4  GCU B   1      25.261  25.062  37.6210  0.00  0.00     0.000 C
ATOM      5  C5  GCU B   1      24.046  25.216  36.7040  0.00  0.00     0.000 C
ATOM      6  O5  GCU B   1      23.511  23.918  36.4130  0.00  0.00     0.000 O
ATOM      7   O  GCU B   1      23.644  22.419  39.7350  0.00  0.00     0.000 O
ATOM      9  HD  GCU B   1      23.916  21.684  40.1030  0.00  0.00     0.000 HD
ATOM      9   O  GCU B   1      26.072  24.064  39.6640  0.00  0.00     0.000 O
ATOM     11  HD  GCU B   1      26.344  23.329  40.0330  0.00  0.00     0.000 HD
ATOM     11   O  GCU B   1      25.771  26.350  37.9680  0.00  0.00     0.000 O
ATOM     13  HD  GCU B   1      26.043  25.615  38.3360  0.00  0.00     0.000 HD
ENDROOT
BRANCH 5 13
ATOM     13   C  GCU B   1      24.438  25.968  35.4550  0.00  0.00     0.000 C
ATOM     14   O  GCU B   1      24.457  27.216  35.4490  0.00  0.00     0.000 OA
ATOM     15   O  GCU B   1      24.761  25.294  34.4570  0.00  0.00     0.000 OA
ENDBRANCH 5 13
BRANCH 1 16
ATOM     16  O3  NAG B   2      22.482  22.422  36.7350  0.00  0.00     0.000 O
BRANCH 16 19
ATOM     17  C1  NAG B   2      18.873  21.385  36.3880  0.00  0.00     0.000 C
ATOM     18  C2  NAG B   2      20.191  21.666  37.0970  0.00  0.00     0.000 C
ATOM     19  C3  NAG B   2      21.182  22.318  36.1350  0.00  0.00     0.000 C
ATOM     20  C4  NAG B   2      21.312  21.485  34.8600  0.00  0.00     0.000 C
ATOM     21  C5  NAG B   2      19.939  21.273  34.2400  0.00  0.00     0.000 C
ATOM     22  O5  NAG B   2      19.092  20.612  35.1970  0.00  0.00     0.000 O
ATOM     23   O  NAG B   2      22.188  22.172  33.9590  0.00  0.00     0.000 O
ATOM     25  HD  NAG B   2      22.474  21.428  34.2980  0.00  0.00     0.000 HD
ATOM     25   C  NAG B   2      19.993  20.459  32.9490  0.00  0.00     0.000 C
ATOM     26   O  NAG B   2      20.259  19.071  33.2070  0.00  0.00     0.000 O
ATOM     28  HD  NAG B   2      20.545  18.327  33.5460  0.00  0.00     0.000 HD
BRANCH 18 30
ATOM     28   N  NAG B   2      19.618  22.286  38.2770  0.00  0.00     0.000 N
ATOM     30  HD  NAG B   2      20.294  21.846  38.5930  0.00  0.00     0.000 HD
ATOM     30   C  NAG B   2      20.037  22.043  39.5250  0.00  0.00     0.000 C
ATOM     31   C  NAG B   2      19.312  22.729  40.6490  0.00  0.00     0.000 C
ATOM     32   O  NAG B   2      20.966  21.295  39.7550  0.00  0.00     0.000 OA
ENDBRANCH 18 30
BRANCH 17 33
ATOM     33  O4  GCU B   3      17.997  20.740  37.3350  0.00  0.00     0.000 O
BRANCH 33 37
ATOM     34  C1  GCU B   3      13.847  20.411  37.3860  0.00  0.00     0.000 C
ATOM     35  C2  GCU B   3      14.637  19.318  36.6650  0.00  0.00     0.000 C
ATOM     36  C3  GCU B   3      16.085  19.365  37.1050  0.00  0.00     0.000 C
ATOM     37  C4  GCU B   3      16.643  20.763  36.8800  0.00  0.00     0.000 C
ATOM     38  C5  GCU B   3      15.793  21.784  37.6380  0.00  0.00     0.000 C
ATOM     39  O5  GCU B   3      14.444  21.693  37.1690  0.00  0.00     0.000 O
ATOM     40   O  GCU B   3      14.065  18.047  36.9820  0.00  0.00     0.000 O
ATOM     42  HD  GCU B   3      14.272  17.252  37.2560  0.00  0.00     0.000 HD
ATOM     42   O  GCU B   3      16.874  18.396  36.3920  0.00  0.00     0.000 O
ATOM     44  HD  GCU B   3      17.082  17.601  36.6670  0.00  0.00     0.000 HD
BRANCH 38 44
ATOM     44   C  GCU B   3      16.273  23.201  37.4410  0.00  0.00     0.000 C
ATOM     45   O  GCU B   3      15.970  23.789  36.3920  0.00  0.00     0.000 OA
ATOM     46   O  GCU B   3      16.955  23.751  38.3260  0.00  0.00     0.000 OA
ENDBRANCH 38 44
BRANCH 34 47
ATOM     47  O3  NAG B   4      12.640  20.494  36.8430  0.00  0.00     0.000 O
BRANCH 47 50
ATOM     48  C1  NAG B   4      10.118  18.795  38.9660  0.00  0.00     0.000 C
ATOM     49  C2  NAG B   4      11.329  19.658  38.6280  0.00  0.00     0.000 C
ATOM     50  C3  NAG B   4      11.309  20.101  37.1740  0.00  0.00     0.000 C
ATOM     51  C4  NAG B   4      10.843  19.011  36.2020  0.00  0.00     0.000 C
ATOM     52  C5  NAG B   4       9.436  18.543  36.5330  0.00  0.00     0.000 C
ATOM     53  O5  NAG B   4       9.187  18.376  37.9460  0.00  0.00     0.000 O
BRANCH 49 56
ATOM     54   N  NAG B   4      10.799  20.858  39.3000  0.00  0.00     0.000 N
ATOM     56  HD  NAG B   4       9.996  21.171  39.2150  0.00  0.00     0.000 HD
ATOM     56   C  NAG B   4      10.760  22.859  40.6720  0.00  0.00     0.000 C
ATOM     57   O  NAG B   4      12.737  21.736  40.0980  0.00  0.00     0.000 OA
ATOM     58   C  NAG B   4      11.521  21.765  39.9870  0.00  0.00     0.000 C
ENDBRANCH 49 56
ATOM     59   O  NAG B   4       7.744  16.926  35.7460  0.00  0.00     0.000 O
ATOM     61  HD  NAG B   4       8.406  17.109  36.2740  0.00  0.00     0.000 HD
ATOM     61   O  NAG B   4       7.744  16.926  35.7460  0.00  0.00     0.000 O
ATOM     63  HD  NAG B   4       8.406  17.109  36.2740  0.00  0.00     0.000 HD
ENDBRANCH 47 50
ENDBRANCH 34 47
ENDBRANCH 33 37
ENDBRANCH 17 33
ENDBRANCH 16 19
ENDBRANCH 1 16
TORSDOF 10
ENDMDL
MODEL 47
REMARK VINA RESULT:      -2.7     10.522     19.167
ROOT
ATOM      1  C1  GCU B   1      21.090  55.531  14.0840  0.00  0.00     0.000 C
ATOM      2  C2  GCU B   1      22.377  55.885  13.3550  0.00  0.00     0.000 C
ATOM      3  C3  GCU B   1      23.483  56.200  14.3500  0.00  0.00     0.000 C
ATOM      4  C4  GCU B   1      23.004  57.233  15.3580  0.00  0.00     0.000 C
ATOM      5  C5  GCU B   1      21.675  56.812  15.9880  0.00  0.00     0.000 C
ATOM      6  O5  GCU B   1      20.706  56.611  14.9510  0.00  0.00     0.000 O
ATOM      7   O  GCU B   1      22.733  54.773  12.5400  0.00  0.00     0.000 O
ATOM      9  HD  GCU B   1      22.911  54.796  11.6930  0.00  0.00     0.000 HD
ATOM      9   O  GCU B   1      24.646  56.686  13.6740  0.00  0.00     0.000 O
ATOM     11  HD  GCU B   1      24.824  56.709  12.8270  0.00  0.00     0.000 HD
ATOM     11   O  GCU B   1      23.996  57.380  16.3750  0.00  0.00     0.000 O
ATOM     13  HD  GCU B   1      24.175  57.403  15.5280  0.00  0.00     0.000 HD
ENDROOT
BRANCH 5 13
ATOM     13   C  GCU B   1      21.232  57.848  16.9940  0.00  0.00     0.000 C
ATOM     14   O  GCU B   1      21.664  59.017  16.9270  0.00  0.00     0.000 OA
ATOM     15   O  GCU B   1      20.408  57.492  17.8590  0.00  0.00     0.000 OA
ENDBRANCH 5 13
BRANCH 1 16
ATOM     16  O3  NAG B   2      19.839  55.656  13.6340  0.00  0.00     0.000 O
BRANCH 16 19
ATOM     17  C1  NAG B   2      17.217  52.987  13.1590  0.00  0.00     0.000 C
ATOM     18  C2  NAG B   2      18.583  53.650  13.0410  0.00  0.00     0.000 C
ATOM     19  C3  NAG B   2      18.626  54.928  13.8770  0.00  0.00     0.000 C
ATOM     20  C4  NAG B   2      17.448  55.835  13.5220  0.00  0.00     0.000 C
ATOM     21  C5  NAG B   2      16.142  55.070  13.6800  0.00  0.00     0.000 C
ATOM     22  O5  NAG B   2      16.173  53.915  12.8220  0.00  0.00     0.000 O
ATOM     23   O  NAG B   2      17.485  56.980  14.3820  0.00  0.00     0.000 O
ATOM     25  HD  NAG B   2      17.648  57.111  13.5420  0.00  0.00     0.000 HD
ATOM     25   C  NAG B   2      14.916  55.921  13.3570  0.00  0.00     0.000 C
ATOM     26   O  NAG B   2      14.788  56.152  11.9450  0.00  0.00     0.000 O
ATOM     28  HD  NAG B   2      14.951  56.284  11.1050  0.00  0.00     0.000 HD
BRANCH 18 30
ATOM     28   N  NAG B   2      19.413  52.493  13.3200  0.00  0.00     0.000 N
ATOM     30  HD  NAG B   2      19.827  52.880  12.6660  0.00  0.00     0.000 HD
ATOM     30   C  NAG B   2      20.467  52.135  12.5770  0.00  0.00     0.000 C
ATOM     31   C  NAG B   2      21.202  50.883  12.9670  0.00  0.00     0.000 C
ATOM     32   O  NAG B   2      20.827  52.788  11.6180  0.00  0.00     0.000 OA
ENDBRANCH 18 30
BRANCH 17 33
ATOM     33  O4  GCU B   3      17.229  51.812  12.3230  0.00  0.00     0.000 O
BRANCH 33 37
ATOM     34  C1  GCU B   3      14.983  48.316  12.5800  0.00  0.00     0.000 C
ATOM     35  C2  GCU B   3      14.460  49.431  11.6730  0.00  0.00     0.000 C
ATOM     36  C3  GCU B   3      15.577  50.408  11.3740  0.00  0.00     0.000 C
ATOM     37  C4  GCU B   3      16.173  50.918  12.6780  0.00  0.00     0.000 C
ATOM     38  C5  GCU B   3      16.669  49.737  13.5150  0.00  0.00     0.000 C
ATOM     39  O5  GCU B   3      15.566  48.861  13.7670  0.00  0.00     0.000 O
ATOM     40   O  GCU B   3      13.972  48.852  10.4610  0.00  0.00     0.000 O
ATOM     42  HD  GCU B   3      14.022  48.924   9.5990  0.00  0.00     0.000 HD
ATOM     42   O  GCU B   3      15.102  51.511  10.5810  0.00  0.00     0.000 O
ATOM     44  HD  GCU B   3      15.152  51.582   9.7200  0.00  0.00     0.000 HD
BRANCH 38 44
ATOM     44   C  GCU B   3      17.252  50.166  14.8380  0.00  0.00     0.000 C
ATOM     45   O  GCU B   3      18.482  50.118  14.9880  0.00  0.00     0.000 OA
ATOM     46   O  GCU B   3      16.496  50.559  15.7470  0.00  0.00     0.000 OA
ENDBRANCH 38 44
BRANCH 34 47
ATOM     47  O3  NAG B   4      13.956  47.590  12.9990  0.00  0.00     0.000 O
BRANCH 47 50
ATOM     48  C1  NAG B   4      13.796  45.081  15.7260  0.00  0.00     0.000 C
ATOM     49  C2  NAG B   4      13.573  46.413  15.0160  0.00  0.00     0.000 C
ATOM     50  C3  NAG B   4      13.737  46.277  13.5110  0.00  0.00     0.000 C
ATOM     51  C4  NAG B   4      14.899  45.367  13.0970  0.00  0.00     0.000 C
ATOM     52  C5  NAG B   4      14.720  43.960  13.6430  0.00  0.00     0.000 C
ATOM     53  O5  NAG B   4      14.245  43.914  15.0070  0.00  0.00     0.000 O
BRANCH 49 56
ATOM     54   N  NAG B   4      12.111  46.354  15.1950  0.00  0.00     0.000 N
ATOM     56  HD  NAG B   4      11.622  45.642  15.1280  0.00  0.00     0.000 HD
ATOM     56   C  NAG B   4       9.839  47.119  15.5700  0.00  0.00     0.000 C
ATOM     57   O  NAG B   4      11.637  48.576  15.1920  0.00  0.00     0.000 OA
ATOM     58   C  NAG B   4      11.282  47.411  15.2940  0.00  0.00     0.000 C
ENDBRANCH 49 56
ATOM     59   O  NAG B   4      15.868  41.775  13.6600  0.00  0.00     0.000 O
ATOM     61  HD  NAG B   4      15.724  42.540  14.0400  0.00  0.00     0.000 HD
ATOM     61   O  NAG B   4      15.868  41.775  13.6600  0.00  0.00     0.000 O
ATOM     63  HD  NAG B   4      15.724  42.540  14.0400  0.00  0.00     0.000 HD
ENDBRANCH 47 50
ENDBRANCH 34 47
ENDBRANCH 33 37
ENDBRANCH 17 33
ENDBRANCH 16 19
ENDBRANCH 1 16
TORSDOF 10
ENDMDL
MODEL 48
REMARK VINA RESULT:      -2.6     29.518     32.620
ROOT
ATOM      1  C1  GCU B   1      28.165  15.572  39.9890  0.00  0.00     0.000 C
ATOM      2  C2  GCU B   1      28.814  15.911  41.3220  0.00  0.00     0.000 C
ATOM      3  C3  GCU B   1      30.311  16.113  41.1490  0.00  0.00     0.000 C
ATOM      4  C4  GCU B   1      30.920  14.928  40.4140  0.00  0.00     0.000 C
ATOM      5  C5  GCU B   1      30.159  14.633  39.1210  0.00  0.00     0.000 C
ATOM      6  O5  GCU B   1      28.779  14.399  39.4310  0.00  0.00     0.000 O
ATOM      7   O  GCU B   1      28.198  17.097  41.8130  0.00  0.00     0.000 O
ATOM      9  HD  GCU B   1      27.849  17.203  42.5990  0.00  0.00     0.000 HD
ATOM      9   O  GCU B   1      30.949  16.274  42.4190  0.00  0.00     0.000 O
ATOM     11  HD  GCU B   1      30.599  16.381  43.2040  0.00  0.00     0.000 HD
ATOM     11   O  GCU B   1      32.285  15.223  40.1160  0.00  0.00     0.000 O
ATOM     13  HD  GCU B   1      31.936  15.329  40.9010  0.00  0.00     0.000 HD
ENDROOT
BRANCH 5 13
ATOM     13   C  GCU B   1      30.793  13.463  38.4070  0.00  0.00     0.000 C
ATOM     14   O  GCU B   1      30.469  12.294  38.7000  0.00  0.00     0.000 OA
ATOM     15   O  GCU B   1      31.619  13.718  37.5090  0.00  0.00     0.000 OA
ENDBRANCH 5 13
BRANCH 1 16
ATOM     16  O3  NAG B   2      27.037  14.888  39.7840  0.00  0.00     0.000 O
BRANCH 16 19
ATOM     17  C1  NAG B   2      24.088  15.893  37.6580  0.00  0.00     0.000 C
ATOM     18  C2  NAG B   2      25.194  16.057  38.6920  0.00  0.00     0.000 C
ATOM     19  C3  NAG B   2      26.103  14.829  38.6940  0.00  0.00     0.000 C
ATOM     20  C4  NAG B   2      25.275  13.554  38.8470  0.00  0.00     0.000 C
ATOM     21  C5  NAG B   2      24.210  13.497  37.7620  0.00  0.00     0.000 C
ATOM     22  O5  NAG B   2      23.374  14.664  37.8690  0.00  0.00     0.000 O
ATOM     23   O  NAG B   2      26.159  12.430  38.7660  0.00  0.00     0.000 O
ATOM     25  HD  NAG B   2      25.788  12.585  39.5320  0.00  0.00     0.000 HD
ATOM     25   C  NAG B   2      23.351  12.237  37.8420  0.00  0.00     0.000 C
ATOM     26   O  NAG B   2      22.437  12.288  38.9490  0.00  0.00     0.000 O
ATOM     28  HD  NAG B   2      22.067  12.444  39.7160  0.00  0.00     0.000 HD
BRANCH 18 30
ATOM     28   N  NAG B   2      25.561  17.408  38.3130  0.00  0.00     0.000 N
ATOM     30  HD  NAG B   2      25.678  17.405  39.1710  0.00  0.00     0.000 HD
ATOM     30   C  NAG B   2      25.855  18.375  39.1900  0.00  0.00     0.000 C
ATOM     31   C  NAG B   2      26.173  19.739  38.6430  0.00  0.00     0.000 C
ATOM     32   O  NAG B   2      25.866  18.173  40.3880  0.00  0.00     0.000 OA
ENDBRANCH 18 30
BRANCH 17 33
ATOM     33  O4  GCU B   3      23.247  17.062  37.7300  0.00  0.00     0.000 O
BRANCH 33 37
ATOM     34  C1  GCU B   3      20.445  18.561  35.0410  0.00  0.00     0.000 C
ATOM     35  C2  GCU B   3      19.974  17.505  36.0420  0.00  0.00     0.000 C
ATOM     36  C3  GCU B   3      20.971  17.401  37.1760  0.00  0.00     0.000 C
ATOM     37  C4  GCU B   3      22.359  17.125  36.6140  0.00  0.00     0.000 C
ATOM     38  C5  GCU B   3      22.743  18.231  35.6280  0.00  0.00     0.000 C
ATOM     39  O5  GCU B   3      21.767  18.269  34.5820  0.00  0.00     0.000 O
ATOM     40   O  GCU B   3      18.691  17.883  36.5450  0.00  0.00     0.000 O
ATOM     42  HD  GCU B   3      18.248  17.988  37.2820  0.00  0.00     0.000 HD
ATOM     42   O  GCU B   3      20.597  16.364  38.1010  0.00  0.00     0.000 O
ATOM     44  HD  GCU B   3      20.155  16.469  38.8380  0.00  0.00     0.000 HD
BRANCH 38 44
ATOM     44   C  GCU B   3      24.101  18.011  35.0080  0.00  0.00     0.000 C
ATOM     45   O  GCU B   3      24.197  17.224  34.0550  0.00  0.00     0.000 OA
ATOM     46   O  GCU B   3      25.091  18.620  35.4570  0.00  0.00     0.000 OA
ENDBRANCH 38 44
BRANCH 34 47
ATOM     47  O3  NAG B   4      19.680  18.496  33.9610  0.00  0.00     0.000 O
BRANCH 47 50
ATOM     48  C1  NAG B   4      19.245  21.483  31.8060  0.00  0.00     0.000 C
ATOM     49  C2  NAG B   4      19.886  20.204  32.3350  0.00  0.00     0.000 C
ATOM     50  C3  NAG B   4      18.905  19.392  33.1650  0.00  0.00     0.000 C
ATOM     51  C4  NAG B   4      18.014  20.243  34.0770  0.00  0.00     0.000 C
ATOM     52  C5  NAG B   4      17.187  21.232  33.2720  0.00  0.00     0.000 C
ATOM     53  O5  NAG B   4      17.915  21.876  32.2030  0.00  0.00     0.000 O
BRANCH 49 56
ATOM     54   N  NAG B   4      19.817  19.508  31.0380  0.00  0.00     0.000 N
ATOM     56  HD  NAG B   4      19.128  19.485  30.5130  0.00  0.00     0.000 HD
ATOM     56   C  NAG B   4      20.503  18.122  29.1680  0.00  0.00     0.000 C
ATOM     57   O  NAG B   4      21.720  18.272  31.1670  0.00  0.00     0.000 OA
ATOM     58   C  NAG B   4      20.728  18.640  30.5560  0.00  0.00     0.000 C
ENDBRANCH 49 56
ATOM     59   O  NAG B   4      15.520  23.021  33.6100  0.00  0.00     0.000 O
ATOM     61  HD  NAG B   4      16.349  22.789  33.5180  0.00  0.00     0.000 HD
ATOM     61   O  NAG B   4      15.520  23.021  33.6100  0.00  0.00     0.000 O
ATOM     63  HD  NAG B   4      16.349  22.789  33.5180  0.00  0.00     0.000 HD
ENDBRANCH 47 50
ENDBRANCH 34 47
ENDBRANCH 33 37
ENDBRANCH 17 33
ENDBRANCH 16 19
ENDBRANCH 1 16
TORSDOF 10
ENDMDL
MODEL 49
REMARK VINA RESULT:      -2.6     13.750     17.318
ROOT
ATOM      1  C1  GCU B   1      23.440  29.850  25.3230  0.00  0.00     0.000 C
ATOM      2  C2  GCU B   1      23.942  29.795  26.7580  0.00  0.00     0.000 C
ATOM      3  C3  GCU B   1      25.457  29.918  26.7960  0.00  0.00     0.000 C
ATOM      4  C4  GCU B   1      26.090  28.911  25.8490  0.00  0.00     0.000 C
ATOM      5  C5  GCU B   1      25.474  29.007  24.4520  0.00  0.00     0.000 C
ATOM      6  O5  GCU B   1      24.057  28.810  24.5480  0.00  0.00     0.000 O
ATOM      7   O  GCU B   1      23.330  30.865  27.4720  0.00  0.00     0.000 O
ATOM      9  HD  GCU B   1      22.896  30.799  28.2180  0.00  0.00     0.000 HD
ATOM      9   O  GCU B   1      25.946  29.707  28.1230  0.00  0.00     0.000 O
ATOM     11  HD  GCU B   1      25.511  29.641  28.8690  0.00  0.00     0.000 HD
ATOM     11   O  GCU B   1      27.494  29.164  25.7770  0.00  0.00     0.000 O
ATOM     13  HD  GCU B   1      27.059  29.097  26.5230  0.00  0.00     0.000 HD
ENDROOT
BRANCH 5 13
ATOM     13   C  GCU B   1      26.131  28.007  23.5310  0.00  0.00     0.000 C
ATOM     14   O  GCU B   1      26.723  27.013  23.9980  0.00  0.00     0.000 OA
ATOM     15   O  GCU B   1      26.030  28.204  22.3040  0.00  0.00     0.000 OA
ENDBRANCH 5 13
BRANCH 1 16
ATOM     16  O3  NAG B   2      22.312  29.329  24.8350  0.00  0.00     0.000 O
BRANCH 16 19
ATOM     17  C1  NAG B   2      20.675  29.793  21.4690  0.00  0.00     0.000 C
ATOM     18  C2  NAG B   2      21.308  30.206  22.7910  0.00  0.00     0.000 C
ATOM     19  C3  NAG B   2      21.876  28.984  23.5110  0.00  0.00     0.000 C
ATOM     20  C4  NAG B   2      20.812  27.894  23.6300  0.00  0.00     0.000 C
ATOM     21  C5  NAG B   2      20.257  27.562  22.2520  0.00  0.00     0.000 C
ATOM     22  O5  NAG B   2      19.701  28.757  21.6740  0.00  0.00     0.000 O
ATOM     23   O  NAG B   2      21.410  26.744  24.2390  0.00  0.00     0.000 O
ATOM     25  HD  NAG B   2      20.813  27.170  24.7000  0.00  0.00     0.000 HD
ATOM     25   C  NAG B   2      19.195  26.465  22.2910  0.00  0.00     0.000 C
ATOM     26   O  NAG B   2      17.958  26.943  22.8430  0.00  0.00     0.000 O
ATOM     28  HD  NAG B   2      17.362  27.368  23.3040  0.00  0.00     0.000 HD
BRANCH 18 30
ATOM     28   N  NAG B   2      21.160  31.644  22.9140  0.00  0.00     0.000 N
ATOM     30  HD  NAG B   2      22.002  31.546  22.7360  0.00  0.00     0.000 HD
ATOM     30   C  NAG B   2      22.185  32.504  22.8830  0.00  0.00     0.000 C
ATOM     31   C  NAG B   2      21.875  33.963  23.0690  0.00  0.00     0.000 C
ATOM     32   O  NAG B   2      23.329  32.133  22.7140  0.00  0.00     0.000 OA
ENDBRANCH 18 30
BRANCH 17 33
ATOM     33  O4  GCU B   3      20.128  30.979  20.8580  0.00  0.00     0.000 O
BRANCH 33 37
ATOM     34  C1  GCU B   3      19.460  31.915  16.8570  0.00  0.00     0.000 C
ATOM     35  C2  GCU B   3      18.376  31.126  17.5920  0.00  0.00     0.000 C
ATOM     36  C3  GCU B   3      18.583  31.251  19.0860  0.00  0.00     0.000 C
ATOM     37  C4  GCU B   3      19.996  30.815  19.4450  0.00  0.00     0.000 C
ATOM     38  C5  GCU B   3      21.008  31.658  18.6670  0.00  0.00     0.000 C
ATOM     39  O5  GCU B   3      20.762  31.488  17.2670  0.00  0.00     0.000 O
ATOM     40   O  GCU B   3      17.096  31.645  17.2250  0.00  0.00     0.000 O
ATOM     42  HD  GCU B   3      16.349  31.927  17.5620  0.00  0.00     0.000 HD
ATOM     42   O  GCU B   3      17.622  30.461  19.8100  0.00  0.00     0.000 O
ATOM     44  HD  GCU B   3      16.875  30.743  20.1470  0.00  0.00     0.000 HD
BRANCH 38 44
ATOM     44   C  GCU B   3      22.435  31.264  18.9530  0.00  0.00     0.000 C
ATOM     45   O  GCU B   3      22.809  30.122  18.6460  0.00  0.00     0.000 OA
ATOM     46   O  GCU B   3      23.208  32.085  19.4830  0.00  0.00     0.000 OA
ENDBRANCH 38 44
BRANCH 34 47
ATOM     47  O3  NAG B   4      19.392  31.631  15.5640  0.00  0.00     0.000 O
BRANCH 47 50
ATOM     48  C1  NAG B   4      22.369  29.751  14.3970  0.00  0.00     0.000 C
ATOM     49  C2  NAG B   4      21.118  30.048  15.2170  0.00  0.00     0.000 C
ATOM     50  C3  NAG B   4      20.256  31.110  14.5550  0.00  0.00     0.000 C
ATOM     51  C4  NAG B   4      21.059  32.257  13.9310  0.00  0.00     0.000 C
ATOM     52  C5  NAG B   4      22.014  31.745  12.8650  0.00  0.00     0.000 C
ATOM     53  O5  NAG B   4      22.698  30.524  13.2230  0.00  0.00     0.000 O
BRANCH 49 56
ATOM     54   N  NAG B   4      20.298  28.895  14.8090  0.00  0.00     0.000 N
ATOM     56  HD  NAG B   4      19.933  28.783  14.0310  0.00  0.00     0.000 HD
ATOM     56   C  NAG B   4      19.086  26.798  14.9790  0.00  0.00     0.000 C
ATOM     57   O  NAG B   4      19.963  27.928  16.8390  0.00  0.00     0.000 OA
ATOM     58   C  NAG B   4      19.819  27.934  15.6250  0.00  0.00     0.000 C
ENDBRANCH 49 56
ATOM     59   O  NAG B   4      23.722  32.584  11.2920  0.00  0.00     0.000 O
ATOM     61  HD  NAG B   4      23.528  32.252  12.0680  0.00  0.00     0.000 HD
ATOM     61   O  NAG B   4      23.722  32.584  11.2920  0.00  0.00     0.000 O
ATOM     63  HD  NAG B   4      23.528  32.252  12.0680  0.00  0.00     0.000 HD
ENDBRANCH 47 50
ENDBRANCH 34 47
ENDBRANCH 33 37
ENDBRANCH 17 33
ENDBRANCH 16 19
ENDBRANCH 1 16
TORSDOF 10
ENDMDL
MODEL 50
REMARK VINA RESULT:      -2.5     32.161     35.007
ROOT
ATOM      1  C1  GCU B   1      28.664  11.527  39.9320  0.00  0.00     0.000 C
ATOM      2  C2  GCU B   1      29.388  11.754  41.2500  0.00  0.00     0.000 C
ATOM      3  C3  GCU B   1      30.875  11.474  41.0950  0.00  0.00     0.000 C
ATOM      4  C4  GCU B   1      31.089  10.106  40.4650  0.00  0.00     0.000 C
ATOM      5  C5  GCU B   1      30.271   9.958  39.1810  0.00  0.00     0.000 C
ATOM      6  O5  GCU B   1      28.886  10.182  39.4780  0.00  0.00     0.000 O
ATOM      7   O  GCU B   1      29.167  13.107  41.6380  0.00  0.00     0.000 O
ATOM      9  HD  GCU B   1      28.869  13.376  42.4050  0.00  0.00     0.000 HD
ATOM      9   O  GCU B   1      31.534  11.531  42.3630  0.00  0.00     0.000 O
ATOM     11  HD  GCU B   1      31.235  11.801  43.1300  0.00  0.00     0.000 HD
ATOM     11   O  GCU B   1      32.478   9.944  40.1760  0.00  0.00     0.000 O
ATOM     13  HD  GCU B   1      32.180  10.213  40.9430  0.00  0.00     0.000 HD
ENDROOT
BRANCH 5 13
ATOM     13   C  GCU B   1      30.514   8.598  38.5720  0.00  0.00     0.000 C
ATOM     14   O  GCU B   1      31.085   7.704  39.2300  0.00  0.00     0.000 OA
ATOM     15   O  GCU B   1      30.099   8.407  37.4120  0.00  0.00     0.000 OA
ENDBRANCH 5 13
BRANCH 1 16
ATOM     16  O3  NAG B   2      27.380  11.208  39.7550  0.00  0.00     0.000 O
BRANCH 16 19
ATOM     17  C1  NAG B   2      24.780  13.006  37.6980  0.00  0.00     0.000 C
ATOM     18  C2  NAG B   2      25.903  12.848  38.7140  0.00  0.00     0.000 C
ATOM     19  C3  NAG B   2      26.449  11.421  38.6820  0.00  0.00     0.000 C
ATOM     20  C4  NAG B   2      25.311  10.412  38.8320  0.00  0.00     0.000 C
ATOM     21  C5  NAG B   2      24.255  10.664  37.7660  0.00  0.00     0.000 C
ATOM     22  O5  NAG B   2      23.765  12.010  37.9040  0.00  0.00     0.000 O
ATOM     23   O  NAG B   2      25.859   9.094  38.7190  0.00  0.00     0.000 O
ATOM     25  HD  NAG B   2      25.554   9.330  39.4950  0.00  0.00     0.000 HD
ATOM     25   C  NAG B   2      23.090   9.680  37.8450  0.00  0.00     0.000 C
ATOM     26   O  NAG B   2      22.239   9.953  38.9690  0.00  0.00     0.000 O
ATOM     28  HD  NAG B   2      21.935  10.189  39.7450  0.00  0.00     0.000 HD
BRANCH 18 30
ATOM     28   N  NAG B   2      26.643  14.040  38.3460  0.00  0.00     0.000 N
ATOM     30  HD  NAG B   2      26.730  14.012  39.2070  0.00  0.00     0.000 HD
ATOM     30   C  NAG B   2      27.170  14.894  39.2310  0.00  0.00     0.000 C
ATOM     31   C  NAG B   2      27.872  16.110  38.6940  0.00  0.00     0.000 C
ATOM     32   O  NAG B   2      27.089  14.707  40.4290  0.00  0.00     0.000 OA
ENDBRANCH 18 30
BRANCH 17 33
ATOM     33  O4  GCU B   3      24.285  14.356  37.8020  0.00  0.00     0.000 O
BRANCH 33 37
ATOM     34  C1  GCU B   3      22.003  16.621  35.1570  0.00  0.00     0.000 C
ATOM     35  C2  GCU B   3      21.260  15.714  36.1380  0.00  0.00     0.000 C
ATOM     36  C3  GCU B   3      22.190  15.317  37.2650  0.00  0.00     0.000 C
ATOM     37  C4  GCU B   3      23.449  14.684  36.6910  0.00  0.00     0.000 C
ATOM     38  C5  GCU B   3      24.123  15.662  35.7260  0.00  0.00     0.000 C
ATOM     39  O5  GCU B   3      23.196  15.988  34.6860  0.00  0.00     0.000 O
ATOM     40   O  GCU B   3      20.129  16.418  36.6550  0.00  0.00     0.000 O
ATOM     42  HD  GCU B   3      19.731  16.624  37.3960  0.00  0.00     0.000 HD
ATOM     42   O  GCU B   3      21.545  14.403  38.1710  0.00  0.00     0.000 O
ATOM     44  HD  GCU B   3      21.147  14.610  38.9120  0.00  0.00     0.000 HD
BRANCH 38 44
ATOM     44   C  GCU B   3      25.369  15.092  35.0960  0.00  0.00     0.000 C
ATOM     45   O  GCU B   3      25.246  14.306  34.1440  0.00  0.00     0.000 OA
ATOM     46   O  GCU B   3      26.488  15.419  35.5340  0.00  0.00     0.000 OA
ENDBRANCH 38 44
BRANCH 34 47
ATOM     47  O3  NAG B   4      21.250  16.791  34.0790  0.00  0.00     0.000 O
BRANCH 47 50
ATOM     48  C1  NAG B   4      19.037  19.380  32.6110  0.00  0.00     0.000 C
ATOM     49  C2  NAG B   4      19.728  18.563  33.6980  0.00  0.00     0.000 C
ATOM     50  C3  NAG B   4      20.952  17.840  33.1590  0.00  0.00     0.000 C
ATOM     51  C4  NAG B   4      20.753  17.248  31.7590  0.00  0.00     0.000 C
ATOM     52  C5  NAG B   4      20.407  18.329  30.7480  0.00  0.00     0.000 C
ATOM     53  O5  NAG B   4      19.466  19.311  31.2340  0.00  0.00     0.000 O
BRANCH 49 56
ATOM     54   N  NAG B   4      20.406  19.700  34.3460  0.00  0.00     0.000 N
ATOM     56  HD  NAG B   4      20.962  20.242  33.9630  0.00  0.00     0.000 HD
ATOM     56   C  NAG B   4      21.100  21.228  36.0990  0.00  0.00     0.000 C
ATOM     57   O  NAG B   4      19.924  19.242  36.5190  0.00  0.00     0.000 OA
ATOM     58   C  NAG B   4      20.428  19.960  35.6680  0.00  0.00     0.000 C
ENDBRANCH 49 56
ATOM     59   O  NAG B   4      19.875  18.578  28.3500  0.00  0.00     0.000 O
ATOM     61  HD  NAG B   4      19.598  18.471  29.1640  0.00  0.00     0.000 HD
ATOM     61   O  NAG B   4      19.875  18.578  28.3500  0.00  0.00     0.000 O
ATOM     63  HD  NAG B   4      19.598  18.471  29.1640  0.00  0.00     0.000 HD
ENDBRANCH 47 50
ENDBRANCH 34 47
ENDBRANCH 33 37
ENDBRANCH 17 33
ENDBRANCH 16 19
ENDBRANCH 1 16
TORSDOF 10
ENDMDL
MODEL 51
REMARK VINA RESULT:      -2.5     24.181     27.036
ROOT
ATOM      1  C1  GCU B   1      22.446  25.881  39.0040  0.00  0.00     0.000 C
ATOM      2  C2  GCU B   1      23.132  27.222  38.7920  0.00  0.00     0.000 C
ATOM      3  C3  GCU B   1      24.228  27.427  39.8260  0.00  0.00     0.000 C
ATOM      4  C4  GCU B   1      23.681  27.194  41.2250  0.00  0.00     0.000 C
ATOM      5  C5  GCU B   1      22.959  25.848  41.3160  0.00  0.00     0.000 C
ATOM      6  O5  GCU B   1      21.913  25.810  40.3360  0.00  0.00     0.000 O
ATOM      7   O  GCU B   1      23.673  27.227  37.4750  0.00  0.00     0.000 O
ATOM      9  HD  GCU B   1      23.545  27.836  36.8720  0.00  0.00     0.000 HD
ATOM      9   O  GCU B   1      24.768  28.748  39.7320  0.00  0.00     0.000 O
ATOM     11  HD  GCU B   1      24.640  29.357  39.1290  0.00  0.00     0.000 HD
ATOM     11   O  GCU B   1      24.765  27.224  42.1550  0.00  0.00     0.000 O
ATOM     13  HD  GCU B   1      24.637  27.833  41.5530  0.00  0.00     0.000 HD
ENDROOT
BRANCH 5 13
ATOM     13   C  GCU B   1      22.440  25.637  42.7180  0.00  0.00     0.000 C
ATOM     14   O  GCU B   1      21.262  25.933  43.0060  0.00  0.00     0.000 OA
ATOM     15   O  GCU B   1      23.221  25.137  43.5500  0.00  0.00     0.000 OA
ENDBRANCH 5 13
BRANCH 1 16
ATOM     16  O3  NAG B   2      21.203  25.540  38.6570  0.00  0.00     0.000 O
BRANCH 16 19
ATOM     17  C1  NAG B   2      19.910  23.031  36.1540  0.00  0.00     0.000 C
ATOM     18  C2  NAG B   2      20.708  24.226  36.6610  0.00  0.00     0.000 C
ATOM     19  C3  NAG B   2      20.610  24.321  38.1830  0.00  0.00     0.000 C
ATOM     20  C4  NAG B   2      19.147  24.301  38.6240  0.00  0.00     0.000 C
ATOM     21  C5  NAG B   2      18.456  23.066  38.0640  0.00  0.00     0.000 C
ATOM     22  O5  NAG B   2      18.556  23.087  36.6290  0.00  0.00     0.000 O
ATOM     23   O  NAG B   2      19.107  24.313  40.0550  0.00  0.00     0.000 O
ATOM     25  HD  NAG B   2      18.820  25.020  39.6460  0.00  0.00     0.000 HD
ATOM     25   C  NAG B   2      16.989  22.970  38.4790  0.00  0.00     0.000 C
ATOM     26   O  NAG B   2      16.177  23.928  37.7820  0.00  0.00     0.000 O
ATOM     28  HD  NAG B   2      15.890  24.635  37.3730  0.00  0.00     0.000 HD
BRANCH 18 30
ATOM     28   N  NAG B   2      21.302  24.786  35.4620  0.00  0.00     0.000 N
ATOM     30  HD  NAG B   2      21.987  24.497  35.9060  0.00  0.00     0.000 HD
ATOM     30   C  NAG B   2      22.622  24.901  35.2670  0.00  0.00     0.000 C
ATOM     31   C  NAG B   2      23.084  25.545  33.9900  0.00  0.00     0.000 C
ATOM     32   O  NAG B   2      23.427  24.506  36.0860  0.00  0.00     0.000 OA
ENDBRANCH 18 30
BRANCH 17 33
ATOM     33  O4  GCU B   3      20.012  23.018  34.7160  0.00  0.00     0.000 O
BRANCH 33 37
ATOM     34  C1  GCU B   3      20.073  19.853  32.0120  0.00  0.00     0.000 C
ATOM     35  C2  GCU B   3      18.715  20.289  32.5640  0.00  0.00     0.000 C
ATOM     36  C3  GCU B   3      18.833  21.673  33.1660  0.00  0.00     0.000 C
ATOM     37  C4  GCU B   3      19.942  21.684  34.2080  0.00  0.00     0.000 C
ATOM     38  C5  GCU B   3      21.257  21.239  33.5660  0.00  0.00     0.000 C
ATOM     39  O5  GCU B   3      21.079  19.925  33.0260  0.00  0.00     0.000 O
ATOM     40   O  GCU B   3      17.762  20.292  31.5000  0.00  0.00     0.000 O
ATOM     42  HD  GCU B   3      17.153  20.783  31.1280  0.00  0.00     0.000 HD
ATOM     42   O  GCU B   3      17.590  22.086  33.7610  0.00  0.00     0.000 O
ATOM     44  HD  GCU B   3      16.981  22.577  33.3890  0.00  0.00     0.000 HD
BRANCH 38 44
ATOM     44   C  GCU B   3      22.401  21.201  34.5480  0.00  0.00     0.000 C
ATOM     45   O  GCU B   3      23.481  21.717  34.2220  0.00  0.00     0.000 OA
ATOM     46   O  GCU B   3      22.244  20.660  35.6590  0.00  0.00     0.000 OA
ENDBRANCH 38 44
BRANCH 34 47
ATOM     47  O3  NAG B   4      20.007  18.572  31.6780  0.00  0.00     0.000 O
BRANCH 47 50
ATOM     48  C1  NAG B   4      22.735  16.945  29.7630  0.00  0.00     0.000 C
ATOM     49  C2  NAG B   4      21.962  17.432  30.9840  0.00  0.00     0.000 C
ATOM     50  C3  NAG B   4      20.510  17.727  30.6450  0.00  0.00     0.000 C
ATOM     51  C4  NAG B   4      20.321  18.414  29.2870  0.00  0.00     0.000 C
ATOM     52  C5  NAG B   4      20.867  17.558  28.1560  0.00  0.00     0.000 C
ATOM     53  O5  NAG B   4      22.133  16.928  28.4520  0.00  0.00     0.000 O
BRANCH 49 56
ATOM     54   N  NAG B   4      21.878  16.087  31.5800  0.00  0.00     0.000 N
ATOM     56  HD  NAG B   4      21.706  15.355  31.1520  0.00  0.00     0.000 HD
ATOM     56   C  NAG B   4      21.863  14.356  33.2810  0.00  0.00     0.000 C
ATOM     57   O  NAG B   4      21.848  16.647  33.7830  0.00  0.00     0.000 OA
ATOM     58   C  NAG B   4      21.855  15.804  32.8980  0.00  0.00     0.000 C
ENDBRANCH 49 56
ATOM     59   O  NAG B   4      21.135  17.611  25.7020  0.00  0.00     0.000 O
ATOM     61  HD  NAG B   4      21.465  17.768  26.4880  0.00  0.00     0.000 HD
ATOM     61   O  NAG B   4      21.135  17.611  25.7020  0.00  0.00     0.000 O
ATOM     63  HD  NAG B   4      21.465  17.768  26.4880  0.00  0.00     0.000 HD
ENDBRANCH 47 50
ENDBRANCH 34 47
ENDBRANCH 33 37
ENDBRANCH 17 33
ENDBRANCH 16 19
ENDBRANCH 1 16
TORSDOF 10
ENDMDL
MODEL 52
REMARK VINA RESULT:      -2.5     14.111     19.035
ROOT
ATOM      1  C1  GCU B   1      26.704  29.686  27.6760  0.00  0.00     0.000 C
ATOM      2  C2  GCU B   1      26.903  29.429  29.1620  0.00  0.00     0.000 C
ATOM      3  C3  GCU B   1      28.114  30.192  29.6760  0.00  0.00     0.000 C
ATOM      4  C4  GCU B   1      29.325  29.908  28.8010  0.00  0.00     0.000 C
ATOM      5  C5  GCU B   1      29.002  30.138  27.3240  0.00  0.00     0.000 C
ATOM      6  O5  GCU B   1      27.888  29.315  26.9530  0.00  0.00     0.000 O
ATOM      7   O  GCU B   1      25.720  29.847  29.8350  0.00  0.00     0.000 O
ATOM      9  HD  GCU B   1      25.255  29.374  30.3920  0.00  0.00     0.000 HD
ATOM      9   O  GCU B   1      28.400  29.831  31.0300  0.00  0.00     0.000 O
ATOM     11  HD  GCU B   1      27.935  29.358  31.5860  0.00  0.00     0.000 HD
ATOM     11   O  GCU B   1      30.395  30.765  29.2010  0.00  0.00     0.000 O
ATOM     13  HD  GCU B   1      29.930  30.291  29.7580  0.00  0.00     0.000 HD
ENDROOT
BRANCH 5 13
ATOM     13   C  GCU B   1      30.225  29.861  26.4820  0.00  0.00     0.000 C
ATOM     14   O  GCU B   1      30.345  28.773  25.8820  0.00  0.00     0.000 OA
ATOM     15   O  GCU B   1      31.078  30.766  26.3940  0.00  0.00     0.000 OA
ENDBRANCH 5 13
BRANCH 1 16
ATOM     16  O3  NAG B   2      26.102  28.894  26.7870  0.00  0.00     0.000 O
BRANCH 16 19
ATOM     17  C1  NAG B   2      22.882  29.129  24.8370  0.00  0.00     0.000 C
ATOM     18  C2  NAG B   2      23.775  29.054  26.0680  0.00  0.00     0.000 C
ATOM     19  C3  NAG B   2      25.245  29.144  25.6620  0.00  0.00     0.000 C
ATOM     20  C4  NAG B   2      25.564  28.110  24.5820  0.00  0.00     0.000 C
ATOM     21  C5  NAG B   2      24.614  28.284  23.4060  0.00  0.00     0.000 C
ATOM     22  O5  NAG B   2      23.262  28.134  23.8730  0.00  0.00     0.000 O
ATOM     23   O  NAG B   2      26.927  28.284  24.1790  0.00  0.00     0.000 O
ATOM     25  HD  NAG B   2      26.731  27.558  24.6090  0.00  0.00     0.000 HD
ATOM     25   C  NAG B   2      24.885  27.291  22.2770  0.00  0.00     0.000 C
ATOM     26   O  NAG B   2      24.456  25.965  22.6240  0.00  0.00     0.000 O
ATOM     28  HD  NAG B   2      24.261  25.239  23.0530  0.00  0.00     0.000 HD
BRANCH 18 30
ATOM     28   N  NAG B   2      23.048  30.027  26.8610  0.00  0.00     0.000 N
ATOM     30  HD  NAG B   2      23.303  29.444  27.4490  0.00  0.00     0.000 HD
ATOM     30   C  NAG B   2      22.777  29.875  28.1640  0.00  0.00     0.000 C
ATOM     31   C  NAG B   2      21.973  30.951  28.8380  0.00  0.00     0.000 C
ATOM     32   O  NAG B   2      23.159  28.906  28.7890  0.00  0.00     0.000 OA
ENDBRANCH 18 30
BRANCH 17 33
ATOM     33  O4  GCU B   3      21.516  29.002  25.2820  0.00  0.00     0.000 O
BRANCH 33 37
ATOM     34  C1  GCU B   3      17.951  30.068  23.4140  0.00  0.00     0.000 C
ATOM     35  C2  GCU B   3      18.509  28.672  23.1340  0.00  0.00     0.000 C
ATOM     36  C3  GCU B   3      19.531  28.314  24.1920  0.00  0.00     0.000 C
ATOM     37  C4  GCU B   3      20.603  29.392  24.2540  0.00  0.00     0.000 C
ATOM     38  C5  GCU B   3      19.954  30.748  24.5390  0.00  0.00     0.000 C
ATOM     39  O5  GCU B   3      19.009  31.028  23.5010  0.00  0.00     0.000 O
ATOM     40   O  GCU B   3      17.433  27.732  23.1480  0.00  0.00     0.000 O
ATOM     42  HD  GCU B   3      17.193  26.971  23.4840  0.00  0.00     0.000 HD
ATOM     42   O  GCU B   3      20.131  27.034  23.9200  0.00  0.00     0.000 O
ATOM     44  HD  GCU B   3      19.891  26.273  24.2560  0.00  0.00     0.000 HD
BRANCH 38 44
ATOM     44   C  GCU B   3      20.956  31.874  24.5900  0.00  0.00     0.000 C
ATOM     45   O  GCU B   3      21.313  32.301  25.6980  0.00  0.00     0.000 OA
ATOM     46   O  GCU B   3      21.406  32.349  23.5300  0.00  0.00     0.000 OA
ENDBRANCH 38 44
BRANCH 34 47
ATOM     47  O3  NAG B   4      17.220  30.451  22.3770  0.00  0.00     0.000 O
BRANCH 47 50
ATOM     48  C1  NAG B   4      15.709  32.885  20.0210  0.00  0.00     0.000 C
ATOM     49  C2  NAG B   4      15.939  32.149  21.3370  0.00  0.00     0.000 C
ATOM     50  C3  NAG B   4      17.284  31.442  21.3520  0.00  0.00     0.000 C
ATOM     51  C4  NAG B   4      17.647  30.774  20.0210  0.00  0.00     0.000 C
ATOM     52  C5  NAG B   4      17.703  31.790  18.8920  0.00  0.00     0.000 C
ATOM     53  O5  NAG B   4      16.635  32.763  18.9210  0.00  0.00     0.000 O
BRANCH 49 56
ATOM     54   N  NAG B   4      15.734  33.170  22.3790  0.00  0.00     0.000 N
ATOM     56  HD  NAG B   4      14.979  33.364  22.7550  0.00  0.00     0.000 HD
ATOM     56   C  NAG B   4      16.247  34.976  23.9170  0.00  0.00     0.000 C
ATOM     57   O  NAG B   4      17.736  34.240  22.2610  0.00  0.00     0.000 OA
ATOM     58   C  NAG B   4      16.634  34.095  22.7690  0.00  0.00     0.000 C
ENDBRANCH 49 56
ATOM     59   O  NAG B   4      18.131  31.900  16.4630  0.00  0.00     0.000 O
ATOM     61  HD  NAG B   4      17.564  31.825  17.1130  0.00  0.00     0.000 HD
ATOM     61   O  NAG B   4      18.131  31.900  16.4630  0.00  0.00     0.000 O
ATOM     63  HD  NAG B   4      17.564  31.825  17.1130  0.00  0.00     0.000 HD
ENDBRANCH 47 50
ENDBRANCH 34 47
ENDBRANCH 33 37
ENDBRANCH 17 33
ENDBRANCH 16 19
ENDBRANCH 1 16
TORSDOF 10
ENDMDL
MODEL 53
REMARK VINA RESULT:      -2.5     23.877     28.288
ROOT
ATOM      1  C1  GCU B   1      23.711  23.528  38.8120  0.00  0.00     0.000 C
ATOM      2  C2  GCU B   1      24.836  22.722  39.4430  0.00  0.00     0.000 C
ATOM      3  C3  GCU B   1      25.615  23.579  40.4290  0.00  0.00     0.000 C
ATOM      4  C4  GCU B   1      26.041  24.882  39.7710  0.00  0.00     0.000 C
ATOM      5  C5  GCU B   1      24.849  25.582  39.1150  0.00  0.00     0.000 C
ATOM      6  O5  GCU B   1      24.247  24.693  38.1650  0.00  0.00     0.000 O
ATOM      7   O  GCU B   1      24.251  21.603  40.1000  0.00  0.00     0.000 O
ATOM      9  HD  GCU B   1      24.477  20.773  39.9950  0.00  0.00     0.000 HD
ATOM      9   O  GCU B   1      26.767  22.878  40.9060  0.00  0.00     0.000 O
ATOM     11  HD  GCU B   1      26.993  22.049  40.8010  0.00  0.00     0.000 HD
ATOM     11   O  GCU B   1      26.616  25.734  40.7630  0.00  0.00     0.000 O
ATOM     13  HD  GCU B   1      26.842  24.904  40.6580  0.00  0.00     0.000 HD
ENDROOT
BRANCH 5 13
ATOM     13   C  GCU B   1      25.299  26.878  38.4830  0.00  0.00     0.000 C
ATOM     14   O  GCU B   1      25.347  27.926  39.1580  0.00  0.00     0.000 OA
ATOM     15   O  GCU B   1      25.641  26.843  37.2850  0.00  0.00     0.000 OA
ENDBRANCH 5 13
BRANCH 1 16
ATOM     16  O3  NAG B   2      23.134  23.327  37.6250  0.00  0.00     0.000 O
BRANCH 16 19
ATOM     17  C1  NAG B   2      19.581  22.418  36.7450  0.00  0.00     0.000 C
ATOM     18  C2  NAG B   2      20.932  22.292  37.4360  0.00  0.00     0.000 C
ATOM     19  C3  NAG B   2      21.798  23.514  37.1330  0.00  0.00     0.000 C
ATOM     20  C4  NAG B   2      21.875  23.751  35.6250  0.00  0.00     0.000 C
ATOM     21  C5  NAG B   2      20.471  23.864  35.0480  0.00  0.00     0.000 C
ATOM     22  O5  NAG B   2      19.750  22.653  35.3380  0.00  0.00     0.000 O
ATOM     23   O  NAG B   2      22.628  24.947  35.3950  0.00  0.00     0.000 O
ATOM     25  HD  NAG B   2      22.988  24.199  35.1460  0.00  0.00     0.000 HD
ATOM     25   C  NAG B   2      20.471  24.118  33.5420  0.00  0.00     0.000 C
ATOM     26   O  NAG B   2      20.844  22.944  32.8060  0.00  0.00     0.000 O
ATOM     28  HD  NAG B   2      21.203  22.196  32.5570  0.00  0.00     0.000 HD
BRANCH 18 30
ATOM     28   N  NAG B   2      20.505  21.991  38.7890  0.00  0.00     0.000 N
ATOM     30  HD  NAG B   2      21.136  21.415  38.6490  0.00  0.00     0.000 HD
ATOM     30   C  NAG B   2      20.955  20.950  39.5000  0.00  0.00     0.000 C
ATOM     31   C  NAG B   2      20.383  20.745  40.8740  0.00  0.00     0.000 C
ATOM     32   O  NAG B   2      21.794  20.190  39.0610  0.00  0.00     0.000 OA
ENDBRANCH 18 30
BRANCH 17 33
ATOM     33  O4  GCU B   3      18.828  21.223  37.0380  0.00  0.00     0.000 O
BRANCH 33 37
ATOM     34  C1  GCU B   3      14.740  20.469  36.8200  0.00  0.00     0.000 C
ATOM     35  C2  GCU B   3      15.567  20.270  35.5490  0.00  0.00     0.000 C
ATOM     36  C3  GCU B   3      17.034  20.170  35.9100  0.00  0.00     0.000 C
ATOM     37  C4  GCU B   3      17.447  21.394  36.7150  0.00  0.00     0.000 C
ATOM     38  C5  GCU B   3      16.570  21.509  37.9630  0.00  0.00     0.000 C
ATOM     39  O5  GCU B   3      15.203  21.607  37.5520  0.00  0.00     0.000 O
ATOM     40   O  GCU B   3      15.136  19.073  34.8980  0.00  0.00     0.000 O
ATOM     42  HD  GCU B   3      15.433  18.338  34.5490  0.00  0.00     0.000 HD
ATOM     42   O  GCU B   3      17.850  20.055  34.7310  0.00  0.00     0.000 O
ATOM     44  HD  GCU B   3      18.148  19.320  34.3820  0.00  0.00     0.000 HD
BRANCH 38 44
ATOM     44   C  GCU B   3      16.905  22.717  38.8010  0.00  0.00     0.000 C
ATOM     45   O  GCU B   3      16.451  23.820  38.4610  0.00  0.00     0.000 OA
ATOM     46   O  GCU B   3      17.623  22.588  39.8120  0.00  0.00     0.000 OA
ENDBRANCH 38 44
BRANCH 34 47
ATOM     47  O3  NAG B   4      13.493  20.760  36.4770  0.00  0.00     0.000 O
BRANCH 47 50
ATOM     48  C1  NAG B   4      10.999  19.121  38.6790  0.00  0.00     0.000 C
ATOM     49  C2  NAG B   4      12.157  20.035  38.2910  0.00  0.00     0.000 C
ATOM     50  C3  NAG B   4      12.180  20.301  36.7950  0.00  0.00     0.000 C
ATOM     51  C4  NAG B   4      11.850  19.070  35.9430  0.00  0.00     0.000 C
ATOM     52  C5  NAG B   4      10.467  18.531  36.2670  0.00  0.00     0.000 C
ATOM     53  O5  NAG B   4      10.158  18.510  37.6780  0.00  0.00     0.000 O
BRANCH 49 56
ATOM     54   N  NAG B   4      12.042  21.241  39.1290  0.00  0.00     0.000 N
ATOM     56  HD  NAG B   4      12.476  21.390  39.8640  0.00  0.00     0.000 HD
ATOM     56   C  NAG B   4      11.240  23.396  39.9060  0.00  0.00     0.000 C
ATOM     57   O  NAG B   4      10.193  22.178  38.1970  0.00  0.00     0.000 OA
ATOM     58   C  NAG B   4      11.110  22.207  39.0040  0.00  0.00     0.000 C
ENDBRANCH 49 56
ATOM     59   O  NAG B   4       8.947  16.700  35.6090  0.00  0.00     0.000 O
ATOM     61  HD  NAG B   4       9.564  16.996  36.1400  0.00  0.00     0.000 HD
ATOM     61   O  NAG B   4       8.947  16.700  35.6090  0.00  0.00     0.000 O
ATOM     63  HD  NAG B   4       9.564  16.996  36.1400  0.00  0.00     0.000 HD
ENDBRANCH 47 50
ENDBRANCH 34 47
ENDBRANCH 33 37
ENDBRANCH 17 33
ENDBRANCH 16 19
ENDBRANCH 1 16
TORSDOF 10
ENDMDL
MODEL 54
REMARK VINA RESULT:      -2.5     10.931     19.400
ROOT
ATOM      1  C1  GCU B   1      21.734  56.038  14.6030  0.00  0.00     0.000 C
ATOM      2  C2  GCU B   1      23.080  56.441  14.0210  0.00  0.00     0.000 C
ATOM      3  C3  GCU B   1      23.957  57.068  15.0940  0.00  0.00     0.000 C
ATOM      4  C4  GCU B   1      23.201  58.177  15.8090  0.00  0.00     0.000 C
ATOM      5  C5  GCU B   1      21.838  57.686  16.3010  0.00  0.00     0.000 C
ATOM      6  O5  GCU B   1      21.090  57.183  15.1860  0.00  0.00     0.000 O
ATOM      7   O  GCU B   1      23.690  55.269  13.4910  0.00  0.00     0.000 O
ATOM      9  HD  GCU B   1      24.008  55.176  12.6910  0.00  0.00     0.000 HD
ATOM      9   O  GCU B   1      25.157  57.592  14.5210  0.00  0.00     0.000 O
ATOM     11  HD  GCU B   1      25.475  57.499  13.7210  0.00  0.00     0.000 HD
ATOM     11   O  GCU B   1      23.981  58.628  16.9170  0.00  0.00     0.000 O
ATOM     13  HD  GCU B   1      24.299  58.534  16.1170  0.00  0.00     0.000 HD
ENDROOT
BRANCH 5 13
ATOM     13   C  GCU B   1      21.118  58.803  17.0170  0.00  0.00     0.000 C
ATOM     14   O  GCU B   1      21.584  59.281  18.0720  0.00  0.00     0.000 OA
ATOM     15   O  GCU B   1      20.070  59.235  16.4990  0.00  0.00     0.000 OA
ENDBRANCH 5 13
BRANCH 1 16
ATOM     16  O3  NAG B   2      20.573  55.911  13.9560  0.00  0.00     0.000 O
BRANCH 16 19
ATOM     17  C1  NAG B   2      18.279  52.921  13.7930  0.00  0.00     0.000 C
ATOM     18  C2  NAG B   2      19.592  53.689  13.7180  0.00  0.00     0.000 C
ATOM     19  C3  NAG B   2      19.392  55.128  14.1910  0.00  0.00     0.000 C
ATOM     20  C4  NAG B   2      18.232  55.779  13.4390  0.00  0.00     0.000 C
ATOM     21  C5  NAG B   2      16.979  54.929  13.5880  0.00  0.00     0.000 C
ATOM     22  O5  NAG B   2      17.245  53.612  13.0740  0.00  0.00     0.000 O
ATOM     23   O  NAG B   2      18.033  57.095  13.9680  0.00  0.00     0.000 O
ATOM     25  HD  NAG B   2      18.332  57.036  13.1580  0.00  0.00     0.000 HD
ATOM     25   C  NAG B   2      15.770  55.529  12.8720  0.00  0.00     0.000 C
ATOM     26   O  NAG B   2      15.877  55.394  11.4470  0.00  0.00     0.000 O
ATOM     28  HD  NAG B   2      16.176  55.335  10.6360  0.00  0.00     0.000 HD
BRANCH 18 30
ATOM     28   N  NAG B   2      20.412  52.685  14.3710  0.00  0.00     0.000 N
ATOM     30  HD  NAG B   2      20.941  53.012  13.7680  0.00  0.00     0.000 HD
ATOM     30   C  NAG B   2      21.635  52.336  13.9550  0.00  0.00     0.000 C
ATOM     31   C  NAG B   2      22.342  51.245  14.7090  0.00  0.00     0.000 C
ATOM     32   O  NAG B   2      22.165  52.870  13.0010  0.00  0.00     0.000 OA
ENDBRANCH 18 30
BRANCH 17 33
ATOM     33  O4  GCU B   3      18.525  51.588  13.3020  0.00  0.00     0.000 O
BRANCH 33 37
ATOM     34  C1  GCU B   3      16.333  48.082  13.7860  0.00  0.00     0.000 C
ATOM     35  C2  GCU B   3      15.992  48.973  12.5910  0.00  0.00     0.000 C
ATOM     36  C3  GCU B   3      17.131  49.937  12.3360  0.00  0.00     0.000 C
ATOM     37  C4  GCU B   3      17.433  50.719  13.6070  0.00  0.00     0.000 C
ATOM     38  C5  GCU B   3      17.764  49.748  14.7420  0.00  0.00     0.000 C
ATOM     39  O5  GCU B   3      16.647  48.874  14.9340  0.00  0.00     0.000 O
ATOM     40   O  GCU B   3      15.777  48.148  11.4440  0.00  0.00     0.000 O
ATOM     42  HD  GCU B   3      16.004  48.058  10.6130  0.00  0.00     0.000 HD
ATOM     42   O  GCU B   3      16.813  50.841  11.2630  0.00  0.00     0.000 O
ATOM     44  HD  GCU B   3      17.040  50.752  10.4320  0.00  0.00     0.000 HD
BRANCH 38 44
ATOM     44   C  GCU B   3      18.051  50.452  16.0450  0.00  0.00     0.000 C
ATOM     45   O  GCU B   3      19.233  50.628  16.3770  0.00  0.00     0.000 OA
ATOM     46   O  GCU B   3      17.106  50.844  16.7560  0.00  0.00     0.000 OA
ENDBRANCH 38 44
BRANCH 34 47
ATOM     47  O3  NAG B   4      15.254  47.390  14.1250  0.00  0.00     0.000 O
BRANCH 47 50
ATOM     48  C1  NAG B   4      13.983  43.936  13.6710  0.00  0.00     0.000 C
ATOM     49  C2  NAG B   4      14.753  45.212  13.3460  0.00  0.00     0.000 C
ATOM     50  C3  NAG B   4      14.949  46.074  14.5830  0.00  0.00     0.000 C
ATOM     51  C4  NAG B   4      13.722  46.126  15.5010  0.00  0.00     0.000 C
ATOM     52  C5  NAG B   4      13.345  44.739  15.9940  0.00  0.00     0.000 C
ATOM     53  O5  NAG B   4      13.419  43.712  14.9800  0.00  0.00     0.000 O
BRANCH 49 56
ATOM     54   N  NAG B   4      16.093  44.600  13.3020  0.00  0.00     0.000 N
ATOM     56  HD  NAG B   4      16.488  44.200  13.9600  0.00  0.00     0.000 HD
ATOM     56   C  NAG B   4      18.260  43.945  12.4260  0.00  0.00     0.000 C
ATOM     57   O  NAG B   4      16.829  45.440  11.3220  0.00  0.00     0.000 OA
ATOM     58   C  NAG B   4      16.993  44.736  12.3080  0.00  0.00     0.000 C
ENDBRANCH 49 56
ATOM     59   O  NAG B   4      11.654  43.628  17.4090  0.00  0.00     0.000 O
ATOM     61  HD  NAG B   4      11.908  43.887  16.6230  0.00  0.00     0.000 HD
ATOM     61   O  NAG B   4      11.654  43.628  17.4090  0.00  0.00     0.000 O
ATOM     63  HD  NAG B   4      11.908  43.887  16.6230  0.00  0.00     0.000 HD
ENDBRANCH 47 50
ENDBRANCH 34 47
ENDBRANCH 33 37
ENDBRANCH 17 33
ENDBRANCH 16 19
ENDBRANCH 1 16
TORSDOF 10
ENDMDL
MODEL 55
REMARK VINA RESULT:      -2.3     25.207     29.463
ROOT
ATOM      1  C1  GCU B   1      26.065  26.536  40.3870  0.00  0.00     0.000 C
ATOM      2  C2  GCU B   1      26.120  27.928  40.9970  0.00  0.00     0.000 C
ATOM      3  C3  GCU B   1      27.239  28.742  40.3650  0.00  0.00     0.000 C
ATOM      4  C4  GCU B   1      28.544  27.963  40.4080  0.00  0.00     0.000 C
ATOM      5  C5  GCU B   1      28.366  26.558  39.8280  0.00  0.00     0.000 C
ATOM      6  O5  GCU B   1      27.332  25.879  40.5520  0.00  0.00     0.000 O
ATOM      7   O  GCU B   1      24.858  28.548  40.7750  0.00  0.00     0.000 O
ATOM      9  HD  GCU B   1      24.358  28.919  41.3780  0.00  0.00     0.000 HD
ATOM      9   O  GCU B   1      27.398  29.991  41.0420  0.00  0.00     0.000 O
ATOM     11  HD  GCU B   1      26.898  30.361  41.6450  0.00  0.00     0.000 HD
ATOM     11   O  GCU B   1      29.531  28.673  39.6590  0.00  0.00     0.000 O
ATOM     13  HD  GCU B   1      29.031  29.044  40.2610  0.00  0.00     0.000 HD
ENDROOT
BRANCH 5 13
ATOM     13   C  GCU B   1      29.680  25.815  39.8710  0.00  0.00     0.000 C
ATOM     14   O  GCU B   1      30.548  26.115  40.7150  0.00  0.00     0.000 OA
ATOM     15   O  GCU B   1      29.839  24.885  39.0570  0.00  0.00     0.000 OA
ENDBRANCH 5 13
BRANCH 1 16
ATOM     16  O3  NAG B   2      25.591  25.421  40.9470  0.00  0.00     0.000 O
BRANCH 16 19
ATOM     17  C1  NAG B   2      23.003  23.030  39.6000  0.00  0.00     0.000 C
ATOM     18  C2  NAG B   2      23.609  24.374  39.9810  0.00  0.00     0.000 C
ATOM     19  C3  NAG B   2      25.063  24.196  40.4140  0.00  0.00     0.000 C
ATOM     20  C4  NAG B   2      25.169  23.122  41.4960  0.00  0.00     0.000 C
ATOM     21  C5  NAG B   2      24.537  21.828  41.0020  0.00  0.00     0.000 C
ATOM     22  O5  NAG B   2      23.161  22.081  40.6670  0.00  0.00     0.000 O
ATOM     23   O  NAG B   2      26.553  22.935  41.8130  0.00  0.00     0.000 O
ATOM     25  HD  NAG B   2      26.053  23.291  42.4230  0.00  0.00     0.000 HD
ATOM     25   C  NAG B   2      24.620  20.701  42.0300  0.00  0.00     0.000 C
ATOM     26   O  NAG B   2      23.709  20.909  43.1200  0.00  0.00     0.000 O
ATOM     28  HD  NAG B   2      23.209  21.265  43.7310  0.00  0.00     0.000 HD
BRANCH 18 30
ATOM     28   N  NAG B   2      23.131  25.094  38.8160  0.00  0.00     0.000 N
ATOM     30  HD  NAG B   2      23.095  25.689  39.4440  0.00  0.00     0.000 HD
ATOM     30   C  NAG B   2      22.641  26.339  38.8570  0.00  0.00     0.000 C
ATOM     31   C  NAG B   2      22.143  26.935  37.5700  0.00  0.00     0.000 C
ATOM     32   O  NAG B   2      22.592  26.974  39.8920  0.00  0.00     0.000 OA
ENDBRANCH 18 30
BRANCH 17 33
ATOM     33  O4  GCU B   3      21.626  23.260  39.2380  0.00  0.00     0.000 O
BRANCH 33 37
ATOM     34  C1  GCU B   3      18.886  20.819  37.2710  0.00  0.00     0.000 C
ATOM     35  C2  GCU B   3      19.055  20.626  38.7790  0.00  0.00     0.000 C
ATOM     36  C3  GCU B   3      19.738  21.839  39.3720  0.00  0.00     0.000 C
ATOM     37  C4  GCU B   3      21.050  22.095  38.6450  0.00  0.00     0.000 C
ATOM     38  C5  GCU B   3      20.782  22.278  37.1490  0.00  0.00     0.000 C
ATOM     39  O5  GCU B   3      20.146  21.096  36.6530  0.00  0.00     0.000 O
ATOM     40   O  GCU B   3      17.766  20.445  39.3700  0.00  0.00     0.000 O
ATOM     42  HD  GCU B   3      17.264  20.727  40.0160  0.00  0.00     0.000 HD
ATOM     42   O  GCU B   3      19.979  21.661  40.7800  0.00  0.00     0.000 O
ATOM     44  HD  GCU B   3      19.476  21.943  41.4260  0.00  0.00     0.000 HD
BRANCH 38 44
ATOM     44   C  GCU B   3      22.044  22.511  36.3570  0.00  0.00     0.000 C
ATOM     45   O  GCU B   3      22.693  21.527  35.9710  0.00  0.00     0.000 OA
ATOM     46   O  GCU B   3      22.408  23.675  36.1020  0.00  0.00     0.000 OA
ENDBRANCH 38 44
BRANCH 34 47
ATOM     47  O3  NAG B   4      18.480  19.676  36.7370  0.00  0.00     0.000 O
BRANCH 47 50
ATOM     48  C1  NAG B   4      16.065  20.049  33.9460  0.00  0.00     0.000 C
ATOM     49  C2  NAG B   4      17.404  20.112  34.6730  0.00  0.00     0.000 C
ATOM     50  C3  NAG B   4      17.411  19.224  35.9070  0.00  0.00     0.000 C
ATOM     51  C4  NAG B   4      16.100  19.259  36.7010  0.00  0.00     0.000 C
ATOM     52  C5  NAG B   4      14.927  18.808  35.8470  0.00  0.00     0.000 C
ATOM     53  O5  NAG B   4      14.944  19.328  34.4990  0.00  0.00     0.000 O
BRANCH 49 56
ATOM     54   N  NAG B   4      18.142  19.212  33.7690  0.00  0.00     0.000 N
ATOM     56  HD  NAG B   4      17.960  18.378  33.6270  0.00  0.00     0.000 HD
ATOM     56   C  NAG B   4      19.847  18.454  32.2170  0.00  0.00     0.000 C
ATOM     57   O  NAG B   4      19.971  20.498  33.3610  0.00  0.00     0.000 OA
ATOM     58   C  NAG B   4      19.323  19.478  33.1770  0.00  0.00     0.000 C
ENDBRANCH 49 56
ATOM     59   O  NAG B   4      12.484  18.489  36.0040  0.00  0.00     0.000 O
ATOM     61  HD  NAG B   4      13.153  19.000  35.8010  0.00  0.00     0.000 HD
ATOM     61   O  NAG B   4      12.484  18.489  36.0040  0.00  0.00     0.000 O
ATOM     63  HD  NAG B   4      13.153  19.000  35.8010  0.00  0.00     0.000 HD
ENDBRANCH 47 50
ENDBRANCH 34 47
ENDBRANCH 33 37
ENDBRANCH 17 33
ENDBRANCH 16 19
ENDBRANCH 1 16
TORSDOF 10
ENDMDL
MODEL 56
REMARK VINA RESULT:      -2.2     15.490     21.127
ROOT
ATOM      1  C1  GCU B   1      23.936  55.130  14.0460  0.00  0.00     0.000 C
ATOM      2  C2  GCU B   1      23.667  56.281  15.0030  0.00  0.00     0.000 C
ATOM      3  C3  GCU B   1      23.448  57.574  14.2320  0.00  0.00     0.000 C
ATOM      4  C4  GCU B   1      24.587  57.800  13.2500  0.00  0.00     0.000 C
ATOM      5  C5  GCU B   1      24.814  56.564  12.3780  0.00  0.00     0.000 C
ATOM      6  O5  GCU B   1      25.073  55.434  13.2220  0.00  0.00     0.000 O
ATOM      7   O  GCU B   1      22.513  55.948  15.7680  0.00  0.00     0.000 O
ATOM      9  HD  GCU B   1      22.452  55.959  16.6320  0.00  0.00     0.000 HD
ATOM      9   O  GCU B   1      23.354  58.685  15.1270  0.00  0.00     0.000 O
ATOM     11  HD  GCU B   1      23.292  58.696  15.9910  0.00  0.00     0.000 HD
ATOM     11   O  GCU B   1      24.270  58.921  12.4250  0.00  0.00     0.000 O
ATOM     13  HD  GCU B   1      24.209  58.933  13.2890  0.00  0.00     0.000 HD
ENDROOT
BRANCH 5 13
ATOM     13   C  GCU B   1      25.940  56.821  11.4050  0.00  0.00     0.000 C
ATOM     14   O  GCU B   1      25.909  56.328  10.2590  0.00  0.00     0.000 OA
ATOM     15   O  GCU B   1      26.869  57.560  11.7850  0.00  0.00     0.000 OA
ENDBRANCH 5 13
BRANCH 1 16
ATOM     16  O3  NAG B   2      24.613  54.007  14.2940  0.00  0.00     0.000 O
BRANCH 16 19
ATOM     17  C1  NAG B   2      23.426  50.437  14.0260  0.00  0.00     0.000 C
ATOM     18  C2  NAG B   2      23.385  51.903  14.4360  0.00  0.00     0.000 C
ATOM     19  C3  NAG B   2      24.530  52.670  13.7770  0.00  0.00     0.000 C
ATOM     20  C4  NAG B   2      25.862  51.972  14.0480  0.00  0.00     0.000 C
ATOM     21  C5  NAG B   2      25.786  50.521  13.5960  0.00  0.00     0.000 C
ATOM     22  O5  NAG B   2      24.716  49.869  14.3030  0.00  0.00     0.000 O
ATOM     23   O  NAG B   2      26.893  52.680  13.3490  0.00  0.00     0.000 O
ATOM     25  HD  NAG B   2      26.905  52.717  14.2140  0.00  0.00     0.000 HD
ATOM     25   C  NAG B   2      27.092  49.762  13.8220  0.00  0.00     0.000 C
ATOM     26   O  NAG B   2      27.306  49.477  15.2130  0.00  0.00     0.000 O
ATOM     28  HD  NAG B   2      27.319  49.514  16.0780  0.00  0.00     0.000 HD
BRANCH 18 30
ATOM     28   N  NAG B   2      22.242  52.064  15.3150  0.00  0.00     0.000 N
ATOM     30  HD  NAG B   2      21.986  52.454  14.5850  0.00  0.00     0.000 HD
ATOM     30   C  NAG B   2      21.160  52.790  15.0060  0.00  0.00     0.000 C
ATOM     31   C  NAG B   2      20.075  52.899  16.0420  0.00  0.00     0.000 C
ATOM     32   O  NAG B   2      21.047  53.348  13.9330  0.00  0.00     0.000 OA
ENDBRANCH 18 30
BRANCH 17 33
ATOM     33  O4  GCU B   3      22.347  49.764  14.7060  0.00  0.00     0.000 O
BRANCH 33 37
ATOM     34  C1  GCU B   3      20.204  46.338  13.7010  0.00  0.00     0.000 C
ATOM     35  C2  GCU B   3      21.567  46.153  14.3690  0.00  0.00     0.000 C
ATOM     36  C3  GCU B   3      21.987  47.447  15.0320  0.00  0.00     0.000 C
ATOM     37  C4  GCU B   3      21.963  48.576  14.0110  0.00  0.00     0.000 C
ATOM     38  C5  GCU B   3      20.565  48.687  13.4000  0.00  0.00     0.000 C
ATOM     39  O5  GCU B   3      20.235  47.438  12.7860  0.00  0.00     0.000 O
ATOM     40   O  GCU B   3      21.468  45.109  15.3410  0.00  0.00     0.000 O
ATOM     42  HD  GCU B   3      21.651  44.923  16.1670  0.00  0.00     0.000 HD
ATOM     42   O  GCU B   3      23.300  47.331  15.6100  0.00  0.00     0.000 O
ATOM     44  HD  GCU B   3      23.482  47.145  16.4360  0.00  0.00     0.000 HD
BRANCH 38 44
ATOM     44   C  GCU B   3      20.471  49.772  12.3570  0.00  0.00     0.000 C
ATOM     45   O  GCU B   3      21.255  49.742  11.3960  0.00  0.00     0.000 OA
ATOM     46   O  GCU B   3      19.615  50.670  12.4740  0.00  0.00     0.000 OA
ENDBRANCH 38 44
BRANCH 34 47
ATOM     47  O3  NAG B   4      19.945  45.273  12.9560  0.00  0.00     0.000 O
BRANCH 47 50
ATOM     48  C1  NAG B   4      19.223  43.646   9.7020  0.00  0.00     0.000 C
ATOM     49  C2  NAG B   4      19.026  44.588  10.8850  0.00  0.00     0.000 C
ATOM     50  C3  NAG B   4      20.313  44.773  11.6720  0.00  0.00     0.000 C
ATOM     51  C4  NAG B   4      21.124  43.483  11.8410  0.00  0.00     0.000 C
ATOM     52  C5  NAG B   4      21.518  42.899  10.4940  0.00  0.00     0.000 C
ATOM     53  O5  NAG B   4      20.467  42.942   9.5030  0.00  0.00     0.000 O
BRANCH 49 56
ATOM     54   N  NAG B   4      19.059  45.835  10.0990  0.00  0.00     0.000 N
ATOM     56  HD  NAG B   4      19.710  46.094   9.5900  0.00  0.00     0.000 HD
ATOM     56   C  NAG B   4      18.353  47.988   9.2300  0.00  0.00     0.000 C
ATOM     57   O  NAG B   4      17.267  46.902  11.0030  0.00  0.00     0.000 OA
ATOM     58   C  NAG B   4      18.185  46.856  10.1970  0.00  0.00     0.000 C
ENDBRANCH 49 56
ATOM     59   O  NAG B   4      22.729  40.966   9.5500  0.00  0.00     0.000 O
ATOM     61  HD  NAG B   4      21.980  41.320   9.8030  0.00  0.00     0.000 HD
ATOM     61   O  NAG B   4      22.729  40.966   9.5500  0.00  0.00     0.000 O
ATOM     63  HD  NAG B   4      21.980  41.320   9.8030  0.00  0.00     0.000 HD
ENDBRANCH 47 50
ENDBRANCH 34 47
ENDBRANCH 33 37
ENDBRANCH 17 33
ENDBRANCH 16 19
ENDBRANCH 1 16
TORSDOF 10
ENDMDL
MODEL 57
REMARK VINA RESULT:      -2.2     15.202     20.463
ROOT
ATOM      1  C1  GCU B   1      21.416  53.775  14.7360  0.00  0.00     0.000 C
ATOM      2  C2  GCU B   1      21.266  55.206  15.2270  0.00  0.00     0.000 C
ATOM      3  C3  GCU B   1      22.588  55.721  15.7770  0.00  0.00     0.000 C
ATOM      4  C4  GCU B   1      23.150  54.741  16.7960  0.00  0.00     0.000 C
ATOM      5  C5  GCU B   1      23.201  53.323  16.2250  0.00  0.00     0.000 C
ATOM      6  O5  GCU B   1      21.886  52.938  15.8050  0.00  0.00     0.000 O
ATOM      7   O  GCU B   1      20.836  55.999  14.1250  0.00  0.00     0.000 O
ATOM      9  HD  GCU B   1      20.151  56.529  14.1140  0.00  0.00     0.000 HD
ATOM      9   O  GCU B   1      22.416  57.004  16.3830  0.00  0.00     0.000 O
ATOM     11  HD  GCU B   1      21.731  57.535  16.3720  0.00  0.00     0.000 HD
ATOM     11   O  GCU B   1      24.464  55.162  17.1650  0.00  0.00     0.000 O
ATOM     13  HD  GCU B   1      23.779  55.693  17.1540  0.00  0.00     0.000 HD
ENDROOT
BRANCH 5 13
ATOM     13   C  GCU B   1      23.775  52.377  17.2520  0.00  0.00     0.000 C
ATOM     14   O  GCU B   1      23.024  51.626  17.9080  0.00  0.00     0.000 OA
ATOM     15   O  GCU B   1      25.014  52.362  17.3900  0.00  0.00     0.000 OA
ENDBRANCH 5 13
BRANCH 1 16
ATOM     16  O3  NAG B   2      20.463  52.845  14.6370  0.00  0.00     0.000 O
BRANCH 16 19
ATOM     17  C1  NAG B   2      18.933  51.109  11.6580  0.00  0.00     0.000 C
ATOM     18  C2  NAG B   2      19.353  52.279  12.5390  0.00  0.00     0.000 C
ATOM     19  C3  NAG B   2      20.212  51.785  13.7010  0.00  0.00     0.000 C
ATOM     20  C4  NAG B   2      19.503  50.653  14.4440  0.00  0.00     0.000 C
ATOM     21  C5  NAG B   2      19.137  49.545  13.4680  0.00  0.00     0.000 C
ATOM     22  O5  NAG B   2      18.290  50.090  12.4410  0.00  0.00     0.000 O
ATOM     23   O  NAG B   2      20.377  50.172  15.4720  0.00  0.00     0.000 O
ATOM     25  HD  NAG B   2      19.660  50.588  15.7250  0.00  0.00     0.000 HD
ATOM     25   C  NAG B   2      18.437  48.369  14.1450  0.00  0.00     0.000 C
ATOM     26   O  NAG B   2      17.089  48.696  14.5160  0.00  0.00     0.000 O
ATOM     28  HD  NAG B   2      16.373  49.112  14.7690  0.00  0.00     0.000 HD
BRANCH 18 30
ATOM     28   N  NAG B   2      18.793  53.431  11.8580  0.00  0.00     0.000 N
ATOM     30  HD  NAG B   2      19.647  53.560  11.7960  0.00  0.00     0.000 HD
ATOM     30   C  NAG B   2      19.523  54.459  11.4080  0.00  0.00     0.000 C
ATOM     31   C  NAG B   2      18.792  55.603  10.7620  0.00  0.00     0.000 C
ATOM     32   O  NAG B   2      20.733  54.481  11.5150  0.00  0.00     0.000 OA
ENDBRANCH 18 30
BRANCH 17 33
ATOM     33  O4  GCU B   3      18.098  51.634  10.6060  0.00  0.00     0.000 O
BRANCH 33 37
ATOM     34  C1  GCU B   3      17.342  50.203   6.7700  0.00  0.00     0.000 C
ATOM     35  C2  GCU B   3      16.490  49.652   7.9140  0.00  0.00     0.000 C
ATOM     36  C3  GCU B   3      16.601  50.567   9.1150  0.00  0.00     0.000 C
ATOM     37  C4  GCU B   3      18.066  50.748   9.4860  0.00  0.00     0.000 C
ATOM     38  C5  GCU B   3      18.836  51.303   8.2860  0.00  0.00     0.000 C
ATOM     39  O5  GCU B   3      18.696  50.389   7.1930  0.00  0.00     0.000 O
ATOM     40   O  GCU B   3      15.130  49.570   7.4800  0.00  0.00     0.000 O
ATOM     42  HD  GCU B   3      14.324  49.783   7.7110  0.00  0.00     0.000 HD
ATOM     42   O  GCU B   3      15.868  50.041  10.2360  0.00  0.00     0.000 O
ATOM     44  HD  GCU B   3      15.062  50.254  10.4680  0.00  0.00     0.000 HD
BRANCH 38 44
ATOM     44   C  GCU B   3      20.306  51.485   8.5710  0.00  0.00     0.000 C
ATOM     45   O  GCU B   3      20.741  52.635   8.7320  0.00  0.00     0.000 OA
ATOM     46   O  GCU B   3      21.050  50.488   8.6440  0.00  0.00     0.000 OA
ENDBRANCH 38 44
BRANCH 34 47
ATOM     47  O3  NAG B   4      17.401  49.295   5.8060  0.00  0.00     0.000 O
BRANCH 47 50
ATOM     48  C1  NAG B   4      17.216  48.526   2.1820  0.00  0.00     0.000 C
ATOM     49  C2  NAG B   4      16.787  49.102   3.5280  0.00  0.00     0.000 C
ATOM     50  C3  NAG B   4      17.956  49.187   4.4960  0.00  0.00     0.000 C
ATOM     51  C4  NAG B   4      18.894  47.975   4.4390  0.00  0.00     0.000 C
ATOM     52  C5  NAG B   4      19.490  47.805   3.0520  0.00  0.00     0.000 C
ATOM     53  O5  NAG B   4      18.549  48.014   1.9760  0.00  0.00     0.000 O
BRANCH 49 56
ATOM     54   N  NAG B   4      16.733  50.496   3.0520  0.00  0.00     0.000 N
ATOM     56  HD  NAG B   4      17.357  50.905   2.6150  0.00  0.00     0.000 HD
ATOM     56   C  NAG B   4      15.885  52.744   2.7080  0.00  0.00     0.000 C
ATOM     57   O  NAG B   4      14.897  51.213   4.1850  0.00  0.00     0.000 OA
ATOM     58   C  NAG B   4      15.802  51.411   3.3870  0.00  0.00     0.000 C
ENDBRANCH 49 56
ATOM     59   O  NAG B   4      21.015  46.305   1.8180  0.00  0.00     0.000 O
ATOM     61  HD  NAG B   4      20.207  46.512   2.0520  0.00  0.00     0.000 HD
ATOM     61   O  NAG B   4      21.015  46.305   1.8180  0.00  0.00     0.000 O
ATOM     63  HD  NAG B   4      20.207  46.512   2.0520  0.00  0.00     0.000 HD
ENDBRANCH 47 50
ENDBRANCH 34 47
ENDBRANCH 33 37
ENDBRANCH 17 33
ENDBRANCH 16 19
ENDBRANCH 1 16
TORSDOF 10
ENDMDL
MODEL 58
REMARK VINA RESULT:      -2.2      7.091     12.070
ROOT
ATOM      1  C1  GCU B   1      12.137  47.592  30.7740  0.00  0.00     0.000 C
ATOM      2  C2  GCU B   1      11.622  48.694  31.6870  0.00  0.00     0.000 C
ATOM      3  C3  GCU B   1      12.532  49.910  31.6180  0.00  0.00     0.000 C
ATOM      4  C4  GCU B   1      13.978  49.499  31.8500  0.00  0.00     0.000 C
ATOM      5  C5  GCU B   1      14.377  48.347  30.9270  0.00  0.00     0.000 C
ATOM      6  O5  GCU B   1      13.483  47.245  31.1370  0.00  0.00     0.000 O
ATOM      7   O  GCU B   1      10.303  49.025  31.2640  0.00  0.00     0.000 O
ATOM      9  HD  GCU B   1       9.598  49.056  31.7660  0.00  0.00     0.000 HD
ATOM      9   O  GCU B   1      12.144  50.885  32.5900  0.00  0.00     0.000 O
ATOM     11  HD  GCU B   1      11.439  50.917  33.0920  0.00  0.00     0.000 HD
ATOM     11   O  GCU B   1      14.822  50.626  31.6100  0.00  0.00     0.000 O
ATOM     13  HD  GCU B   1      14.117  50.657  32.1120  0.00  0.00     0.000 HD
ENDROOT
BRANCH 5 13
ATOM     13   C  GCU B   1      15.819  47.970  31.1690  0.00  0.00     0.000 C
ATOM     14   O  GCU B   1      16.520  47.523  30.2380  0.00  0.00     0.000 OA
ATOM     15   O  GCU B   1      16.274  48.150  32.3150  0.00  0.00     0.000 OA
ENDBRANCH 5 13
BRANCH 1 16
ATOM     16  O3  NAG B   2      11.934  46.278  30.8910  0.00  0.00     0.000 O
BRANCH 16 19
ATOM     17  C1  NAG B   2      10.597  43.871  28.3120  0.00  0.00     0.000 C
ATOM     18  C2  NAG B   2      10.648  45.136  29.1600  0.00  0.00     0.000 C
ATOM     19  C3  NAG B   2      11.952  45.189  29.9540  0.00  0.00     0.000 C
ATOM     20  C4  NAG B   2      12.152  43.892  30.7360  0.00  0.00     0.000 C
ATOM     21  C5  NAG B   2      12.086  42.703  29.7890  0.00  0.00     0.000 C
ATOM     22  O5  NAG B   2      10.810  42.706  29.1250  0.00  0.00     0.000 O
ATOM     23   O  NAG B   2      13.419  43.957  31.4000  0.00  0.00     0.000 O
ATOM     25  HD  NAG B   2      12.711  43.974  31.8980  0.00  0.00     0.000 HD
ATOM     25   C  NAG B   2      12.295  41.368  30.5010  0.00  0.00     0.000 C
ATOM     26   O  NAG B   2      11.150  41.001  31.2860  0.00  0.00     0.000 O
ATOM     28  HD  NAG B   2      10.441  41.018  31.7840  0.00  0.00     0.000 HD
BRANCH 18 30
ATOM     28   N  NAG B   2      10.242  46.050  28.1090  0.00  0.00     0.000 N
ATOM     30  HD  NAG B   2       9.872  46.385  28.8160  0.00  0.00     0.000 HD
ATOM     30   C  NAG B   2       9.379  47.057  28.2880  0.00  0.00     0.000 C
ATOM     31   C  NAG B   2       9.022  47.891  27.0900  0.00  0.00     0.000 C
ATOM     32   O  NAG B   2       8.891  47.297  29.3750  0.00  0.00     0.000 OA
ENDBRANCH 18 30
BRANCH 17 33
ATOM     33  O4  GCU B   3       9.333  43.862  27.6180  0.00  0.00     0.000 O
BRANCH 33 37
ATOM     34  C1  GCU B   3       8.004  41.556  24.4170  0.00  0.00     0.000 C
ATOM     35  C2  GCU B   3       7.882  40.960  25.8200  0.00  0.00     0.000 C
ATOM     36  C3  GCU B   3       8.001  42.063  26.8510  0.00  0.00     0.000 C
ATOM     37  C4  GCU B   3       9.297  42.830  26.6310  0.00  0.00     0.000 C
ATOM     38  C5  GCU B   3       9.329  43.389  25.2070  0.00  0.00     0.000 C
ATOM     39  O5  GCU B   3       9.220  42.298  24.2870  0.00  0.00     0.000 O
ATOM     40   O  GCU B   3       6.615  40.309  25.9370  0.00  0.00     0.000 O
ATOM     42  HD  GCU B   3       5.918  40.254  26.4490  0.00  0.00     0.000 HD
ATOM     42   O  GCU B   3       7.963  41.529  28.1860  0.00  0.00     0.000 O
ATOM     44  HD  GCU B   3       7.266  41.474  28.6980  0.00  0.00     0.000 HD
BRANCH 38 44
ATOM     44   C  GCU B   3      10.599  44.144  24.9060  0.00  0.00     0.000 C
ATOM     45   O  GCU B   3      11.601  43.503  24.5540  0.00  0.00     0.000 OA
ATOM     46   O  GCU B   3      10.621  45.385  25.0130  0.00  0.00     0.000 OA
ENDBRANCH 38 44
BRANCH 34 47
ATOM     47  O3  NAG B   4       8.105  40.567  23.5400  0.00  0.00     0.000 O
BRANCH 47 50
ATOM     48  C1  NAG B   4       5.519  40.871  20.8990  0.00  0.00     0.000 C
ATOM     49  C2  NAG B   4       6.642  41.309  21.8330  0.00  0.00     0.000 C
ATOM     50  C3  NAG B   4       7.411  40.116  22.3790  0.00  0.00     0.000 C
ATOM     51  C4  NAG B   4       6.520  38.925  22.7490  0.00  0.00     0.000 C
ATOM     52  C5  NAG B   4       5.739  38.425  21.5450  0.00  0.00     0.000 C
ATOM     53  O5  NAG B   4       5.195  39.477  20.7170  0.00  0.00     0.000 O
BRANCH 49 56
ATOM     54   N  NAG B   4       7.740  41.708  20.9350  0.00  0.00     0.000 N
ATOM     56  HD  NAG B   4       8.410  41.212  20.7040  0.00  0.00     0.000 HD
ATOM     56   C  NAG B   4       9.102  43.120  19.5060  0.00  0.00     0.000 C
ATOM     57   O  NAG B   4       7.349  43.945  20.8280  0.00  0.00     0.000 OA
ATOM     58   C  NAG B   4       7.986  42.957  20.4920  0.00  0.00     0.000 C
ENDBRANCH 49 56
ATOM     59   O  NAG B   4       4.079  36.697  20.9480  0.00  0.00     0.000 O
ATOM     61  HD  NAG B   4       4.246  37.508  21.2030  0.00  0.00     0.000 HD
ATOM     61   O  NAG B   4       4.079  36.697  20.9480  0.00  0.00     0.000 O
ATOM     63  HD  NAG B   4       4.246  37.508  21.2030  0.00  0.00     0.000 HD
ENDBRANCH 47 50
ENDBRANCH 34 47
ENDBRANCH 33 37
ENDBRANCH 17 33
ENDBRANCH 16 19
ENDBRANCH 1 16
TORSDOF 10
ENDMDL
MODEL 59
REMARK VINA RESULT:      -2.2     23.298     27.811
ROOT
ATOM      1  C1  GCU B   1      25.425  27.133  39.9940  0.00  0.00     0.000 C
ATOM      2  C2  GCU B   1      26.271  27.126  41.2580  0.00  0.00     0.000 C
ATOM      3  C3  GCU B   1      26.346  28.523  41.8560  0.00  0.00     0.000 C
ATOM      4  C4  GCU B   1      26.773  29.526  40.7960  0.00  0.00     0.000 C
ATOM      5  C5  GCU B   1      25.899  29.410  39.5450  0.00  0.00     0.000 C
ATOM      6  O5  GCU B   1      25.968  28.067  39.0470  0.00  0.00     0.000 O
ATOM      7   O  GCU B   1      25.672  26.216  42.1750  0.00  0.00     0.000 O
ATOM      9  HD  GCU B   1      26.070  25.564  42.5820  0.00  0.00     0.000 HD
ATOM      9   O  GCU B   1      27.266  28.554  42.9500  0.00  0.00     0.000 O
ATOM     11  HD  GCU B   1      27.665  27.901  43.3560  0.00  0.00     0.000 HD
ATOM     11   O  GCU B   1      26.668  30.843  41.3380  0.00  0.00     0.000 O
ATOM     13  HD  GCU B   1      27.067  30.191  41.7440  0.00  0.00     0.000 HD
ENDROOT
BRANCH 5 13
ATOM     13   C  GCU B   1      26.337  30.426  38.5170  0.00  0.00     0.000 C
ATOM     14   O  GCU B   1      25.967  31.614  38.6080  0.00  0.00     0.000 OA
ATOM     15   O  GCU B   1      27.092  30.033  37.6070  0.00  0.00     0.000 OA
ENDBRANCH 5 13
BRANCH 1 16
ATOM     16  O3  NAG B   2      25.495  26.288  38.9640  0.00  0.00     0.000 O
BRANCH 16 19
ATOM     17  C1  NAG B   2      22.681  24.326  37.3940  0.00  0.00     0.000 C
ATOM     18  C2  NAG B   2      23.545  24.891  38.5140  0.00  0.00     0.000 C
ATOM     19  C3  NAG B   2      24.559  25.886  37.9520  0.00  0.00     0.000 C
ATOM     20  C4  NAG B   2      25.343  25.253  36.8030  0.00  0.00     0.000 C
ATOM     21  C5  NAG B   2      24.380  24.731  35.7470  0.00  0.00     0.000 C
ATOM     22  O5  NAG B   2      23.501  23.768  36.3540  0.00  0.00     0.000 O
ATOM     23   O  NAG B   2      26.223  26.243  36.2580  0.00  0.00     0.000 O
ATOM     25  HD  NAG B   2      26.588  25.579  36.6770  0.00  0.00     0.000 HD
ATOM     25   C  NAG B   2      25.097  24.097  34.5560  0.00  0.00     0.000 C
ATOM     26   O  NAG B   2      25.659  22.820  34.8940  0.00  0.00     0.000 O
ATOM     28  HD  NAG B   2      26.024  22.155  35.3130  0.00  0.00     0.000 HD
BRANCH 18 30
ATOM     28   N  NAG B   2      22.455  25.198  39.4210  0.00  0.00     0.000 N
ATOM     30  HD  NAG B   2      23.089  24.945  39.9530  0.00  0.00     0.000 HD
ATOM     30   C  NAG B   2      22.492  24.966  40.7390  0.00  0.00     0.000 C
ATOM     31   C  NAG B   2      21.265  25.297  41.5400  0.00  0.00     0.000 C
ATOM     32   O  NAG B   2      23.476  24.502  41.2800  0.00  0.00     0.000 OA
ENDBRANCH 18 30
BRANCH 17 33
ATOM     33  O4  GCU B   3      21.774  23.372  37.9820  0.00  0.00     0.000 O
BRANCH 33 37
ATOM     34  C1  GCU B   3      18.268  21.687  36.4960  0.00  0.00     0.000 C
ATOM     35  C2  GCU B   3      19.591  21.012  36.1310  0.00  0.00     0.000 C
ATOM     36  C3  GCU B   3      20.677  21.481  37.0750  0.00  0.00     0.000 C
ATOM     37  C4  GCU B   3      20.750  23.001  37.0580  0.00  0.00     0.000 C
ATOM     38  C5  GCU B   3      19.387  23.586  37.4370  0.00  0.00     0.000 C
ATOM     39  O5  GCU B   3      18.412  23.111  36.5030  0.00  0.00     0.000 O
ATOM     40   O  GCU B   3      19.429  19.595  36.2270  0.00  0.00     0.000 O
ATOM     42  HD  GCU B   3      19.793  18.886  36.5670  0.00  0.00     0.000 HD
ATOM     42   O  GCU B   3      21.953  20.920  36.7160  0.00  0.00     0.000 O
ATOM     44  HD  GCU B   3      22.316  20.211  37.0560  0.00  0.00     0.000 HD
BRANCH 38 44
ATOM     44   C  GCU B   3      19.375  25.093  37.4160  0.00  0.00     0.000 C
ATOM     45   O  GCU B   3      19.243  25.671  36.3260  0.00  0.00     0.000 OA
ATOM     46   O  GCU B   3      19.493  25.727  38.4820  0.00  0.00     0.000 OA
ENDBRANCH 38 44
BRANCH 34 47
ATOM     47  O3  NAG B   4      17.381  21.432  35.5450  0.00  0.00     0.000 O
BRANCH 47 50
ATOM     48  C1  NAG B   4      13.862  21.983  36.5780  0.00  0.00     0.000 C
ATOM     49  C2  NAG B   4      15.298  22.340  36.2070  0.00  0.00     0.000 C
ATOM     50  C3  NAG B   4      15.976  21.209  35.4510  0.00  0.00     0.000 C
ATOM     51  C4  NAG B   4      15.643  19.815  35.9960  0.00  0.00     0.000 C
ATOM     52  C5  NAG B   4      14.149  19.542  35.9370  0.00  0.00     0.000 C
ATOM     53  O5  NAG B   4      13.330  20.664  36.3340  0.00  0.00     0.000 O
BRANCH 49 56
ATOM     54   N  NAG B   4      15.039  23.181  35.0260  0.00  0.00     0.000 N
ATOM     56  HD  NAG B   4      14.791  22.896  34.2460  0.00  0.00     0.000 HD
ATOM     56   C  NAG B   4      14.894  25.174  33.6470  0.00  0.00     0.000 C
ATOM     57   O  NAG B   4      15.914  25.147  35.7590  0.00  0.00     0.000 OA
ATOM     58   C  NAG B   4      15.334  24.491  34.9060  0.00  0.00     0.000 C
ENDBRANCH 49 56
ATOM     59   O  NAG B   4      12.524  17.776  36.5130  0.00  0.00     0.000 O
ATOM     61  HD  NAG B   4      12.947  18.496  36.7410  0.00  0.00     0.000 HD
ATOM     61   O  NAG B   4      12.524  17.776  36.5130  0.00  0.00     0.000 O
ATOM     63  HD  NAG B   4      12.947  18.496  36.7410  0.00  0.00     0.000 HD
ENDBRANCH 47 50
ENDBRANCH 34 47
ENDBRANCH 33 37
ENDBRANCH 17 33
ENDBRANCH 16 19
ENDBRANCH 1 16
TORSDOF 10
ENDMDL
MODEL 60
REMARK VINA RESULT:      -2.2     17.780     22.504
ROOT
ATOM      1  C1  GCU B   1      27.583  29.383  27.8520  0.00  0.00     0.000 C
ATOM      2  C2  GCU B   1      28.559  30.195  28.6900  0.00  0.00     0.000 C
ATOM      3  C3  GCU B   1      29.979  30.018  28.1750  0.00  0.00     0.000 C
ATOM      4  C4  GCU B   1      30.310  28.539  28.0470  0.00  0.00     0.000 C
ATOM      5  C5  GCU B   1      29.239  27.803  27.2410  0.00  0.00     0.000 C
ATOM      6  O5  GCU B   1      27.963  27.997  27.8670  0.00  0.00     0.000 O
ATOM      7   O  GCU B   1      28.161  31.561  28.6130  0.00  0.00     0.000 O
ATOM      9  HD  GCU B   1      28.022  32.090  29.2840  0.00  0.00     0.000 HD
ATOM      9   O  GCU B   1      30.915  30.649  29.0510  0.00  0.00     0.000 O
ATOM     11  HD  GCU B   1      30.776  31.179  29.7220  0.00  0.00     0.000 HD
ATOM     11   O  GCU B   1      31.578  28.404  27.4030  0.00  0.00     0.000 O
ATOM     13  HD  GCU B   1      31.438  28.934  28.0740  0.00  0.00     0.000 HD
ENDROOT
BRANCH 5 13
ATOM     13   C  GCU B   1      29.601  26.342  27.1180  0.00  0.00     0.000 C
ATOM     14   O  GCU B   1      29.234  25.682  26.1250  0.00  0.00     0.000 OA
ATOM     15   O  GCU B   1      30.294  25.845  28.0260  0.00  0.00     0.000 OA
ENDBRANCH 5 13
BRANCH 1 16
ATOM     16  O3  NAG B   2      26.397  28.899  28.2260  0.00  0.00     0.000 O
BRANCH 16 19
ATOM     17  C1  NAG B   2      23.682  27.326  26.1320  0.00  0.00     0.000 C
ATOM     18  C2  NAG B   2      24.712  28.371  26.5420  0.00  0.00     0.000 C
ATOM     19  C3  NAG B   2      25.548  27.860  27.7140  0.00  0.00     0.000 C
ATOM     20  C4  NAG B   2      24.640  27.385  28.8480  0.00  0.00     0.000 C
ATOM     21  C5  NAG B   2      23.661  26.345  28.3230  0.00  0.00     0.000 C
ATOM     22  O5  NAG B   2      22.887  26.929  27.2600  0.00  0.00     0.000 O
ATOM     23   O  NAG B   2      25.463  26.845  29.8880  0.00  0.00     0.000 O
ATOM     25  HD  NAG B   2      25.043  27.583  30.0600  0.00  0.00     0.000 HD
ATOM     25   C  NAG B   2      22.729  25.812  29.4090  0.00  0.00     0.000 C
ATOM     26   O  NAG B   2      21.737  26.781  29.7800  0.00  0.00     0.000 O
ATOM     28  HD  NAG B   2      21.317  27.519  29.9510  0.00  0.00     0.000 HD
BRANCH 18 30
ATOM     28   N  NAG B   2      25.199  28.656  25.2050  0.00  0.00     0.000 N
ATOM     30  HD  NAG B   2      25.228  29.429  25.5950  0.00  0.00     0.000 HD
ATOM     30   C  NAG B   2      25.462  29.889  24.7540  0.00  0.00     0.000 C
ATOM     31   C  NAG B   2      25.918  30.026  23.3280  0.00  0.00     0.000 C
ATOM     32   O  NAG B   2      25.338  30.869  25.4600  0.00  0.00     0.000 OA
ENDBRANCH 18 30
BRANCH 17 33
ATOM     33  O4  GCU B   3      22.905  27.880  25.0510  0.00  0.00     0.000 O
BRANCH 33 37
ATOM     34  C1  GCU B   3      20.431  26.029  22.2620  0.00  0.00     0.000 C
ATOM     35  C2  GCU B   3      19.815  26.425  23.6040  0.00  0.00     0.000 C
ATOM     36  C3  GCU B   3      20.708  27.435  24.2930  0.00  0.00     0.000 C
ATOM     37  C4  GCU B   3      22.117  26.872  24.4160  0.00  0.00     0.000 C
ATOM     38  C5  GCU B   3      22.649  26.508  23.0290  0.00  0.00     0.000 C
ATOM     39  O5  GCU B   3      21.766  25.548  22.4400  0.00  0.00     0.000 O
ATOM     40   O  GCU B   3      18.521  26.986  23.3730  0.00  0.00     0.000 O
ATOM     42  HD  GCU B   3      18.027  27.670  23.5660  0.00  0.00     0.000 HD
ATOM     42   O  GCU B   3      20.196  27.777  25.5930  0.00  0.00     0.000 O
ATOM     44  HD  GCU B   3      19.702  28.462  25.7870  0.00  0.00     0.000 HD
BRANCH 38 44
ATOM     44   C  GCU B   3      24.036  25.918  23.0740  0.00  0.00     0.000 C
ATOM     45   O  GCU B   3      24.999  26.641  22.7770  0.00  0.00     0.000 OA
ATOM     46   O  GCU B   3      24.191  24.728  23.4090  0.00  0.00     0.000 OA
ENDBRANCH 38 44
BRANCH 34 47
ATOM     47  O3  NAG B   4      19.755  25.001  21.7680  0.00  0.00     0.000 O
BRANCH 47 50
ATOM     48  C1  NAG B   4      18.108  21.693  22.0860  0.00  0.00     0.000 C
ATOM     49  C2  NAG B   4      18.360  23.100  21.5550  0.00  0.00     0.000 C
ATOM     50  C3  NAG B   4      19.763  23.580  21.8910  0.00  0.00     0.000 C
ATOM     51  C4  NAG B   4      20.227  23.193  23.3000  0.00  0.00     0.000 C
ATOM     52  C5  NAG B   4      20.228  21.684  23.4840  0.00  0.00     0.000 C
ATOM     53  O5  NAG B   4      19.076  21.020  22.9190  0.00  0.00     0.000 O
BRANCH 49 56
ATOM     54   N  NAG B   4      18.449  23.244  20.0910  0.00  0.00     0.000 N
ATOM     56  HD  NAG B   4      18.641  23.973  19.6650  0.00  0.00     0.000 HD
ATOM     56   C  NAG B   4      18.330  22.647  17.7410  0.00  0.00     0.000 C
ATOM     57   O  NAG B   4      17.518  21.269  19.4570  0.00  0.00     0.000 OA
ATOM     58   C  NAG B   4      18.057  22.331  19.1800  0.00  0.00     0.000 C
ENDBRANCH 49 56
ATOM     59   O  NAG B   4      20.723  19.988  25.2090  0.00  0.00     0.000 O
ATOM     61  HD  NAG B   4      20.144  20.498  24.8150  0.00  0.00     0.000 HD
ATOM     61   O  NAG B   4      20.723  19.988  25.2090  0.00  0.00     0.000 O
ATOM     63  HD  NAG B   4      20.144  20.498  24.8150  0.00  0.00     0.000 HD
ENDBRANCH 47 50
ENDBRANCH 34 47
ENDBRANCH 33 37
ENDBRANCH 17 33
ENDBRANCH 16 19
ENDBRANCH 1 16
TORSDOF 10
ENDMDL
MODEL 61
REMARK VINA RESULT:      -2.0     20.613     25.313
ROOT
ATOM      1  C1  GCU B   1      27.652  28.947  28.9460  0.00  0.00     0.000 C
ATOM      2  C2  GCU B   1      28.627  30.023  28.4950  0.00  0.00     0.000 C
ATOM      3  C3  GCU B   1      30.054  29.623  28.8340  0.00  0.00     0.000 C
ATOM      4  C4  GCU B   1      30.156  29.231  30.3000  0.00  0.00     0.000 C
ATOM      5  C5  GCU B   1      29.095  28.191  30.6650  0.00  0.00     0.000 C
ATOM      6  O5  GCU B   1      27.797  28.716  30.3570  0.00  0.00     0.000 O
ATOM      7   O  GCU B   1      28.469  30.187  27.0890  0.00  0.00     0.000 O
ATOM      9  HD  GCU B   1      28.330  30.935  26.6740  0.00  0.00     0.000 HD
ATOM      9   O  GCU B   1      30.958  30.697  28.5570  0.00  0.00     0.000 O
ATOM     11  HD  GCU B   1      30.818  31.444  28.1420  0.00  0.00     0.000 HD
ATOM     11   O  GCU B   1      31.458  28.699  30.5460  0.00  0.00     0.000 O
ATOM     13  HD  GCU B   1      31.319  29.447  30.1310  0.00  0.00     0.000 HD
ENDROOT
BRANCH 5 13
ATOM     13   C  GCU B   1      29.229  27.810  32.1200  0.00  0.00     0.000 C
ATOM     14   O  GCU B   1      29.805  28.574  32.9220  0.00  0.00     0.000 OA
ATOM     15   O  GCU B   1      28.720  26.731  32.4800  0.00  0.00     0.000 OA
ENDBRANCH 5 13
BRANCH 1 16
ATOM     16  O3  NAG B   2      26.364  29.097  29.2630  0.00  0.00     0.000 O
BRANCH 16 19
ATOM     17  C1  NAG B   2      23.754  26.442  29.8670  0.00  0.00     0.000 C
ATOM     18  C2  NAG B   2      24.881  27.163  29.1390  0.00  0.00     0.000 C
ATOM     19  C3  NAG B   2      25.429  28.297  30.0040  0.00  0.00     0.000 C
ATOM     20  C4  NAG B   2      24.293  29.205  30.4730  0.00  0.00     0.000 C
ATOM     21  C5  NAG B   2      23.233  28.379  31.1860  0.00  0.00     0.000 C
ATOM     22  O5  NAG B   2      22.742  27.372  30.2830  0.00  0.00     0.000 O
ATOM     23   O  NAG B   2      24.842  30.204  31.3390  0.00  0.00     0.000 O
ATOM     25  HD  NAG B   2      24.540  30.470  30.5730  0.00  0.00     0.000 HD
ATOM     25   C  NAG B   2      22.070  29.225  31.6980  0.00  0.00     0.000 C
ATOM     26   O  NAG B   2      21.222  29.667  30.6260  0.00  0.00     0.000 O
ATOM     28  HD  NAG B   2      20.920  29.932  29.8600  0.00  0.00     0.000 HD
BRANCH 18 30
ATOM     28   N  NAG B   2      25.599  25.970  28.7310  0.00  0.00     0.000 N
ATOM     30  HD  NAG B   2      25.714  26.508  28.0620  0.00  0.00     0.000 HD
ATOM     30   C  NAG B   2      26.147  25.807  27.5210  0.00  0.00     0.000 C
ATOM     31   C  NAG B   2      26.820  24.494  27.2320  0.00  0.00     0.000 C
ATOM     32   O  NAG B   2      26.106  26.679  26.6760  0.00  0.00     0.000 OA
ENDBRANCH 18 30
BRANCH 17 33
ATOM     33  O4  GCU B   3      23.258  25.411  28.9890  0.00  0.00     0.000 O
BRANCH 33 37
ATOM     34  C1  GCU B   3      20.985  22.021  29.8100  0.00  0.00     0.000 C
ATOM     35  C2  GCU B   3      20.238  23.319  29.4990  0.00  0.00     0.000 C
ATOM     36  C3  GCU B   3      21.177  24.295  28.8240  0.00  0.00     0.000 C
ATOM     37  C4  GCU B   3      22.410  24.501  29.6920  0.00  0.00     0.000 C
ATOM     38  C5  GCU B   3      23.091  23.155  29.9480  0.00  0.00     0.000 C
ATOM     39  O5  GCU B   3      22.153  22.286  30.5920  0.00  0.00     0.000 O
ATOM     40   O  GCU B   3      19.133  23.023  28.6420  0.00  0.00     0.000 O
ATOM     42  HD  GCU B   3      18.753  23.271  27.9040  0.00  0.00     0.000 HD
ATOM     42   O  GCU B   3      20.527  25.556  28.5820  0.00  0.00     0.000 O
ATOM     44  HD  GCU B   3      20.147  25.804  27.8440  0.00  0.00     0.000 HD
BRANCH 38 44
ATOM     44   C  GCU B   3      24.311  23.277  30.8250  0.00  0.00     0.000 C
ATOM     45   O  GCU B   3      25.427  23.333  30.2860  0.00  0.00     0.000 OA
ATOM     46   O  GCU B   3      24.180  23.322  32.0630  0.00  0.00     0.000 OA
ENDBRANCH 38 44
BRANCH 34 47
ATOM     47  O3  NAG B   4      20.218  21.261  30.5790  0.00  0.00     0.000 O
BRANCH 47 50
ATOM     48  C1  NAG B   4      19.550  19.345  33.6830  0.00  0.00     0.000 C
ATOM     49  C2  NAG B   4      20.255  19.736  32.3890  0.00  0.00     0.000 C
ATOM     50  C3  NAG B   4      19.897  21.151  31.9640  0.00  0.00     0.000 C
ATOM     51  C4  NAG B   4      18.419  21.503  32.1740  0.00  0.00     0.000 C
ATOM     52  C5  NAG B   4      18.025  21.376  33.6360  0.00  0.00     0.000 C
ATOM     53  O5  NAG B   4      18.568  20.209  34.2940  0.00  0.00     0.000 O
BRANCH 49 56
ATOM     54   N  NAG B   4      21.561  19.968  33.0310  0.00  0.00     0.000 N
ATOM     56  HD  NAG B   4      21.698  20.447  33.7400  0.00  0.00     0.000 HD
ATOM     56   C  NAG B   4      23.960  19.886  33.3880  0.00  0.00     0.000 C
ATOM     57   O  NAG B   4      22.932  19.158  31.4090  0.00  0.00     0.000 OA
ATOM     58   C  NAG B   4      22.765  19.645  32.5180  0.00  0.00     0.000 C
ENDBRANCH 49 56
ATOM     59   O  NAG B   4      16.050  21.638  35.0940  0.00  0.00     0.000 O
ATOM     61  HD  NAG B   4      16.549  21.124  34.6080  0.00  0.00     0.000 HD
ATOM     61   O  NAG B   4      16.050  21.638  35.0940  0.00  0.00     0.000 O
ATOM     63  HD  NAG B   4      16.549  21.124  34.6080  0.00  0.00     0.000 HD
ENDBRANCH 47 50
ENDBRANCH 34 47
ENDBRANCH 33 37
ENDBRANCH 17 33
ENDBRANCH 16 19
ENDBRANCH 1 16
TORSDOF 10
ENDMDL
MODEL 62
REMARK VINA RESULT:      -1.9     20.486     25.781
ROOT
ATOM      1  C1  GCU B   1      32.183  30.427  29.5050  0.00  0.00     0.000 C
ATOM      2  C2  GCU B   1      32.712  31.767  29.0160  0.00  0.00     0.000 C
ATOM      3  C3  GCU B   1      34.053  31.588  28.3220  0.00  0.00     0.000 C
ATOM      4  C4  GCU B   1      35.004  30.800  29.2110  0.00  0.00     0.000 C
ATOM      5  C5  GCU B   1      34.355  29.503  29.6970  0.00  0.00     0.000 C
ATOM      6  O5  GCU B   1      33.138  29.817  30.3870  0.00  0.00     0.000 O
ATOM      7   O  GCU B   1      31.749  32.311  28.1190  0.00  0.00     0.000 O
ATOM      9  HD  GCU B   1      31.401  33.103  28.1630  0.00  0.00     0.000 HD
ATOM      9   O  GCU B   1      34.629  32.857  28.0030  0.00  0.00     0.000 O
ATOM     11  HD  GCU B   1      34.281  33.649  28.0460  0.00  0.00     0.000 HD
ATOM     11   O  GCU B   1      36.187  30.501  28.4700  0.00  0.00     0.000 O
ATOM     13  HD  GCU B   1      35.839  31.293  28.5130  0.00  0.00     0.000 HD
ENDROOT
BRANCH 5 13
ATOM     13   C  GCU B   1      35.325  28.737  30.5640  0.00  0.00     0.000 C
ATOM     14   O  GCU B   1      36.319  28.177  30.0570  0.00  0.00     0.000 OA
ATOM     15   O  GCU B   1      35.105  28.716  31.7900  0.00  0.00     0.000 OA
ENDBRANCH 5 13
BRANCH 1 16
ATOM     16  O3  NAG B   2      31.341  30.205  30.5160  0.00  0.00     0.000 O
BRANCH 16 19
ATOM     17  C1  NAG B   2      27.994  28.466  30.4950  0.00  0.00     0.000 C
ATOM     18  C2  NAG B   2      29.068  29.450  30.0490  0.00  0.00     0.000 C
ATOM     19  C3  NAG B   2      30.376  29.178  30.7900  0.00  0.00     0.000 C
ATOM     20  C4  NAG B   2      30.135  29.142  32.2990  0.00  0.00     0.000 C
ATOM     21  C5  NAG B   2      29.049  28.126  32.6240  0.00  0.00     0.000 C
ATOM     22  O5  NAG B   2      27.846  28.490  31.9240  0.00  0.00     0.000 O
ATOM     23   O  NAG B   2      31.368  28.808  32.9450  0.00  0.00     0.000 O
ATOM     25  HD  NAG B   2      31.064  29.610  33.0650  0.00  0.00     0.000 HD
ATOM     25   C  NAG B   2      28.765  28.024  34.1210  0.00  0.00     0.000 C
ATOM     26   O  NAG B   2      28.049  29.171  34.6050  0.00  0.00     0.000 O
ATOM     28  HD  NAG B   2      27.745  29.973  34.7240  0.00  0.00     0.000 HD
BRANCH 18 30
ATOM     28   N  NAG B   2      28.883  29.297  28.6180  0.00  0.00     0.000 N
ATOM     30  HD  NAG B   2      29.031  30.146  28.7090  0.00  0.00     0.000 HD
ATOM     30   C  NAG B   2      28.832  30.323  27.7590  0.00  0.00     0.000 C
ATOM     31   C  NAG B   2      28.589  30.006  26.3100  0.00  0.00     0.000 C
ATOM     32   O  NAG B   2      28.972  31.473  28.1250  0.00  0.00     0.000 OA
ENDBRANCH 18 30
BRANCH 17 33
ATOM     33  O4  GCU B   3      26.780  28.797  29.7890  0.00  0.00     0.000 O
BRANCH 33 37
ATOM     34  C1  GCU B   3      23.390  26.507  29.0190  0.00  0.00     0.000 C
ATOM     35  C2  GCU B   3      23.425  27.308  30.3210  0.00  0.00     0.000 C
ATOM     36  C3  GCU B   3      24.494  28.376  30.2310  0.00  0.00     0.000 C
ATOM     37  C4  GCU B   3      25.829  27.735  29.8790  0.00  0.00     0.000 C
ATOM     38  C5  GCU B   3      25.698  26.961  28.5670  0.00  0.00     0.000 C
ATOM     39  O5  GCU B   3      24.681  25.966  28.7230  0.00  0.00     0.000 O
ATOM     40   O  GCU B   3      22.144  27.907  30.5300  0.00  0.00     0.000 O
ATOM     42  HD  GCU B   3      21.764  28.662  30.7170  0.00  0.00     0.000 HD
ATOM     42   O  GCU B   3      24.604  29.104  31.4670  0.00  0.00     0.000 O
ATOM     44  HD  GCU B   3      24.223  29.860  31.6530  0.00  0.00     0.000 HD
BRANCH 38 44
ATOM     44   C  GCU B   3      26.980  26.274  28.1660  0.00  0.00     0.000 C
ATOM     45   O  GCU B   3      27.622  26.729  27.2070  0.00  0.00     0.000 OA
ATOM     46   O  GCU B   3      27.371  25.276  28.8010  0.00  0.00     0.000 OA
ENDBRANCH 38 44
BRANCH 34 47
ATOM     47  O3  NAG B   4      22.602  25.454  29.1860  0.00  0.00     0.000 O
BRANCH 47 50
ATOM     48  C1  NAG B   4      19.237  24.142  28.3440  0.00  0.00     0.000 C
ATOM     49  C2  NAG B   4      20.295  25.165  28.7440  0.00  0.00     0.000 C
ATOM     50  C3  NAG B   4      21.695  24.684  28.4000  0.00  0.00     0.000 C
ATOM     51  C4  NAG B   4      21.921  23.192  28.6760  0.00  0.00     0.000 C
ATOM     52  C5  NAG B   4      20.957  22.332  27.8760  0.00  0.00     0.000 C
ATOM     53  O5  NAG B   4      19.605  22.841  27.8380  0.00  0.00     0.000 O
BRANCH 49 56
ATOM     54   N  NAG B   4      20.078  26.070  27.6020  0.00  0.00     0.000 N
ATOM     56  HD  NAG B   4      20.144  25.854  26.7660  0.00  0.00     0.000 HD
ATOM     56   C  NAG B   4      19.631  28.123  26.3880  0.00  0.00     0.000 C
ATOM     57   O  NAG B   4      20.034  28.061  28.6970  0.00  0.00     0.000 OA
ATOM     58   C  NAG B   4      19.941  27.409  27.6680  0.00  0.00     0.000 C
ENDBRANCH 49 56
ATOM     59   O  NAG B   4      20.383  19.956  27.5270  0.00  0.00     0.000 O
ATOM     61  HD  NAG B   4      20.242  20.698  27.9510  0.00  0.00     0.000 HD
ATOM     61   O  NAG B   4      20.383  19.956  27.5270  0.00  0.00     0.000 O
ATOM     63  HD  NAG B   4      20.242  20.698  27.9510  0.00  0.00     0.000 HD
ENDBRANCH 47 50
ENDBRANCH 34 47
ENDBRANCH 33 37
ENDBRANCH 17 33
ENDBRANCH 16 19
ENDBRANCH 1 16
TORSDOF 10
ENDMDL
MODEL 63
REMARK VINA RESULT:      -1.9     15.266     20.020
ROOT
ATOM      1  C1  GCU B   1      27.985  30.126  28.8920  0.00  0.00     0.000 C
ATOM      2  C2  GCU B   1      29.359  30.366  28.2850  0.00  0.00     0.000 C
ATOM      3  C3  GCU B   1      30.239  29.138  28.4620  0.00  0.00     0.000 C
ATOM      4  C4  GCU B   1      30.241  28.697  29.9180  0.00  0.00     0.000 C
ATOM      5  C5  GCU B   1      28.814  28.545  30.4470  0.00  0.00     0.000 C
ATOM      6  O5  GCU B   1      28.116  29.786  30.2810  0.00  0.00     0.000 O
ATOM      7   O  GCU B   1      29.177  30.661  26.9040  0.00  0.00     0.000 O
ATOM      9  HD  GCU B   1      29.495  31.348  26.4830  0.00  0.00     0.000 HD
ATOM      9   O  GCU B   1      31.577  29.412  28.0380  0.00  0.00     0.000 O
ATOM     11  HD  GCU B   1      31.895  30.099  27.6170  0.00  0.00     0.000 HD
ATOM     11   O  GCU B   1      30.931  27.452  30.0220  0.00  0.00     0.000 O
ATOM     13  HD  GCU B   1      31.249  28.138  29.6010  0.00  0.00     0.000 HD
ENDROOT
BRANCH 5 13
ATOM     13   C  GCU B   1      28.846  28.094  31.8880  0.00  0.00     0.000 C
ATOM     14   O  GCU B   1      29.038  26.893  32.1700  0.00  0.00     0.000 OA
ATOM     15   O  GCU B   1      28.704  28.967  32.7660  0.00  0.00     0.000 OA
ENDBRANCH 5 13
BRANCH 1 16
ATOM     16  O3  NAG B   2      27.131  31.040  29.3570  0.00  0.00     0.000 O
BRANCH 16 19
ATOM     17  C1  NAG B   2      23.537  31.617  28.3670  0.00  0.00     0.000 C
ATOM     18  C2  NAG B   2      25.030  31.393  28.1660  0.00  0.00     0.000 C
ATOM     19  C3  NAG B   2      25.702  31.074  29.5000  0.00  0.00     0.000 C
ATOM     20  C4  NAG B   2      25.354  32.139  30.5400  0.00  0.00     0.000 C
ATOM     21  C5  NAG B   2      23.842  32.270  30.6570  0.00  0.00     0.000 C
ATOM     22  O5  NAG B   2      23.304  32.620  29.3690  0.00  0.00     0.000 O
ATOM     23   O  NAG B   2      25.939  31.758  31.7900  0.00  0.00     0.000 O
ATOM     25  HD  NAG B   2      26.265  32.458  31.3990  0.00  0.00     0.000 HD
ATOM     25   C  NAG B   2      23.418  33.309  31.6930  0.00  0.00     0.000 C
ATOM     26   O  NAG B   2      23.652  34.648  31.2280  0.00  0.00     0.000 O
ATOM     28  HD  NAG B   2      23.978  35.348  30.8370  0.00  0.00     0.000 HD
BRANCH 18 30
ATOM     28   N  NAG B   2      24.917  30.492  27.0350  0.00  0.00     0.000 N
ATOM     30  HD  NAG B   2      25.623  30.956  26.8480  0.00  0.00     0.000 HD
ATOM     30   C  NAG B   2      25.696  30.556  25.9490  0.00  0.00     0.000 C
ATOM     31   C  NAG B   2      25.425  29.579  24.8390  0.00  0.00     0.000 C
ATOM     32   O  NAG B   2      26.591  31.371  25.8490  0.00  0.00     0.000 OA
ENDBRANCH 18 30
BRANCH 17 33
ATOM     33  O4  GCU B   3      22.970  31.948  27.0830  0.00  0.00     0.000 O
BRANCH 33 37
ATOM     34  C1  GCU B   3      19.020  31.882  25.7680  0.00  0.00     0.000 C
ATOM     35  C2  GCU B   3      19.521  33.158  26.4460  0.00  0.00     0.000 C
ATOM     36  C3  GCU B   3      21.035  33.162  26.4620  0.00  0.00     0.000 C
ATOM     37  C4  GCU B   3      21.543  31.887  27.1220  0.00  0.00     0.000 C
ATOM     38  C5  GCU B   3      20.994  30.669  26.3770  0.00  0.00     0.000 C
ATOM     39  O5  GCU B   3      19.564  30.723  26.4060  0.00  0.00     0.000 O
ATOM     40   O  GCU B   3      19.032  34.289  25.7230  0.00  0.00     0.000 O
ATOM     42  HD  GCU B   3      19.287  35.035  25.3630  0.00  0.00     0.000 HD
ATOM     42   O  GCU B   3      21.542  34.315  27.1580  0.00  0.00     0.000 O
ATOM     44  HD  GCU B   3      21.797  35.060  26.7990  0.00  0.00     0.000 HD
BRANCH 38 44
ATOM     44   C  GCU B   3      21.436  29.364  26.9910  0.00  0.00     0.000 C
ATOM     45   O  GCU B   3      20.842  28.951  27.9980  0.00  0.00     0.000 OA
ATOM     46   O  GCU B   3      22.377  28.728  26.4790  0.00  0.00     0.000 OA
ENDBRANCH 38 44
BRANCH 34 47
ATOM     47  O3  NAG B   4      17.710  31.792  25.9430  0.00  0.00     0.000 O
BRANCH 47 50
ATOM     48  C1  NAG B   4      15.342  29.600  24.1140  0.00  0.00     0.000 C
ATOM     49  C2  NAG B   4      16.237  30.071  25.2560  0.00  0.00     0.000 C
ATOM     50  C3  NAG B   4      16.555  31.553  25.1400  0.00  0.00     0.000 C
ATOM     51  C4  NAG B   4      16.829  32.015  23.7040  0.00  0.00     0.000 C
ATOM     52  C5  NAG B   4      15.632  31.756  22.8040  0.00  0.00     0.000 C
ATOM     53  O5  NAG B   4      14.999  30.475  23.0190  0.00  0.00     0.000 O
BRANCH 49 56
ATOM     54   N  NAG B   4      15.147  30.088  26.2460  0.00  0.00     0.000 N
ATOM     56  HD  NAG B   4      14.360  30.429  26.1270  0.00  0.00     0.000 HD
ATOM     56   C  NAG B   4      13.992  29.756  28.3560  0.00  0.00     0.000 C
ATOM     57   O  NAG B   4      16.303  29.452  28.0970  0.00  0.00     0.000 OA
ATOM     58   C  NAG B   4      15.255  29.760  27.5500  0.00  0.00     0.000 C
ENDBRANCH 49 56
ATOM     59   O  NAG B   4      14.938  32.031  20.4510  0.00  0.00     0.000 O
ATOM     61  HD  NAG B   4      15.286  31.533  21.0670  0.00  0.00     0.000 HD
ATOM     61   O  NAG B   4      14.938  32.031  20.4510  0.00  0.00     0.000 O
ATOM     63  HD  NAG B   4      15.286  31.533  21.0670  0.00  0.00     0.000 HD
ENDBRANCH 47 50
ENDBRANCH 34 47
ENDBRANCH 33 37
ENDBRANCH 17 33
ENDBRANCH 16 19
ENDBRANCH 1 16
TORSDOF 10
ENDMDL
MODEL 64
REMARK VINA RESULT:      -1.7     18.645     25.223
ROOT
ATOM      1  C1  GCU B   1      37.102  40.204  16.6350  0.00  0.00     0.000 C
ATOM      2  C2  GCU B   1      38.595  40.315  16.9070  0.00  0.00     0.000 C
ATOM      3  C3  GCU B   1      38.986  39.441  18.0890  0.00  0.00     0.000 C
ATOM      4  C4  GCU B   1      38.087  39.734  19.2800  0.00  0.00     0.000 C
ATOM      5  C5  GCU B   1      36.611  39.656  18.8860  0.00  0.00     0.000 C
ATOM      6  O5  GCU B   1      36.363  40.572  17.8110  0.00  0.00     0.000 O
ATOM      7   O  GCU B   1      39.281  39.906  15.7280  0.00  0.00     0.000 O
ATOM      9  HD  GCU B   1      39.897  40.353  15.3140  0.00  0.00     0.000 HD
ATOM      9   O  GCU B   1      40.352  39.662  18.4480  0.00  0.00     0.000 O
ATOM     11  HD  GCU B   1      40.968  40.109  18.0340  0.00  0.00     0.000 HD
ATOM     11   O  GCU B   1      38.363  38.785  20.3110  0.00  0.00     0.000 O
ATOM     13  HD  GCU B   1      38.979  39.232  19.8970  0.00  0.00     0.000 HD
ENDROOT
BRANCH 5 13
ATOM     13   C  GCU B   1      35.743  39.938  20.0900  0.00  0.00     0.000 C
ATOM     14   O  GCU B   1      34.623  39.398  20.2000  0.00  0.00     0.000 OA
ATOM     15   O  GCU B   1      36.203  40.697  20.9640  0.00  0.00     0.000 OA
ENDBRANCH 5 13
BRANCH 1 16
ATOM     16  O3  NAG B   2      36.314  41.106  16.0470  0.00  0.00     0.000 O
BRANCH 16 19
ATOM     17  C1  NAG B   2      32.789  40.739  14.7560  0.00  0.00     0.000 C
ATOM     18  C2  NAG B   2      34.263  40.398  14.9320  0.00  0.00     0.000 C
ATOM     19  C3  NAG B   2      34.890  41.291  16.0000  0.00  0.00     0.000 C
ATOM     20  C4  NAG B   2      34.612  42.763  15.6930  0.00  0.00     0.000 C
ATOM     21  C5  NAG B   2      33.114  42.984  15.5440  0.00  0.00     0.000 C
ATOM     22  O5  NAG B   2      32.622  42.141  14.4870  0.00  0.00     0.000 O
ATOM     23   O  NAG B   2      35.150  43.555  16.7580  0.00  0.00     0.000 O
ATOM     25  HD  NAG B   2      35.534  43.620  15.9840  0.00  0.00     0.000 HD
ATOM     25   C  NAG B   2      32.758  44.440  15.2510  0.00  0.00     0.000 C
ATOM     26   O  NAG B   2      33.101  44.810  13.9070  0.00  0.00     0.000 O
ATOM     28  HD  NAG B   2      33.486  44.875  13.1330  0.00  0.00     0.000 HD
BRANCH 18 30
ATOM     28   N  NAG B   2      34.081  38.960  15.0020  0.00  0.00     0.000 N
ATOM     30  HD  NAG B   2      34.838  39.043  14.5900  0.00  0.00     0.000 HD
ATOM     30   C  NAG B   2      34.890  38.076  14.4050  0.00  0.00     0.000 C
ATOM     31   C  NAG B   2      34.543  36.619  14.5320  0.00  0.00     0.000 C
ATOM     32   O  NAG B   2      35.870  38.425  13.7780  0.00  0.00     0.000 OA
ENDBRANCH 18 30
BRANCH 17 33
ATOM     33  O4  GCU B   3      32.265  39.891  13.7150  0.00  0.00     0.000 O
BRANCH 33 37
ATOM     34  C1  GCU B   3      28.342  38.907  12.7300  0.00  0.00     0.000 C
ATOM     35  C2  GCU B   3      28.925  40.187  12.1290  0.00  0.00     0.000 C
ATOM     36  C3  GCU B   3      30.435  40.156  12.2380  0.00  0.00     0.000 C
ATOM     37  C4  GCU B   3      30.837  39.931  13.6890  0.00  0.00     0.000 C
ATOM     38  C5  GCU B   3      30.212  38.632  14.2010  0.00  0.00     0.000 C
ATOM     39  O5  GCU B   3      28.789  38.731  14.0770  0.00  0.00     0.000 O
ATOM     40   O  GCU B   3      28.531  40.276  10.7580  0.00  0.00     0.000 O
ATOM     42  HD  GCU B   3      28.845  40.412   9.9620  0.00  0.00     0.000 HD
ATOM     42   O  GCU B   3      31.014  41.378  11.7470  0.00  0.00     0.000 O
ATOM     44  HD  GCU B   3      31.329  41.513  10.9520  0.00  0.00     0.000 HD
BRANCH 38 44
ATOM     44   C  GCU B   3      30.547  38.354  15.6450  0.00  0.00     0.000 C
ATOM     45   O  GCU B   3      31.470  37.564  15.8990  0.00  0.00     0.000 OA
ATOM     46   O  GCU B   3      29.902  38.919  16.5490  0.00  0.00     0.000 OA
ENDBRANCH 38 44
BRANCH 34 47
ATOM     47  O3  NAG B   4      27.025  39.037  12.8150  0.00  0.00     0.000 O
BRANCH 47 50
ATOM     48  C1  NAG B   4      25.320  36.967  10.2530  0.00  0.00     0.000 C
ATOM     49  C2  NAG B   4      26.349  37.333  11.3180  0.00  0.00     0.000 C
ATOM     50  C3  NAG B   4      25.871  38.489  12.1820  0.00  0.00     0.000 C
ATOM     51  C4  NAG B   4      25.150  39.590  11.3960  0.00  0.00     0.000 C
ATOM     52  C5  NAG B   4      23.924  39.044  10.6820  0.00  0.00     0.000 C
ATOM     53  O5  NAG B   4      24.129  37.757  10.0590  0.00  0.00     0.000 O
BRANCH 49 56
ATOM     54   N  NAG B   4      26.043  36.247  12.2660  0.00  0.00     0.000 N
ATOM     56  HD  NAG B   4      25.299  36.148  12.6990  0.00  0.00     0.000 HD
ATOM     56   C  NAG B   4      26.375  34.274  13.6410  0.00  0.00     0.000 C
ATOM     57   O  NAG B   4      28.123  35.370  12.5270  0.00  0.00     0.000 OA
ATOM     58   C  NAG B   4      26.924  35.357  12.7630  0.00  0.00     0.000 C
ENDBRANCH 49 56
ATOM     59   O  NAG B   4      22.106  39.802   9.1930  0.00  0.00     0.000 O
ATOM     61  HD  NAG B   4      22.895  39.456   9.2830  0.00  0.00     0.000 HD
ATOM     61   O  NAG B   4      22.106  39.802   9.1930  0.00  0.00     0.000 O
ATOM     63  HD  NAG B   4      22.895  39.456   9.2830  0.00  0.00     0.000 HD
ENDBRANCH 47 50
ENDBRANCH 34 47
ENDBRANCH 33 37
ENDBRANCH 17 33
ENDBRANCH 16 19
ENDBRANCH 1 16
TORSDOF 10
ENDMDL
MODEL 65
REMARK VINA RESULT:      -1.7     14.179     21.383
ROOT
ATOM      1  C1  GCU B   1      24.796  56.089  15.1360  0.00  0.00     0.000 C
ATOM      2  C2  GCU B   1      24.803  57.582  14.8440  0.00  0.00     0.000 C
ATOM      3  C3  GCU B   1      26.230  58.089  14.7050  0.00  0.00     0.000 C
ATOM      4  C4  GCU B   1      27.060  57.659  15.9050  0.00  0.00     0.000 C
ATOM      5  C5  GCU B   1      26.936  56.154  16.1480  0.00  0.00     0.000 C
ATOM      6  O5  GCU B   1      25.553  55.819  16.3260  0.00  0.00     0.000 O
ATOM      7   O  GCU B   1      24.074  57.791  13.6390  0.00  0.00     0.000 O
ATOM      9  HD  GCU B   1      23.419  58.346  13.5290  0.00  0.00     0.000 HD
ATOM      9   O  GCU B   1      26.250  59.514  14.5900  0.00  0.00     0.000 O
ATOM     11  HD  GCU B   1      25.594  60.069  14.4800  0.00  0.00     0.000 HD
ATOM     11   O  GCU B   1      28.427  57.998  15.6670  0.00  0.00     0.000 O
ATOM     13  HD  GCU B   1      27.771  58.554  15.5560  0.00  0.00     0.000 HD
ENDROOT
BRANCH 5 13
ATOM     13   C  GCU B   1      27.780  55.753  17.3350  0.00  0.00     0.000 C
ATOM     14   O  GCU B   1      27.280  55.705  18.4770  0.00  0.00     0.000 OA
ATOM     15   O  GCU B   1      28.969  55.452  17.1170  0.00  0.00     0.000 OA
ENDBRANCH 5 13
BRANCH 1 16
ATOM     16  O3  NAG B   2      23.851  55.388  15.7660  0.00  0.00     0.000 O
BRANCH 16 19
ATOM     17  C1  NAG B   2      21.885  52.407  14.5500  0.00  0.00     0.000 C
ATOM     18  C2  NAG B   2      22.483  53.807  14.5070  0.00  0.00     0.000 C
ATOM     19  C3  NAG B   2      23.423  54.019  15.6930  0.00  0.00     0.000 C
ATOM     20  C4  NAG B   2      22.714  53.672  17.0020  0.00  0.00     0.000 C
ATOM     21  C5  NAG B   2      22.164  52.255  16.9300  0.00  0.00     0.000 C
ATOM     22  O5  NAG B   2      21.255  52.164  15.8180  0.00  0.00     0.000 O
ATOM     23   O  NAG B   2      23.654  53.810  18.0730  0.00  0.00     0.000 O
ATOM     25  HD  NAG B   2      23.002  54.379  18.0440  0.00  0.00     0.000 HD
ATOM     25   C  NAG B   2      21.454  51.831  18.2140  0.00  0.00     0.000 C
ATOM     26   O  NAG B   2      20.181  52.481  18.3560  0.00  0.00     0.000 O
ATOM     28  HD  NAG B   2      19.529  53.051  18.3260  0.00  0.00     0.000 HD
BRANCH 18 30
ATOM     28   N  NAG B   2      22.880  53.786  13.1120  0.00  0.00     0.000 N
ATOM     30  HD  NAG B   2      22.614  54.602  13.2290  0.00  0.00     0.000 HD
ATOM     30   C  NAG B   2      22.695  54.808  12.2680  0.00  0.00     0.000 C
ATOM     31   C  NAG B   2      23.119  54.617  10.8380  0.00  0.00     0.000 C
ATOM     32   O  NAG B   2      22.201  55.857  12.6300  0.00  0.00     0.000 OA
ENDBRANCH 18 30
BRANCH 17 33
ATOM     33  O4  GCU B   3      20.985  52.283  13.4310  0.00  0.00     0.000 O
BRANCH 33 37
ATOM     34  C1  GCU B   3      19.532  48.893  11.5000  0.00  0.00     0.000 C
ATOM     35  C2  GCU B   3      18.722  49.443  12.6750  0.00  0.00     0.000 C
ATOM     36  C3  GCU B   3      19.147  50.867  12.9620  0.00  0.00     0.000 C
ATOM     37  C4  GCU B   3      20.652  50.915  13.1890  0.00  0.00     0.000 C
ATOM     38  C5  GCU B   3      21.376  50.349  11.9660  0.00  0.00     0.000 C
ATOM     39  O5  GCU B   3      20.935  49.004  11.7570  0.00  0.00     0.000 O
ATOM     40   O  GCU B   3      17.333  49.400  12.3400  0.00  0.00     0.000 O
ATOM     42  HD  GCU B   3      16.616  49.885  12.3290  0.00  0.00     0.000 HD
ATOM     42   O  GCU B   3      18.456  51.393  14.1090  0.00  0.00     0.000 O
ATOM     44  HD  GCU B   3      17.739  51.878  14.0980  0.00  0.00     0.000 HD
BRANCH 38 44
ATOM     44   C  GCU B   3      22.875  50.341  12.1290  0.00  0.00     0.000 C
ATOM     45   O  GCU B   3      23.393  49.447  12.8150  0.00  0.00     0.000 OA
ATOM     46   O  GCU B   3      23.562  51.221  11.5760  0.00  0.00     0.000 OA
ENDBRANCH 38 44
BRANCH 34 47
ATOM     47  O3  NAG B   4      19.300  47.592  11.3930  0.00  0.00     0.000 O
BRANCH 47 50
ATOM     48  C1  NAG B   4      20.469  44.399   9.9120  0.00  0.00     0.000 C
ATOM     49  C2  NAG B   4      19.955  45.354  10.9840  0.00  0.00     0.000 C
ATOM     50  C3  NAG B   4      19.333  46.598  10.3700  0.00  0.00     0.000 C
ATOM     51  C4  NAG B   4      20.102  47.139   9.1590  0.00  0.00     0.000 C
ATOM     52  C5  NAG B   4      20.185  46.103   8.0510  0.00  0.00     0.000 C
ATOM     53  O5  NAG B   4      20.462  44.763   8.5160  0.00  0.00     0.000 O
BRANCH 49 56
ATOM     54   N  NAG B   4      19.042  44.591  11.8530  0.00  0.00     0.000 N
ATOM     56  HD  NAG B   4      19.238  44.267  12.6310  0.00  0.00     0.000 HD
ATOM     56   C  NAG B   4      17.031  43.440  12.5760  0.00  0.00     0.000 C
ATOM     57   O  NAG B   4      17.357  44.193  10.3790  0.00  0.00     0.000 OA
ATOM     58   C  NAG B   4      17.834  44.106  11.5010  0.00  0.00     0.000 C
ENDBRANCH 49 56
ATOM     59   O  NAG B   4      21.125  45.824   5.7850  0.00  0.00     0.000 O
ATOM     61  HD  NAG B   4      21.214  45.728   6.6410  0.00  0.00     0.000 HD
ATOM     61   O  NAG B   4      21.125  45.824   5.7850  0.00  0.00     0.000 O
ATOM     63  HD  NAG B   4      21.214  45.728   6.6410  0.00  0.00     0.000 HD
ENDBRANCH 47 50
ENDBRANCH 34 47
ENDBRANCH 33 37
ENDBRANCH 17 33
ENDBRANCH 16 19
ENDBRANCH 1 16
TORSDOF 10
ENDMDL
MODEL 66
REMARK VINA RESULT:      -1.6     24.642     28.343
ROOT
ATOM      1  C1  GCU B   1      26.675  29.035  42.9190  0.00  0.00     0.000 C
ATOM      2  C2  GCU B   1      26.369  30.293  43.7150  0.00  0.00     0.000 C
ATOM      3  C3  GCU B   1      27.634  31.109  43.9290  0.00  0.00     0.000 C
ATOM      4  C4  GCU B   1      28.735  30.231  44.5030  0.00  0.00     0.000 C
ATOM      5  C5  GCU B   1      28.922  28.965  43.6650  0.00  0.00     0.000 C
ATOM      6  O5  GCU B   1      27.676  28.259  43.5970  0.00  0.00     0.000 O
ATOM      7   O  GCU B   1      25.402  31.043  42.9850  0.00  0.00     0.000 O
ATOM      9  HD  GCU B   1      24.651  31.345  43.2930  0.00  0.00     0.000 HD
ATOM      9   O  GCU B   1      27.383  32.208  44.8090  0.00  0.00     0.000 O
ATOM     11  HD  GCU B   1      26.632  32.510  45.1160  0.00  0.00     0.000 HD
ATOM     11   O  GCU B   1      29.953  30.977  44.5310  0.00  0.00     0.000 O
ATOM     13  HD  GCU B   1      29.202  31.279  44.8390  0.00  0.00     0.000 HD
ENDROOT
BRANCH 5 13
ATOM     13   C  GCU B   1      30.029  28.121  44.2500  0.00  0.00     0.000 C
ATOM     14   O  GCU B   1      30.357  28.252  45.4480  0.00  0.00     0.000 OA
ATOM     15   O  GCU B   1      30.569  27.284  43.5020  0.00  0.00     0.000 OA
ENDBRANCH 5 13
BRANCH 1 16
ATOM     16  O3  NAG B   2      26.001  27.883  42.9270  0.00  0.00     0.000 O
BRANCH 16 19
ATOM     17  C1  NAG B   2      24.312  26.047  40.0970  0.00  0.00     0.000 C
ATOM     18  C2  NAG B   2      24.649  27.223  41.0060  0.00  0.00     0.000 C
ATOM     19  C3  NAG B   2      25.794  26.853  41.9470  0.00  0.00     0.000 C
ATOM     20  C4  NAG B   2      25.479  25.552  42.6840  0.00  0.00     0.000 C
ATOM     21  C5  NAG B   2      25.163  24.454  41.6790  0.00  0.00     0.000 C
ATOM     22  O5  NAG B   2      24.045  24.867  40.8730  0.00  0.00     0.000 O
ATOM     23   O  NAG B   2      26.609  25.206  43.4920  0.00  0.00     0.000 O
ATOM     25  HD  NAG B   2      25.885  25.442  43.9050  0.00  0.00     0.000 HD
ATOM     25   C  NAG B   2      24.852  23.115  42.3450  0.00  0.00     0.000 C
ATOM     26   O  NAG B   2      23.561  23.122  42.9730  0.00  0.00     0.000 O
ATOM     28  HD  NAG B   2      22.838  23.358  43.3860  0.00  0.00     0.000 HD
BRANCH 18 30
ATOM     28   N  NAG B   2      24.703  28.235  39.9680  0.00  0.00     0.000 N
ATOM     30  HD  NAG B   2      24.347  28.656  40.6360  0.00  0.00     0.000 HD
ATOM     30   C  NAG B   2      24.164  29.455  40.0870  0.00  0.00     0.000 C
ATOM     31   C  NAG B   2      24.263  30.378  38.9050  0.00  0.00     0.000 C
ATOM     32   O  NAG B   2      23.611  29.814  41.1070  0.00  0.00     0.000 OA
ENDBRANCH 18 30
BRANCH 17 33
ATOM     33  O4  GCU B   3      23.205  26.445  39.2630  0.00  0.00     0.000 O
BRANCH 33 37
ATOM     34  C1  GCU B   3      21.775  24.835  35.7000  0.00  0.00     0.000 C
ATOM     35  C2  GCU B   3      21.271  24.224  37.0080  0.00  0.00     0.000 C
ATOM     36  C3  GCU B   3      21.544  25.177  38.1510  0.00  0.00     0.000 C
ATOM     37  C4  GCU B   3      23.025  25.531  38.1800  0.00  0.00     0.000 C
ATOM     38  C5  GCU B   3      23.435  26.136  36.8360  0.00  0.00     0.000 C
ATOM     39  O5  GCU B   3      23.158  25.183  35.8040  0.00  0.00     0.000 O
ATOM     40   O  GCU B   3      19.868  23.977  36.8940  0.00  0.00     0.000 O
ATOM     42  HD  GCU B   3      19.115  24.106  37.3020  0.00  0.00     0.000 HD
ATOM     42   O  GCU B   3      21.148  24.603  39.4100  0.00  0.00     0.000 O
ATOM     44  HD  GCU B   3      20.395  24.731  39.8180  0.00  0.00     0.000 HD
BRANCH 38 44
ATOM     44   C  GCU B   3      24.900  26.489  36.7800  0.00  0.00     0.000 C
ATOM     45   O  GCU B   3      25.232  27.673  36.9440  0.00  0.00     0.000 OA
ATOM     46   O  GCU B   3      25.744  25.595  36.5760  0.00  0.00     0.000 OA
ENDBRANCH 38 44
BRANCH 34 47
ATOM     47  O3  NAG B   4      21.719  23.914  34.7490  0.00  0.00     0.000 O
BRANCH 47 50
ATOM     48  C1  NAG B   4      19.114  24.757  32.2470  0.00  0.00     0.000 C
ATOM     49  C2  NAG B   4      20.273  24.986  33.2120  0.00  0.00     0.000 C
ATOM     50  C3  NAG B   4      20.985  23.685  33.5470  0.00  0.00     0.000 C
ATOM     51  C4  NAG B   4      20.038  22.496  33.7460  0.00  0.00     0.000 C
ATOM     52  C5  NAG B   4      19.215  22.231  32.4970  0.00  0.00     0.000 C
ATOM     53  O5  NAG B   4      18.715  23.426  31.8560  0.00  0.00     0.000 O
BRANCH 49 56
ATOM     54   N  NAG B   4      21.212  25.510  32.2050  0.00  0.00     0.000 N
ATOM     56  HD  NAG B   4      21.465  25.098  31.4870  0.00  0.00     0.000 HD
ATOM     56   C  NAG B   4      22.790  27.017  31.1410  0.00  0.00     0.000 C
ATOM     57   O  NAG B   4      22.025  27.304  33.3400  0.00  0.00     0.000 OA
ATOM     58   C  NAG B   4      21.975  26.614  32.3320  0.00  0.00     0.000 C
ENDBRANCH 49 56
ATOM     59   O  NAG B   4      17.459  20.704  31.6750  0.00  0.00     0.000 O
ATOM     61  HD  NAG B   4      17.672  21.455  32.0490  0.00  0.00     0.000 HD
ATOM     61   O  NAG B   4      17.459  20.704  31.6750  0.00  0.00     0.000 O
ATOM     63  HD  NAG B   4      17.672  21.455  32.0490  0.00  0.00     0.000 HD
ENDBRANCH 47 50
ENDBRANCH 34 47
ENDBRANCH 33 37
ENDBRANCH 17 33
ENDBRANCH 16 19
ENDBRANCH 1 16
TORSDOF 10
ENDMDL
MODEL 67
REMARK VINA RESULT:      -1.6     21.403     25.671
ROOT
ATOM      1  C1  GCU B   1      26.515  30.263  38.8270  0.00  0.00     0.000 C
ATOM      2  C2  GCU B   1      27.860  29.871  39.4190  0.00  0.00     0.000 C
ATOM      3  C3  GCU B   1      28.033  30.485  40.8000  0.00  0.00     0.000 C
ATOM      4  C4  GCU B   1      27.758  31.980  40.7490  0.00  0.00     0.000 C
ATOM      5  C5  GCU B   1      26.412  32.269  40.0830  0.00  0.00     0.000 C
ATOM      6  O5  GCU B   1      26.405  31.694  38.7690  0.00  0.00     0.000 O
ATOM      7   O  GCU B   1      27.904  28.450  39.4890  0.00  0.00     0.000 O
ATOM      9  HD  GCU B   1      28.531  27.942  39.1740  0.00  0.00     0.000 HD
ATOM      9   O  GCU B   1      29.355  30.252  41.2920  0.00  0.00     0.000 O
ATOM     11  HD  GCU B   1      29.982  29.744  40.9770  0.00  0.00     0.000 HD
ATOM     11   O  GCU B   1      27.759  32.495  42.0800  0.00  0.00     0.000 O
ATOM     13  HD  GCU B   1      28.386  31.987  41.7660  0.00  0.00     0.000 HD
ENDROOT
BRANCH 5 13
ATOM     13   C  GCU B   1      26.160  33.757  40.0590  0.00  0.00     0.000 C
ATOM     14   O  GCU B   1      27.116  34.560  40.0780  0.00  0.00     0.000 OA
ATOM     15   O  GCU B   1      24.975  34.138  39.9910  0.00  0.00     0.000 OA
ENDBRANCH 5 13
BRANCH 1 16
ATOM     16  O3  NAG B   2      26.186  30.342  37.5360  0.00  0.00     0.000 O
BRANCH 16 19
ATOM     17  C1  NAG B   2      23.445  28.549  35.6650  0.00  0.00     0.000 C
ATOM     18  C2  NAG B   2      24.648  28.702  36.5860  0.00  0.00     0.000 C
ATOM     19  C3  NAG B   2      24.951  30.181  36.8210  0.00  0.00     0.000 C
ATOM     20  C4  NAG B   2      25.076  30.917  35.4870  0.00  0.00     0.000 C
ATOM     21  C5  NAG B   2      23.819  30.695  34.6570  0.00  0.00     0.000 C
ATOM     22  O5  NAG B   2      23.643  29.283  34.4460  0.00  0.00     0.000 O
ATOM     23   O  NAG B   2      25.281  32.308  35.7560  0.00  0.00     0.000 O
ATOM     25  HD  NAG B   2      25.943  31.871  35.4080  0.00  0.00     0.000 HD
ATOM     25   C  NAG B   2      23.866  31.417  33.3110  0.00  0.00     0.000 C
ATOM     26   O  NAG B   2      24.767  30.775  32.3960  0.00  0.00     0.000 O
ATOM     28  HD  NAG B   2      25.429  30.339  32.0480  0.00  0.00     0.000 HD
BRANCH 18 30
ATOM     28   N  NAG B   2      24.213  27.760  37.6000  0.00  0.00     0.000 N
ATOM     30  HD  NAG B   2      25.069  27.633  37.5670  0.00  0.00     0.000 HD
ATOM     30   C  NAG B   2      25.018  26.857  38.1740  0.00  0.00     0.000 C
ATOM     31   C  NAG B   2      24.408  25.918  39.1760  0.00  0.00     0.000 C
ATOM     32   O  NAG B   2      26.200  26.788  37.9020  0.00  0.00     0.000 OA
ENDBRANCH 18 30
BRANCH 17 33
ATOM     33  O4  GCU B   3      23.234  27.138  35.4550  0.00  0.00     0.000 O
BRANCH 33 37
ATOM     34  C1  GCU B   3      19.892  25.079  34.0660  0.00  0.00     0.000 C
ATOM     35  C2  GCU B   3      20.897  25.584  33.0290  0.00  0.00     0.000 C
ATOM     36  C3  GCU B   3      22.209  25.909  33.7110  0.00  0.00     0.000 C
ATOM     37  C4  GCU B   3      21.965  26.894  34.8460  0.00  0.00     0.000 C
ATOM     38  C5  GCU B   3      20.953  26.304  35.8300  0.00  0.00     0.000 C
ATOM     39  O5  GCU B   3      19.739  26.028  35.1250  0.00  0.00     0.000 O
ATOM     40   O  GCU B   3      21.092  24.570  32.0410  0.00  0.00     0.000 O
ATOM     42  HD  GCU B   3      21.710  24.132  31.6220  0.00  0.00     0.000 HD
ATOM     42   O  GCU B   3      23.156  26.456  32.7760  0.00  0.00     0.000 O
ATOM     44  HD  GCU B   3      23.775  26.019  32.3570  0.00  0.00     0.000 HD
BRANCH 38 44
ATOM     44   C  GCU B   3      20.641  27.238  36.9730  0.00  0.00     0.000 C
ATOM     45   O  GCU B   3      19.832  28.159  36.7830  0.00  0.00     0.000 OA
ATOM     46   O  GCU B   3      21.191  27.068  38.0780  0.00  0.00     0.000 OA
ENDBRANCH 38 44
BRANCH 34 47
ATOM     47  O3  NAG B   4      18.698  24.996  33.4980  0.00  0.00     0.000 O
BRANCH 47 50
ATOM     48  C1  NAG B   4      15.824  22.853  34.4500  0.00  0.00     0.000 C
ATOM     49  C2  NAG B   4      16.656  24.125  34.3210  0.00  0.00     0.000 C
ATOM     50  C3  NAG B   4      17.722  23.987  33.2450  0.00  0.00     0.000 C
ATOM     51  C4  NAG B   4      18.402  22.613  33.2230  0.00  0.00     0.000 C
ATOM     52  C5  NAG B   4      17.394  21.502  32.9810  0.00  0.00     0.000 C
ATOM     53  O5  NAG B   4      16.157  21.660  33.7110  0.00  0.00     0.000 O
BRANCH 49 56
ATOM     54   N  NAG B   4      15.594  24.859  33.6110  0.00  0.00     0.000 N
ATOM     56  HD  NAG B   4      15.094  24.540  32.9790  0.00  0.00     0.000 HD
ATOM     56   C  NAG B   4      14.163  26.705  32.9530  0.00  0.00     0.000 C
ATOM     57   O  NAG B   4      16.047  26.969  34.3230  0.00  0.00     0.000 OA
ATOM     58   C  NAG B   4      15.360  26.184  33.6860  0.00  0.00     0.000 C
ENDBRANCH 49 56
ATOM     59   O  NAG B   4      17.299  19.044  32.7740  0.00  0.00     0.000 O
ATOM     61  HD  NAG B   4      17.238  19.749  33.2740  0.00  0.00     0.000 HD
ATOM     61   O  NAG B   4      17.299  19.044  32.7740  0.00  0.00     0.000 O
ATOM     63  HD  NAG B   4      17.238  19.749  33.2740  0.00  0.00     0.000 HD
ENDBRANCH 47 50
ENDBRANCH 34 47
ENDBRANCH 33 37
ENDBRANCH 17 33
ENDBRANCH 16 19
ENDBRANCH 1 16
TORSDOF 10
ENDMDL
MODEL 68
REMARK VINA RESULT:      -1.6     19.842     27.868
ROOT
ATOM      1  C1  GCU B   1      17.671  65.531   7.3190  0.00  0.00     0.000 C
ATOM      2  C2  GCU B   1      17.682  66.639   6.2780  0.00  0.00     0.000 C
ATOM      3  C3  GCU B   1      19.055  67.291   6.2100  0.00  0.00     0.000 C
ATOM      4  C4  GCU B   1      19.510  67.703   7.6010  0.00  0.00     0.000 C
ATOM      5  C5  GCU B   1      19.402  66.536   8.5840  0.00  0.00     0.000 C
ATOM      6  O5  GCU B   1      18.050  66.059   8.6000  0.00  0.00     0.000 O
ATOM      7   O  GCU B   1      17.336  66.059   5.0240  0.00  0.00     0.000 O
ATOM      9  HD  GCU B   1      16.714  66.334   4.4880  0.00  0.00     0.000 HD
ATOM      9   O  GCU B   1      19.028  68.434   5.3510  0.00  0.00     0.000 O
ATOM     11  HD  GCU B   1      18.406  68.709   4.8150  0.00  0.00     0.000 HD
ATOM     11   O  GCU B   1      20.864  68.151   7.5290  0.00  0.00     0.000 O
ATOM     13  HD  GCU B   1      20.242  68.427   6.9930  0.00  0.00     0.000 HD
ENDROOT
BRANCH 5 13
ATOM     13   C  GCU B   1      19.874  66.970   9.9510  0.00  0.00     0.000 C
ATOM     14   O  GCU B   1      19.074  67.017  10.9080  0.00  0.00     0.000 OA
ATOM     15   O  GCU B   1      21.082  67.246  10.0800  0.00  0.00     0.000 OA
ENDBRANCH 5 13
BRANCH 1 16
ATOM     16  O3  NAG B   2      16.621  65.063   7.9980  0.00  0.00     0.000 O
BRANCH 16 19
ATOM     17  C1  NAG B   2      14.680  61.830   7.9200  0.00  0.00     0.000 C
ATOM     18  C2  NAG B   2      15.253  63.137   7.3870  0.00  0.00     0.000 C
ATOM     19  C3  NAG B   2      16.215  63.747   8.4050  0.00  0.00     0.000 C
ATOM     20  C4  NAG B   2      15.542  63.860   9.7730  0.00  0.00     0.000 C
ATOM     21  C5  NAG B   2      15.015  62.498  10.2010  0.00  0.00     0.000 C
ATOM     22  O5  NAG B   2      14.083  62.026   9.2120  0.00  0.00     0.000 O
ATOM     23   O  NAG B   2      16.503  64.362  10.7080  0.00  0.00     0.000 O
ATOM     25  HD  NAG B   2      15.840  64.882  10.5050  0.00  0.00     0.000 HD
ATOM     25   C  NAG B   2      14.341  62.530  11.5720  0.00  0.00     0.000 C
ATOM     26   O  NAG B   2      13.061  63.178  11.5180  0.00  0.00     0.000 O
ATOM     28  HD  NAG B   2      12.399  63.698  11.3150  0.00  0.00     0.000 HD
BRANCH 18 30
ATOM     28   N  NAG B   2      14.677  63.292   6.0650  0.00  0.00     0.000 N
ATOM     30  HD  NAG B   2      15.514  63.141   5.9000  0.00  0.00     0.000 HD
ATOM     30   C  NAG B   2      15.397  63.319   4.9360  0.00  0.00     0.000 C
ATOM     31   C  NAG B   2      14.659  63.531   3.6440  0.00  0.00     0.000 C
ATOM     32   O  NAG B   2      16.604  63.181   4.9430  0.00  0.00     0.000 OA
ENDBRANCH 18 30
BRANCH 17 33
ATOM     33  O4  GCU B   3      13.757  61.325   6.9340  0.00  0.00     0.000 O
BRANCH 33 37
ATOM     34  C1  GCU B   3      12.782  57.426   5.8450  0.00  0.00     0.000 C
ATOM     35  C2  GCU B   3      12.195  57.967   7.1500  0.00  0.00     0.000 C
ATOM     36  C3  GCU B   3      12.296  59.477   7.1640  0.00  0.00     0.000 C
ATOM     37  C4  GCU B   3      13.740  59.896   6.9310  0.00  0.00     0.000 C
ATOM     38  C5  GCU B   3      14.238  59.313   5.6070  0.00  0.00     0.000 C
ATOM     39  O5  GCU B   3      14.124  57.888   5.6640  0.00  0.00     0.000 O
ATOM     40   O  GCU B   3      10.828  57.561   7.2460  0.00  0.00     0.000 O
ATOM     42  HD  GCU B   3      10.033  57.867   7.4020  0.00  0.00     0.000 HD
ATOM     42   O  GCU B   3      11.819  60.017   8.4090  0.00  0.00     0.000 O
ATOM     44  HD  GCU B   3      11.023  60.322   8.5660  0.00  0.00     0.000 HD
BRANCH 38 44
ATOM     44   C  GCU B   3      15.676  59.666   5.3200  0.00  0.00     0.000 C
ATOM     45   O  GCU B   3      15.982  60.024   4.1720  0.00  0.00     0.000 OA
ATOM     46   O  GCU B   3      16.523  59.597   6.2300  0.00  0.00     0.000 OA
ENDBRANCH 38 44
BRANCH 34 47
ATOM     47  O3  NAG B   4      12.877  56.107   5.9340  0.00  0.00     0.000 O
BRANCH 47 50
ATOM     48  C1  NAG B   4      14.526  53.535   3.8320  0.00  0.00     0.000 C
ATOM     49  C2  NAG B   4      14.275  54.413   5.0540  0.00  0.00     0.000 C
ATOM     50  C3  NAG B   4      12.869  54.990   5.0470  0.00  0.00     0.000 C
ATOM     51  C4  NAG B   4      12.395  55.443   3.6610  0.00  0.00     0.000 C
ATOM     52  C5  NAG B   4      12.395  54.288   2.6740  0.00  0.00     0.000 C
ATOM     53  O5  NAG B   4      13.552  53.429   2.7720  0.00  0.00     0.000 O
BRANCH 49 56
ATOM     54   N  NAG B   4      14.566  53.635   6.2710  0.00  0.00     0.000 N
ATOM     56  HD  NAG B   4      15.245  53.752   6.7950  0.00  0.00     0.000 HD
ATOM     56   C  NAG B   4      14.337  51.929   7.9820  0.00  0.00     0.000 C
ATOM     57   O  NAG B   4      13.081  51.935   6.0010  0.00  0.00     0.000 OA
ATOM     58   C  NAG B   4      13.945  52.502   6.6540  0.00  0.00     0.000 C
ENDBRANCH 49 56
ATOM     59   O  NAG B   4      11.888  53.824   0.3030  0.00  0.00     0.000 O
ATOM     61  HD  NAG B   4      12.470  54.035   0.9090  0.00  0.00     0.000 HD
ATOM     61   O  NAG B   4      11.888  53.824   0.3030  0.00  0.00     0.000 O
ATOM     63  HD  NAG B   4      12.470  54.035   0.9090  0.00  0.00     0.000 HD
ENDBRANCH 47 50
ENDBRANCH 34 47
ENDBRANCH 33 37
ENDBRANCH 17 33
ENDBRANCH 16 19
ENDBRANCH 1 16
TORSDOF 10
ENDMDL
MODEL 69
REMARK VINA RESULT:      -1.5     22.397     26.287
ROOT
ATOM      1  C1  GCU B   1      28.113  31.025  36.5600  0.00  0.00     0.000 C
ATOM      2  C2  GCU B   1      29.432  31.004  37.3180  0.00  0.00     0.000 C
ATOM      3  C3  GCU B   1      29.352  31.896  38.5470  0.00  0.00     0.000 C
ATOM      4  C4  GCU B   1      28.848  33.278  38.1620  0.00  0.00     0.000 C
ATOM      5  C5  GCU B   1      27.554  33.186  37.3520  0.00  0.00     0.000 C
ATOM      6  O5  GCU B   1      27.782  32.374  36.1930  0.00  0.00     0.000 O
ATOM      7   O  GCU B   1      29.695  29.655  37.6900  0.00  0.00     0.000 O
ATOM      9  HD  GCU B   1      30.426  29.216  37.5370  0.00  0.00     0.000 HD
ATOM      9   O  GCU B   1      30.633  32.006  39.1740  0.00  0.00     0.000 O
ATOM     11  HD  GCU B   1      31.364  31.567  39.0210  0.00  0.00     0.000 HD
ATOM     11   O  GCU B   1      28.622  34.035  39.3510  0.00  0.00     0.000 O
ATOM     13  HD  GCU B   1      29.352  33.597  39.1980  0.00  0.00     0.000 HD
ENDROOT
BRANCH 5 13
ATOM     13   C  GCU B   1      27.070  34.571  36.9960  0.00  0.00     0.000 C
ATOM     14   O  GCU B   1      27.877  35.519  36.9130  0.00  0.00     0.000 OA
ATOM     15   O  GCU B   1      25.854  34.712  36.7660  0.00  0.00     0.000 OA
ENDBRANCH 5 13
BRANCH 1 16
ATOM     16  O3  NAG B   2      27.918  30.789  35.2610  0.00  0.00     0.000 O
BRANCH 16 19
ATOM     17  C1  NAG B   2      25.806  28.174  33.5500  0.00  0.00     0.000 C
ATOM     18  C2  NAG B   2      26.857  28.726  34.5050  0.00  0.00     0.000 C
ATOM     19  C3  NAG B   2      26.819  30.253  34.5090  0.00  0.00     0.000 C
ATOM     20  C4  NAG B   2      26.911  30.792  33.0820  0.00  0.00     0.000 C
ATOM     21  C5  NAG B   2      25.814  30.176  32.2260  0.00  0.00     0.000 C
ATOM     22  O5  NAG B   2      25.960  28.745  32.2410  0.00  0.00     0.000 O
ATOM     23   O  NAG B   2      26.793  32.218  33.1290  0.00  0.00     0.000 O
ATOM     25  HD  NAG B   2      27.562  31.893  32.8980  0.00  0.00     0.000 HD
ATOM     25   C  NAG B   2      25.835  30.682  30.7850  0.00  0.00     0.000 C
ATOM     26   O  NAG B   2      26.934  30.129  30.0440  0.00  0.00     0.000 O
ATOM     28  HD  NAG B   2      27.703  29.804  29.8130  0.00  0.00     0.000 HD
BRANCH 18 30
ATOM     28   N  NAG B   2      26.537  27.876  35.6350  0.00  0.00     0.000 N
ATOM     30  HD  NAG B   2      27.400  27.934  35.6700  0.00  0.00     0.000 HD
ATOM     30   C  NAG B   2      27.455  27.266  36.3950  0.00  0.00     0.000 C
ATOM     31   C  NAG B   2      26.965  26.380  37.5050  0.00  0.00     0.000 C
ATOM     32   O  NAG B   2      28.646  27.414  36.2030  0.00  0.00     0.000 OA
ENDBRANCH 18 30
BRANCH 17 33
ATOM     33  O4  GCU B   3      25.918  26.736  33.5640  0.00  0.00     0.000 O
BRANCH 33 37
ATOM     34  C1  GCU B   3      23.200  23.802  32.4100  0.00  0.00     0.000 C
ATOM     35  C2  GCU B   3      24.150  24.348  31.3430  0.00  0.00     0.000 C
ATOM     36  C3  GCU B   3      25.309  25.057  32.0120  0.00  0.00     0.000 C
ATOM     37  C4  GCU B   3      24.778  26.127  32.9550  0.00  0.00     0.000 C
ATOM     38  C5  GCU B   3      23.843  25.489  33.9840  0.00  0.00     0.000 C
ATOM     39  O5  GCU B   3      22.770  24.846  33.2880  0.00  0.00     0.000 O
ATOM     40   O  GCU B   3      24.627  23.261  30.5480  0.00  0.00     0.000 O
ATOM     42  HD  GCU B   3      25.354  22.911  30.2330  0.00  0.00     0.000 HD
ATOM     42   O  GCU B   3      26.187  25.647  31.0370  0.00  0.00     0.000 O
ATOM     44  HD  GCU B   3      26.913  25.297  30.7220  0.00  0.00     0.000 HD
BRANCH 38 44
ATOM     44   C  GCU B   3      23.256  26.496  34.9410  0.00  0.00     0.000 C
ATOM     45   O  GCU B   3      22.308  27.198  34.5560  0.00  0.00     0.000 OA
ATOM     46   O  GCU B   3      23.726  26.604  36.0890  0.00  0.00     0.000 OA
ENDBRANCH 38 44
BRANCH 34 47
ATOM     47  O3  NAG B   4      22.095  23.370  31.8170  0.00  0.00     0.000 O
BRANCH 47 50
ATOM     48  C1  NAG B   4      21.645  19.724  32.3290  0.00  0.00     0.000 C
ATOM     49  C2  NAG B   4      22.021  21.163  32.6690  0.00  0.00     0.000 C
ATOM     50  C3  NAG B   4      21.361  22.151  31.7210  0.00  0.00     0.000 C
ATOM     51  C4  NAG B   4      21.339  21.684  30.2610  0.00  0.00     0.000 C
ATOM     52  C5  NAG B   4      20.586  20.371  30.1130  0.00  0.00     0.000 C
ATOM     53  O5  NAG B   4      20.871  19.409  31.1530  0.00  0.00     0.000 O
BRANCH 49 56
ATOM     54   N  NAG B   4      21.119  21.483  33.7900  0.00  0.00     0.000 N
ATOM     56  HD  NAG B   4      20.324  21.820  33.7190  0.00  0.00     0.000 HD
ATOM     56   C  NAG B   4      20.348  21.756  36.0750  0.00  0.00     0.000 C
ATOM     57   O  NAG B   4      22.579  21.288  35.5210  0.00  0.00     0.000 OA
ATOM     58   C  NAG B   4      21.452  21.494  35.0960  0.00  0.00     0.000 C
ENDBRANCH 49 56
ATOM     59   O  NAG B   4      19.948  18.740  28.3740  0.00  0.00     0.000 O
ATOM     61  HD  NAG B   4      20.509  18.992  28.9840  0.00  0.00     0.000 HD
ATOM     61   O  NAG B   4      19.948  18.740  28.3740  0.00  0.00     0.000 O
ATOM     63  HD  NAG B   4      20.509  18.992  28.9840  0.00  0.00     0.000 HD
ENDBRANCH 47 50
ENDBRANCH 34 47
ENDBRANCH 33 37
ENDBRANCH 17 33
ENDBRANCH 16 19
ENDBRANCH 1 16
TORSDOF 10
ENDMDL
MODEL 70
REMARK VINA RESULT:      -1.1     11.094     19.614
ROOT
ATOM      1  C1  GCU B   1      23.654  54.601  15.0240  0.00  0.00     0.000 C
ATOM      2  C2  GCU B   1      25.030  54.472  14.3890  0.00  0.00     0.000 C
ATOM      3  C3  GCU B   1      26.108  54.937  15.3560  0.00  0.00     0.000 C
ATOM      4  C4  GCU B   1      25.770  56.318  15.8950  0.00  0.00     0.000 C
ATOM      5  C5  GCU B   1      24.346  56.358  16.4540  0.00  0.00     0.000 C
ATOM      6  O5  GCU B   1      23.428  55.962  15.4270  0.00  0.00     0.000 O
ATOM      7   O  GCU B   1      25.220  53.104  14.0430  0.00  0.00     0.000 O
ATOM      9  HD  GCU B   1      25.455  52.801  13.2660  0.00  0.00     0.000 HD
ATOM      9   O  GCU B   1      27.384  54.967  14.7120  0.00  0.00     0.000 O
ATOM     11  HD  GCU B   1      27.619  54.665  13.9360  0.00  0.00     0.000 HD
ATOM     11   O  GCU B   1      26.702  56.654  16.9230  0.00  0.00     0.000 O
ATOM     13  HD  GCU B   1      26.938  56.351  16.1470  0.00  0.00     0.000 HD
ENDROOT
BRANCH 5 13
ATOM     13   C  GCU B   1      24.044  57.736  16.9930  0.00  0.00     0.000 C
ATOM     14   O  GCU B   1      23.436  58.569  16.2900  0.00  0.00     0.000 OA
ATOM     15   O  GCU B   1      24.400  57.985  18.1610  0.00  0.00     0.000 OA
ENDBRANCH 5 13
BRANCH 1 16
ATOM     16  O3  NAG B   2      22.483  54.755  14.4020  0.00  0.00     0.000 O
BRANCH 16 19
ATOM     17  C1  NAG B   2      19.378  52.622  14.5980  0.00  0.00     0.000 C
ATOM     18  C2  NAG B   2      20.858  52.935  14.4190  0.00  0.00     0.000 C
ATOM     19  C3  NAG B   2      21.132  54.403  14.7400  0.00  0.00     0.000 C
ATOM     20  C4  NAG B   2      20.192  55.306  13.9420  0.00  0.00     0.000 C
ATOM     21  C5  NAG B   2      18.747  54.905  14.2030  0.00  0.00     0.000 C
ATOM     22  O5  NAG B   2      18.572  53.527  13.8260  0.00  0.00     0.000 O
ATOM     23   O  NAG B   2      20.432  56.663  14.3330  0.00  0.00     0.000 O
ATOM     25  HD  NAG B   2      20.658  56.438  13.5280  0.00  0.00     0.000 HD
ATOM     25   C  NAG B   2      17.747  55.778  13.4490  0.00  0.00     0.000 C
ATOM     26   O  NAG B   2      17.736  55.481  12.0440  0.00  0.00     0.000 O
ATOM     28  HD  NAG B   2      17.963  55.256  11.2390  0.00  0.00     0.000 HD
BRANCH 18 30
ATOM     28   N  NAG B   2      21.369  51.800  15.1650  0.00  0.00     0.000 N
ATOM     30  HD  NAG B   2      21.935  51.879  14.5140  0.00  0.00     0.000 HD
ATOM     30   C  NAG B   2      22.398  51.044  14.7620  0.00  0.00     0.000 C
ATOM     31   C  NAG B   2      22.782  49.874  15.6230  0.00  0.00     0.000 C
ATOM     32   O  NAG B   2      23.005  51.283  13.7370  0.00  0.00     0.000 OA
ENDBRANCH 18 30
BRANCH 17 33
ATOM     33  O4  GCU B   3      19.180  51.238  14.2460  0.00  0.00     0.000 O
BRANCH 33 37
ATOM     34  C1  GCU B   3      16.066  48.630  15.1590  0.00  0.00     0.000 C
ATOM     35  C2  GCU B   3      15.920  49.500  13.9100  0.00  0.00     0.000 C
ATOM     36  C3  GCU B   3      17.275  50.042  13.5090  0.00  0.00     0.000 C
ATOM     37  C4  GCU B   3      17.902  50.775  14.6870  0.00  0.00     0.000 C
ATOM     38  C5  GCU B   3      18.010  49.828  15.8840  0.00  0.00     0.000 C
ATOM     39  O5  GCU B   3      16.698  49.360  16.2140  0.00  0.00     0.000 O
ATOM     40   O  GCU B   3      15.372  48.708  12.8550  0.00  0.00     0.000 O
ATOM     42  HD  GCU B   3      15.494  48.496  12.0240  0.00  0.00     0.000 HD
ATOM     42   O  GCU B   3      17.165  50.926  12.3780  0.00  0.00     0.000 O
ATOM     44  HD  GCU B   3      17.287  50.714  11.5480  0.00  0.00     0.000 HD
BRANCH 38 44
ATOM     44   C  GCU B   3      18.601  50.493  17.1010  0.00  0.00     0.000 C
ATOM     45   O  GCU B   3      17.874  51.226  17.7890  0.00  0.00     0.000 OA
ATOM     46   O  GCU B   3      19.796  50.296  17.3940  0.00  0.00     0.000 OA
ENDBRANCH 38 44
BRANCH 34 47
ATOM     47  O3  NAG B   4      14.858  48.333  15.6170  0.00  0.00     0.000 O
BRANCH 47 50
ATOM     48  C1  NAG B   4      11.773  46.322  16.0560  0.00  0.00     0.000 C
ATOM     49  C2  NAG B   4      12.779  47.231  15.3590  0.00  0.00     0.000 C
ATOM     50  C3  NAG B   4      14.144  47.167  16.0240  0.00  0.00     0.000 C
ATOM     51  C4  NAG B   4      14.083  47.116  17.5550  0.00  0.00     0.000 C
ATOM     52  C5  NAG B   4      13.308  45.900  18.0350  0.00  0.00     0.000 C
ATOM     53  O5  NAG B   4      12.109  45.628  17.2760  0.00  0.00     0.000 O
BRANCH 49 56
ATOM     54   N  NAG B   4      12.694  46.785  13.9570  0.00  0.00     0.000 N
ATOM     56  HD  NAG B   4      12.077  47.008  13.3920  0.00  0.00     0.000 HD
ATOM     56   C  NAG B   4      13.249  45.590  11.9190  0.00  0.00     0.000 C
ATOM     57   O  NAG B   4      14.252  45.131  13.9880  0.00  0.00     0.000 OA
ATOM     58   C  NAG B   4      13.436  45.814  13.3880  0.00  0.00     0.000 C
ENDBRANCH 49 56
ATOM     59   O  NAG B   4      12.571  44.833  20.1360  0.00  0.00     0.000 O
ATOM     61  HD  NAG B   4      12.403  45.374  19.4810  0.00  0.00     0.000 HD
ATOM     61   O  NAG B   4      12.571  44.833  20.1360  0.00  0.00     0.000 O
ATOM     63  HD  NAG B   4      12.403  45.374  19.4810  0.00  0.00     0.000 HD
ENDBRANCH 47 50
ENDBRANCH 34 47
ENDBRANCH 33 37
ENDBRANCH 17 33
ENDBRANCH 16 19
ENDBRANCH 1 16
TORSDOF 10
ENDMDL
MODEL 71
REMARK VINA RESULT:      -0.8     20.031     23.953
ROOT
ATOM      1  C1  GCU B   1      28.363  31.480  36.8510  0.00  0.00     0.000 C
ATOM      2  C2  GCU B   1      29.482  31.248  37.8550  0.00  0.00     0.000 C
ATOM      3  C3  GCU B   1      29.094  31.793  39.2200  0.00  0.00     0.000 C
ATOM      4  C4  GCU B   1      28.623  33.234  39.0960  0.00  0.00     0.000 C
ATOM      5  C5  GCU B   1      27.544  33.369  38.0210  0.00  0.00     0.000 C
ATOM      6  O5  GCU B   1      28.058  32.882  36.7750  0.00  0.00     0.000 O
ATOM      7   O  GCU B   1      29.720  29.845  37.9210  0.00  0.00     0.000 O
ATOM      9  HD  GCU B   1      30.486  29.452  37.8280  0.00  0.00     0.000 HD
ATOM      9   O  GCU B   1      30.199  31.721  40.1250  0.00  0.00     0.000 O
ATOM     11  HD  GCU B   1      30.965  31.328  40.0320  0.00  0.00     0.000 HD
ATOM     11   O  GCU B   1      28.106  33.661  40.3570  0.00  0.00     0.000 O
ATOM     13  HD  GCU B   1      28.872  33.267  40.2650  0.00  0.00     0.000 HD
ENDROOT
BRANCH 5 13
ATOM     13   C  GCU B   1      27.087  34.806  37.9300  0.00  0.00     0.000 C
ATOM     14   O  GCU B   1      27.850  35.733  38.2690  0.00  0.00     0.000 OA
ATOM     15   O  GCU B   1      25.943  35.016  37.4830  0.00  0.00     0.000 OA
ENDBRANCH 5 13
BRANCH 1 16
ATOM     16  O3  NAG B   2      28.469  31.590  35.5260  0.00  0.00     0.000 O
BRANCH 16 19
ATOM     17  C1  NAG B   2      26.093  30.429  32.8360  0.00  0.00     0.000 C
ATOM     18  C2  NAG B   2      26.961  30.325  34.0840  0.00  0.00     0.000 C
ATOM     19  C3  NAG B   2      27.508  31.700  34.4640  0.00  0.00     0.000 C
ATOM     20  C4  NAG B   2      28.198  32.348  33.2640  0.00  0.00     0.000 C
ATOM     21  C5  NAG B   2      27.238  32.400  32.0840  0.00  0.00     0.000 C
ATOM     22  O5  NAG B   2      26.815  31.062  31.7680  0.00  0.00     0.000 O
ATOM     23   O  NAG B   2      28.625  33.661  33.6440  0.00  0.00     0.000 O
ATOM     25  HD  NAG B   2      29.243  33.073  33.4930  0.00  0.00     0.000 HD
ATOM     25   C  NAG B   2      27.856  33.053  30.8490  0.00  0.00     0.000 C
ATOM     26   O  NAG B   2      28.820  32.194  30.2220  0.00  0.00     0.000 O
ATOM     28  HD  NAG B   2      29.438  31.606  30.0710  0.00  0.00     0.000 HD
BRANCH 18 30
ATOM     28   N  NAG B   2      26.030  29.521  34.8530  0.00  0.00     0.000 N
ATOM     30  HD  NAG B   2      26.804  29.222  35.1040  0.00  0.00     0.000 HD
ATOM     30   C  NAG B   2      26.397  28.491  35.6270  0.00  0.00     0.000 C
ATOM     31   C  NAG B   2      25.310  27.725  36.3270  0.00  0.00     0.000 C
ATOM     32   O  NAG B   2      27.562  28.176  35.7640  0.00  0.00     0.000 OA
ENDBRANCH 18 30
BRANCH 17 33
ATOM     33  O4  GCU B   3      25.638  29.100  32.5100  0.00  0.00     0.000 O
BRANCH 33 37
ATOM     34  C1  GCU B   3      22.516  27.817  30.0740  0.00  0.00     0.000 C
ATOM     35  C2  GCU B   3      23.857  28.122  29.4070  0.00  0.00     0.000 C
ATOM     36  C3  GCU B   3      24.950  28.151  30.4540  0.00  0.00     0.000 C
ATOM     37  C4  GCU B   3      24.581  29.140  31.5510  0.00  0.00     0.000 C
ATOM     38  C5  GCU B   3      23.231  28.754  32.1600  0.00  0.00     0.000 C
ATOM     39  O5  GCU B   3      22.246  28.754  31.1210  0.00  0.00     0.000 O
ATOM     40   O  GCU B   3      24.131  27.112  28.4340  0.00  0.00     0.000 O
ATOM     42  HD  GCU B   3      24.748  26.564  28.1720  0.00  0.00     0.000 HD
ATOM     42   O  GCU B   3      26.216  28.508  29.8720  0.00  0.00     0.000 O
ATOM     44  HD  GCU B   3      26.833  27.960  29.6090  0.00  0.00     0.000 HD
BRANCH 38 44
ATOM     44   C  GCU B   3      22.786  29.707  33.2400  0.00  0.00     0.000 C
ATOM     45   O  GCU B   3      22.244  30.772  32.9070  0.00  0.00     0.000 OA
ATOM     46   O  GCU B   3      22.964  29.410  34.4370  0.00  0.00     0.000 OA
ENDBRANCH 38 44
BRANCH 34 47
ATOM     47  O3  NAG B   4      21.547  27.997  29.1880  0.00  0.00     0.000 O
BRANCH 47 50
ATOM     48  C1  NAG B   4      20.153  24.750  28.0640  0.00  0.00     0.000 C
ATOM     49  C2  NAG B   4      20.728  25.782  29.0270  0.00  0.00     0.000 C
ATOM     50  C3  NAG B   4      20.617  27.191  28.4670  0.00  0.00     0.000 C
ATOM     51  C4  NAG B   4      20.918  27.284  26.9670  0.00  0.00     0.000 C
ATOM     52  C5  NAG B   4      19.966  26.418  26.1580  0.00  0.00     0.000 C
ATOM     53  O5  NAG B   4      19.708  25.122  26.7430  0.00  0.00     0.000 O
BRANCH 49 56
ATOM     54   N  NAG B   4      20.035  25.552  30.3070  0.00  0.00     0.000 N
ATOM     56  HD  NAG B   4      20.312  25.037  30.9470  0.00  0.00     0.000 HD
ATOM     56   C  NAG B   4      18.310  25.684  32.0090  0.00  0.00     0.000 C
ATOM     57   O  NAG B   4      18.023  26.494  29.8270  0.00  0.00     0.000 OA
ATOM     58   C  NAG B   4      18.780  25.939  30.6100  0.00  0.00     0.000 C
ENDBRANCH 49 56
ATOM     59   O  NAG B   4      19.514  25.778  23.8180  0.00  0.00     0.000 O
ATOM     61  HD  NAG B   4      19.913  25.611  24.5680  0.00  0.00     0.000 HD
ATOM     61   O  NAG B   4      19.514  25.778  23.8180  0.00  0.00     0.000 O
ATOM     63  HD  NAG B   4      19.913  25.611  24.5680  0.00  0.00     0.000 HD
ENDBRANCH 47 50
ENDBRANCH 34 47
ENDBRANCH 33 37
ENDBRANCH 17 33
ENDBRANCH 16 19
ENDBRANCH 1 16
TORSDOF 10
ENDMDL
MODEL 72
REMARK VINA RESULT:      -0.8     20.347     28.429
ROOT
ATOM      1  C1  GCU B   1      16.902  65.832   5.8290  0.00  0.00     0.000 C
ATOM      2  C2  GCU B   1      17.057  66.325   4.3980  0.00  0.00     0.000 C
ATOM      3  C3  GCU B   1      18.524  66.560   4.0730  0.00  0.00     0.000 C
ATOM      4  C4  GCU B   1      19.164  67.441   5.1350  0.00  0.00     0.000 C
ATOM      5  C5  GCU B   1      18.898  66.892   6.5380  0.00  0.00     0.000 C
ATOM      6  O5  GCU B   1      17.483  66.781   6.7380  0.00  0.00     0.000 O
ATOM      7   O  GCU B   1      16.502  65.336   3.5380  0.00  0.00     0.000 O
ATOM      9  HD  GCU B   1      15.908  65.470   2.9210  0.00  0.00     0.000 HD
ATOM      9   O  GCU B   1      18.664  67.172   2.7880  0.00  0.00     0.000 O
ATOM     11  HD  GCU B   1      18.070  67.306   2.1720  0.00  0.00     0.000 HD
ATOM     11   O  GCU B   1      20.571  67.502   4.8980  0.00  0.00     0.000 O
ATOM     13  HD  GCU B   1      19.977  67.637   4.2810  0.00  0.00     0.000 HD
ENDROOT
BRANCH 5 13
ATOM     13   C  GCU B   1      19.555  67.778   7.5690  0.00  0.00     0.000 C
ATOM     14   O  GCU B   1      20.032  67.286   8.6120  0.00  0.00     0.000 OA
ATOM     15   O  GCU B   1      19.623  68.997   7.3190  0.00  0.00     0.000 OA
ENDBRANCH 5 13
BRANCH 1 16
ATOM     16  O3  NAG B   2      15.837  65.960   6.6220  0.00  0.00     0.000 O
BRANCH 16 19
ATOM     17  C1  NAG B   2      13.334  63.499   8.0040  0.00  0.00     0.000 C
ATOM     18  C2  NAG B   2      14.111  64.264   6.9400  0.00  0.00     0.000 C
ATOM     19  C3  NAG B   2      15.216  65.097   7.5880  0.00  0.00     0.000 C
ATOM     20  C4  NAG B   2      14.640  65.969   8.7040  0.00  0.00     0.000 C
ATOM     21  C5  NAG B   2      13.893  65.099   9.7040  0.00  0.00     0.000 C
ATOM     22  O5  NAG B   2      12.845  64.394   9.0160  0.00  0.00     0.000 O
ATOM     23   O  NAG B   2      15.720  66.670   9.3300  0.00  0.00     0.000 O
ATOM     25  HD  NAG B   2      15.156  67.142   8.8730  0.00  0.00     0.000 HD
ATOM     25   C  NAG B   2      13.302  65.904  10.8600  0.00  0.00     0.000 C
ATOM     26   O  NAG B   2      12.162  66.671  10.4440  0.00  0.00     0.000 O
ATOM     28  HD  NAG B   2      11.598  67.142   9.9870  0.00  0.00     0.000 HD
BRANCH 18 30
ATOM     28   N  NAG B   2      13.511  63.870   5.6800  0.00  0.00     0.000 N
ATOM     30  HD  NAG B   2      14.298  63.512   5.6440  0.00  0.00     0.000 HD
ATOM     30   C  NAG B   2      14.170  63.227   4.7080  0.00  0.00     0.000 C
ATOM     31   C  NAG B   2      13.422  62.926   3.4400  0.00  0.00     0.000 C
ATOM     32   O  NAG B   2      15.332  62.894   4.8340  0.00  0.00     0.000 OA
ENDBRANCH 18 30
BRANCH 17 33
ATOM     33  O4  GCU B   3      12.288  62.765   7.3360  0.00  0.00     0.000 O
BRANCH 33 37
ATOM     34  C1  GCU B   3      10.503  59.115   8.2420  0.00  0.00     0.000 C
ATOM     35  C2  GCU B   3      10.071  60.337   9.0530  0.00  0.00     0.000 C
ATOM     36  C3  GCU B   3      10.482  61.599   8.3250  0.00  0.00     0.000 C
ATOM     37  C4  GCU B   3      11.976  61.561   8.0390  0.00  0.00     0.000 C
ATOM     38  C5  GCU B   3      12.313  60.310   7.2240  0.00  0.00     0.000 C
ATOM     39  O5  GCU B   3      11.907  59.158   7.9710  0.00  0.00     0.000 O
ATOM     40   O  GCU B   3       8.652  60.303   9.2220  0.00  0.00     0.000 O
ATOM     42  HD  GCU B   3       7.941  60.790   9.1380  0.00  0.00     0.000 HD
ATOM     42   O  GCU B   3      10.155  62.770   9.0950  0.00  0.00     0.000 O
ATOM     44  HD  GCU B   3       9.444  63.257   9.0120  0.00  0.00     0.000 HD
BRANCH 38 44
ATOM     44   C  GCU B   3      13.785  60.191   6.9230  0.00  0.00     0.000 C
ATOM     45   O  GCU B   3      14.596  60.353   7.8480  0.00  0.00     0.000 OA
ATOM     46   O  GCU B   3      14.159  59.931   5.7630  0.00  0.00     0.000 OA
ENDBRANCH 38 44
BRANCH 34 47
ATOM     47  O3  NAG B   4      10.326  58.028   8.9800  0.00  0.00     0.000 O
BRANCH 47 50
ATOM     48  C1  NAG B   4       9.936  54.686   7.4190  0.00  0.00     0.000 C
ATOM     49  C2  NAG B   4      10.654  55.886   8.0280  0.00  0.00     0.000 C
ATOM     50  C3  NAG B   4       9.705  56.751   8.8400  0.00  0.00     0.000 C
ATOM     51  C4  NAG B   4       8.324  56.924   8.1970  0.00  0.00     0.000 C
ATOM     52  C5  NAG B   4       7.633  55.584   8.0050  0.00  0.00     0.000 C
ATOM     53  O5  NAG B   4       8.504  54.536   7.5240  0.00  0.00     0.000 O
BRANCH 49 56
ATOM     54   N  NAG B   4      11.803  55.380   8.7990  0.00  0.00     0.000 N
ATOM     56  HD  NAG B   4      12.631  55.402   8.5470  0.00  0.00     0.000 HD
ATOM     56   C  NAG B   4      13.035  54.307  10.5950  0.00  0.00     0.000 C
ATOM     57   O  NAG B   4      10.698  54.222  10.4140  0.00  0.00     0.000 OA
ATOM     58   C  NAG B   4      11.738  54.630   9.9180  0.00  0.00     0.000 C
ENDBRANCH 49 56
ATOM     59   O  NAG B   4       5.531  54.649   7.1110  0.00  0.00     0.000 O
ATOM     61  HD  NAG B   4       6.358  54.869   6.9810  0.00  0.00     0.000 HD
ATOM     61   O  NAG B   4       5.531  54.649   7.1110  0.00  0.00     0.000 O
ATOM     63  HD  NAG B   4       6.358  54.869   6.9810  0.00  0.00     0.000 HD
ENDBRANCH 47 50
ENDBRANCH 34 47
ENDBRANCH 33 37
ENDBRANCH 17 33
ENDBRANCH 16 19
ENDBRANCH 1 16
TORSDOF 10
ENDMDL
MODEL 73
REMARK VINA RESULT:      -0.8     19.728     25.141
ROOT
ATOM      1  C1  GCU B   1      33.233  31.100  29.6370  0.00  0.00     0.000 C
ATOM      2  C2  GCU B   1      34.178  32.173  29.1180  0.00  0.00     0.000 C
ATOM      3  C3  GCU B   1      35.426  31.540  28.5210  0.00  0.00     0.000 C
ATOM      4  C4  GCU B   1      36.040  30.559  29.5070  0.00  0.00     0.000 C
ATOM      5  C5  GCU B   1      34.995  29.562  30.0140  0.00  0.00     0.000 C
ATOM      6  O5  GCU B   1      33.907  30.284  30.6080  0.00  0.00     0.000 O
ATOM      7   O  GCU B   1      33.476  32.928  28.1350  0.00  0.00     0.000 O
ATOM      9  HD  GCU B   1      33.393  33.790  28.1170  0.00  0.00     0.000 HD
ATOM      9   O  GCU B   1      36.384  32.544  28.1780  0.00  0.00     0.000 O
ATOM     11  HD  GCU B   1      36.301  33.406  28.1590  0.00  0.00     0.000 HD
ATOM     11   O  GCU B   1      37.102  29.858  28.8600  0.00  0.00     0.000 O
ATOM     13  HD  GCU B   1      37.019  30.719  28.8410  0.00  0.00     0.000 HD
ENDROOT
BRANCH 5 13
ATOM     13   C  GCU B   1      35.635  28.593  30.9790  0.00  0.00     0.000 C
ATOM     14   O  GCU B   1      35.212  27.423  31.0720  0.00  0.00     0.000 OA
ATOM     15   O  GCU B   1      36.606  29.002  31.6440  0.00  0.00     0.000 OA
ENDBRANCH 5 13
BRANCH 1 16
ATOM     16  O3  NAG B   2      32.319  31.218  30.6020  0.00  0.00     0.000 O
BRANCH 16 19
ATOM     17  C1  NAG B   2      28.632  30.430  30.4970  0.00  0.00     0.000 C
ATOM     18  C2  NAG B   2      29.951  31.041  30.0410  0.00  0.00     0.000 C
ATOM     19  C3  NAG B   2      31.101  30.518  30.8990  0.00  0.00     0.000 C
ATOM     20  C4  NAG B   2      30.790  30.714  32.3830  0.00  0.00     0.000 C
ATOM     21  C5  NAG B   2      29.458  30.062  32.7210  0.00  0.00     0.000 C
ATOM     22  O5  NAG B   2      28.431  30.649  31.9030  0.00  0.00     0.000 O
ATOM     23   O  NAG B   2      31.857  30.141  33.1470  0.00  0.00     0.000 O
ATOM     25  HD  NAG B   2      31.775  31.003  33.1680  0.00  0.00     0.000 HD
ATOM     25   C  NAG B   2      29.088  30.204  34.1960  0.00  0.00     0.000 C
ATOM     26   O  NAG B   2      28.686  31.546  34.5150  0.00  0.00     0.000 O
ATOM     28  HD  NAG B   2      28.604  32.408  34.5360  0.00  0.00     0.000 HD
BRANCH 18 30
ATOM     28   N  NAG B   2      29.749  30.804  28.6240  0.00  0.00     0.000 N
ATOM     30  HD  NAG B   2      30.175  31.557  28.6400  0.00  0.00     0.000 HD
ATOM     30   C  NAG B   2      30.064  31.686  27.6680  0.00  0.00     0.000 C
ATOM     31   C  NAG B   2      29.753  31.313  26.2460  0.00  0.00     0.000 C
ATOM     32   O  NAG B   2      30.581  32.755  27.9270  0.00  0.00     0.000 OA
ENDBRANCH 18 30
BRANCH 17 33
ATOM     33  O4  GCU B   3      27.586  30.988  29.6760  0.00  0.00     0.000 O
BRANCH 33 37
ATOM     34  C1  GCU B   3      23.675  29.717  29.0300  0.00  0.00     0.000 C
ATOM     35  C2  GCU B   3      23.936  30.631  30.2280  0.00  0.00     0.000 C
ATOM     36  C3  GCU B   3      25.274  31.318  30.0600  0.00  0.00     0.000 C
ATOM     37  C4  GCU B   3      26.361  30.274  29.8480  0.00  0.00     0.000 C
ATOM     38  C5  GCU B   3      26.017  29.412  28.6320  0.00  0.00     0.000 C
ATOM     39  O5  GCU B   3      24.749  28.788  28.8590  0.00  0.00     0.000 O
ATOM     40   O  GCU B   3      22.889  31.601  30.3070  0.00  0.00     0.000 O
ATOM     42  HD  GCU B   3      22.749  32.452  30.3850  0.00  0.00     0.000 HD
ATOM     42   O  GCU B   3      25.586  32.132  31.2050  0.00  0.00     0.000 O
ATOM     44  HD  GCU B   3      25.446  32.983  31.2830  0.00  0.00     0.000 HD
BRANCH 38 44
ATOM     44   C  GCU B   3      27.040  28.334  28.3740  0.00  0.00     0.000 C
ATOM     45   O  GCU B   3      26.942  27.262  28.9900  0.00  0.00     0.000 OA
ATOM     46   O  GCU B   3      27.955  28.535  27.5520  0.00  0.00     0.000 OA
ENDBRANCH 38 44
BRANCH 34 47
ATOM     47  O3  NAG B   4      22.608  28.972  29.2850  0.00  0.00     0.000 O
BRANCH 47 50
ATOM     48  C1  NAG B   4      18.977  28.872  28.5380  0.00  0.00     0.000 C
ATOM     49  C2  NAG B   4      20.342  29.484  28.8350  0.00  0.00     0.000 C
ATOM     50  C3  NAG B   4      21.466  28.494  28.5780  0.00  0.00     0.000 C
ATOM     51  C4  NAG B   4      21.146  27.065  29.0340  0.00  0.00     0.000 C
ATOM     52  C5  NAG B   4      19.917  26.522  28.3230  0.00  0.00     0.000 C
ATOM     53  O5  NAG B   4      18.839  27.476  28.1970  0.00  0.00     0.000 O
BRANCH 49 56
ATOM     54   N  NAG B   4      20.381  30.723  28.0370  0.00  0.00     0.000 N
ATOM     56  HD  NAG B   4      20.113  31.503  28.3010  0.00  0.00     0.000 HD
ATOM     56   C  NAG B   4      20.731  32.183  26.1300  0.00  0.00     0.000 C
ATOM     57   O  NAG B   4      20.846  29.845  25.9930  0.00  0.00     0.000 OA
ATOM     58   C  NAG B   4      20.650  30.808  26.7190  0.00  0.00     0.000 C
ENDBRANCH 49 56
ATOM     59   O  NAG B   4      18.518  24.490  28.2470  0.00  0.00     0.000 O
ATOM     61  HD  NAG B   4      18.664  25.277  28.5770  0.00  0.00     0.000 HD
ATOM     61   O  NAG B   4      18.518  24.490  28.2470  0.00  0.00     0.000 O
ATOM     63  HD  NAG B   4      18.664  25.277  28.5770  0.00  0.00     0.000 HD
ENDBRANCH 47 50
ENDBRANCH 34 47
ENDBRANCH 33 37
ENDBRANCH 17 33
ENDBRANCH 16 19
ENDBRANCH 1 16
TORSDOF 10
ENDMDL
MODEL 74
REMARK VINA RESULT:      -0.7     35.416     38.620
ROOT
ATOM      1  C1  GCU B   1      31.627  10.246  41.0420  0.00  0.00     0.000 C
ATOM      2  C2  GCU B   1      32.784  10.186  42.0270  0.00  0.00     0.000 C
ATOM      3  C3  GCU B   1      34.105  10.033  41.2880  0.00  0.00     0.000 C
ATOM      4  C4  GCU B   1      34.027   8.872  40.3090  0.00  0.00     0.000 C
ATOM      5  C5  GCU B   1      32.798   8.996  39.4060  0.00  0.00     0.000 C
ATOM      6  O5  GCU B   1      31.621   9.066  40.2220  0.00  0.00     0.000 O
ATOM      7   O  GCU B   1      32.768  11.390  42.7870  0.00  0.00     0.000 O
ATOM      9  HD  GCU B   1      32.775  11.449  43.6510  0.00  0.00     0.000 HD
ATOM      9   O  GCU B   1      35.176   9.817  42.2110  0.00  0.00     0.000 O
ATOM     11  HD  GCU B   1      35.183   9.876  43.0750  0.00  0.00     0.000 HD
ATOM     11   O  GCU B   1      35.212   8.861  39.5120  0.00  0.00     0.000 O
ATOM     13  HD  GCU B   1      35.219   8.920  40.3760  0.00  0.00     0.000 HD
ENDROOT
BRANCH 5 13
ATOM     13   C  GCU B   1      32.755   7.839  38.4360  0.00  0.00     0.000 C
ATOM     14   O  GCU B   1      32.253   7.985  37.3030  0.00  0.00     0.000 OA
ATOM     15   O  GCU B   1      33.260   6.762  38.8050  0.00  0.00     0.000 OA
ENDBRANCH 5 13
BRANCH 1 16
ATOM     16  O3  NAG B   2      30.354   9.910  41.2610  0.00  0.00     0.000 O
BRANCH 16 19
ATOM     17  C1  NAG B   2      27.280  12.045  40.7880  0.00  0.00     0.000 C
ATOM     18  C2  NAG B   2      28.688  11.693  41.2520  0.00  0.00     0.000 C
ATOM     19  C3  NAG B   2      29.108  10.337  40.6880  0.00  0.00     0.000 C
ATOM     20  C4  NAG B   2      28.052   9.279  41.0050  0.00  0.00     0.000 C
ATOM     21  C5  NAG B   2      26.694   9.736  40.4930  0.00  0.00     0.000 C
ATOM     22  O5  NAG B   2      26.361  10.991  41.1130  0.00  0.00     0.000 O
ATOM     23   O  NAG B   2      28.450   8.047  40.3920  0.00  0.00     0.000 O
ATOM     25  HD  NAG B   2      28.463   8.080  41.2570  0.00  0.00     0.000 HD
ATOM     25   C  NAG B   2      25.588   8.717  40.7610  0.00  0.00     0.000 C
ATOM     26   O  NAG B   2      25.223   8.683  42.1490  0.00  0.00     0.000 O
ATOM     28  HD  NAG B   2      25.237   8.716  43.0150  0.00  0.00     0.000 HD
BRANCH 18 30
ATOM     28   N  NAG B   2      29.323  12.954  40.9180  0.00  0.00     0.000 N
ATOM     30  HD  NAG B   2      29.694  12.740  41.6710  0.00  0.00     0.000 HD
ATOM     30   C  NAG B   2      30.163  13.605  41.7320  0.00  0.00     0.000 C
ATOM     31   C  NAG B   2      30.705  14.926  41.2620  0.00  0.00     0.000 C
ATOM     32   O  NAG B   2      30.481  13.157  42.8150  0.00  0.00     0.000 OA
ENDBRANCH 18 30
BRANCH 17 33
ATOM     33  O4  GCU B   3      26.930  13.312  41.3800  0.00  0.00     0.000 O
BRANCH 33 37
ATOM     34  C1  GCU B   3      23.993  16.071  40.3350  0.00  0.00     0.000 C
ATOM     35  C2  GCU B   3      23.601  14.946  41.2930  0.00  0.00     0.000 C
ATOM     36  C3  GCU B   3      24.849  14.322  41.8800  0.00  0.00     0.000 C
ATOM     37  C4  GCU B   3      25.771  13.867  40.7570  0.00  0.00     0.000 C
ATOM     38  C5  GCU B   3      26.109  15.056  39.8560  0.00  0.00     0.000 C
ATOM     39  O5  GCU B   3      24.890  15.591  39.3300  0.00  0.00     0.000 O
ATOM     40   O  GCU B   3      22.782  15.486  42.3320  0.00  0.00     0.000 O
ATOM     42  HD  GCU B   3      22.695  15.507  43.1930  0.00  0.00     0.000 HD
ATOM     42   O  GCU B   3      24.521  13.210  42.7320  0.00  0.00     0.000 O
ATOM     44  HD  GCU B   3      24.433  13.231  43.5930  0.00  0.00     0.000 HD
BRANCH 38 44
ATOM     44   C  GCU B   3      27.002  14.676  38.7020  0.00  0.00     0.000 C
ATOM     45   O  GCU B   3      28.219  14.900  38.7930  0.00  0.00     0.000 OA
ATOM     46   O  GCU B   3      26.509  14.146  37.6880  0.00  0.00     0.000 OA
ENDBRANCH 38 44
BRANCH 34 47
ATOM     47  O3  NAG B   4      22.913  16.467  39.6760  0.00  0.00     0.000 O
BRANCH 47 50
ATOM     48  C1  NAG B   4      21.021  17.060  36.5420  0.00  0.00     0.000 C
ATOM     49  C2  NAG B   4      22.150  17.197  37.5580  0.00  0.00     0.000 C
ATOM     50  C3  NAG B   4      22.156  16.041  38.5450  0.00  0.00     0.000 C
ATOM     51  C4  NAG B   4      20.757  15.611  39.0000  0.00  0.00     0.000 C
ATOM     52  C5  NAG B   4      19.904  15.172  37.8210  0.00  0.00     0.000 C
ATOM     53  O5  NAG B   4      20.034  16.014  36.6540  0.00  0.00     0.000 O
BRANCH 49 56
ATOM     54   N  NAG B   4      23.211  16.752  36.6370  0.00  0.00     0.000 N
ATOM     56  HD  NAG B   4      23.204  16.021  36.1730  0.00  0.00     0.000 HD
ATOM     56   C  NAG B   4      25.327  16.745  35.4470  0.00  0.00     0.000 C
ATOM     57   O  NAG B   4      24.852  18.218  37.2100  0.00  0.00     0.000 OA
ATOM     58   C  NAG B   4      24.438  17.299  36.5190  0.00  0.00     0.000 C
ENDBRANCH 49 56
ATOM     59   O  NAG B   4      17.630  14.346  37.3340  0.00  0.00     0.000 O
ATOM     61  HD  NAG B   4      18.176  15.014  37.4040  0.00  0.00     0.000 HD
ATOM     61   O  NAG B   4      17.630  14.346  37.3340  0.00  0.00     0.000 O
ATOM     63  HD  NAG B   4      18.176  15.014  37.4040  0.00  0.00     0.000 HD
ENDBRANCH 47 50
ENDBRANCH 34 47
ENDBRANCH 33 37
ENDBRANCH 17 33
ENDBRANCH 16 19
ENDBRANCH 1 16
TORSDOF 10
ENDMDL
MODEL 75
REMARK VINA RESULT:      -0.7     14.294     21.752
ROOT
ATOM      1  C1  GCU B   1      24.519  55.022  15.8340  0.00  0.00     0.000 C
ATOM      2  C2  GCU B   1      25.804  54.416  15.2910  0.00  0.00     0.000 C
ATOM      3  C3  GCU B   1      26.671  53.900  16.4280  0.00  0.00     0.000 C
ATOM      4  C4  GCU B   1      26.859  54.983  17.4790  0.00  0.00     0.000 C
ATOM      5  C5  GCU B   1      25.514  55.569  17.9120  0.00  0.00     0.000 C
ATOM      6  O5  GCU B   1      24.829  56.076  16.7590  0.00  0.00     0.000 O
ATOM      7   O  GCU B   1      25.444  53.356  14.4100  0.00  0.00     0.000 O
ATOM      9  HD  GCU B   1      25.718  53.254  13.5950  0.00  0.00     0.000 HD
ATOM      9   O  GCU B   1      27.945  53.475  15.9380  0.00  0.00     0.000 O
ATOM     11  HD  GCU B   1      28.219  53.373  15.1230  0.00  0.00     0.000 HD
ATOM     11   O  GCU B   1      27.528  54.421  18.6080  0.00  0.00     0.000 O
ATOM     13  HD  GCU B   1      27.801  54.319  17.7930  0.00  0.00     0.000 HD
ENDROOT
BRANCH 5 13
ATOM     13   C  GCU B   1      25.730  56.630  18.9640  0.00  0.00     0.000 C
ATOM     14   O  GCU B   1      25.694  57.840  18.6570  0.00  0.00     0.000 OA
ATOM     15   O  GCU B   1      25.915  56.248  20.1360  0.00  0.00     0.000 OA
ENDBRANCH 5 13
BRANCH 1 16
ATOM     16  O3  NAG B   2      23.758  55.959  15.2640  0.00  0.00     0.000 O
BRANCH 16 19
ATOM     17  C1  NAG B   2      20.115  55.838  14.2930  0.00  0.00     0.000 C
ATOM     18  C2  NAG B   2      21.566  55.379  14.3620  0.00  0.00     0.000 C
ATOM     19  C3  NAG B   2      22.355  56.263  15.3260  0.00  0.00     0.000 C
ATOM     20  C4  NAG B   2      22.173  57.737  14.9680  0.00  0.00     0.000 C
ATOM     21  C5  NAG B   2      20.690  58.080  14.9330  0.00  0.00     0.000 C
ATOM     22  O5  NAG B   2      20.040  57.235  13.9660  0.00  0.00     0.000 O
ATOM     23   O  NAG B   2      22.865  58.527  15.9410  0.00  0.00     0.000 O
ATOM     25  HD  NAG B   2      23.184  58.524  15.1360  0.00  0.00     0.000 HD
ATOM     25   C  NAG B   2      20.431  59.546  14.5960  0.00  0.00     0.000 C
ATOM     26   O  NAG B   2      20.684  59.825  13.2100  0.00  0.00     0.000 O
ATOM     28  HD  NAG B   2      21.003  59.822  12.4050  0.00  0.00     0.000 HD
BRANCH 18 30
ATOM     28   N  NAG B   2      21.297  53.966  14.5480  0.00  0.00     0.000 N
ATOM     30  HD  NAG B   2      21.993  53.968  14.0330  0.00  0.00     0.000 HD
ATOM     30   C  NAG B   2      21.952  52.991  13.9060  0.00  0.00     0.000 C
ATOM     31   C  NAG B   2      21.528  51.574  14.1720  0.00  0.00     0.000 C
ATOM     32   O  NAG B   2      22.857  53.230  13.1310  0.00  0.00     0.000 OA
ENDBRANCH 18 30
BRANCH 17 33
ATOM     33  O4  GCU B   3      19.435  54.992  13.3440  0.00  0.00     0.000 O
BRANCH 33 37
ATOM     34  C1  GCU B   3      15.374  54.277  12.7700  0.00  0.00     0.000 C
ATOM     35  C2  GCU B   3      15.992  55.476  12.0500  0.00  0.00     0.000 C
ATOM     36  C3  GCU B   3      17.499  55.331  12.0260  0.00  0.00     0.000 C
ATOM     37  C4  GCU B   3      18.018  55.143  13.4440  0.00  0.00     0.000 C
ATOM     38  C5  GCU B   3      17.348  53.924  14.0800  0.00  0.00     0.000 C
ATOM     39  O5  GCU B   3      15.931  54.130  14.0790  0.00  0.00     0.000 O
ATOM     40   O  GCU B   3      15.479  55.532  10.7180  0.00  0.00     0.000 O
ATOM     42  HD  GCU B   3      15.727  55.605   9.8910  0.00  0.00     0.000 HD
ATOM     42   O  GCU B   3      18.120  56.479  11.4190  0.00  0.00     0.000 O
ATOM     44  HD  GCU B   3      18.367  56.552  10.5930  0.00  0.00     0.000 HD
BRANCH 38 44
ATOM     44   C  GCU B   3      17.796  53.689  15.5010  0.00  0.00     0.000 C
ATOM     45   O  GCU B   3      17.294  54.377  16.4030  0.00  0.00     0.000 OA
ATOM     46   O  GCU B   3      18.650  52.815  15.7430  0.00  0.00     0.000 OA
ENDBRANCH 38 44
BRANCH 34 47
ATOM     47  O3  NAG B   4      14.085  54.515  12.9660  0.00  0.00     0.000 O
BRANCH 47 50
ATOM     48  C1  NAG B   4      10.817  54.513  14.7210  0.00  0.00     0.000 C
ATOM     49  C2  NAG B   4      11.985  53.962  13.9090  0.00  0.00     0.000 C
ATOM     50  C3  NAG B   4      13.227  54.824  14.0630  0.00  0.00     0.000 C
ATOM     51  C4  NAG B   4      12.937  56.330  14.0730  0.00  0.00     0.000 C
ATOM     52  C5  NAG B   4      12.004  56.703  15.2140  0.00  0.00     0.000 C
ATOM     53  O5  NAG B   4      10.913  55.777  15.4100  0.00  0.00     0.000 O
BRANCH 49 56
ATOM     54   N  NAG B   4      12.475  52.888  14.7910  0.00  0.00     0.000 N
ATOM     56  HD  NAG B   4      13.012  52.991  15.4620  0.00  0.00     0.000 HD
ATOM     56   C  NAG B   4      12.825  50.650  15.6610  0.00  0.00     0.000 C
ATOM     57   O  NAG B   4      11.814  51.076  13.5890  0.00  0.00     0.000 OA
ATOM     58   C  NAG B   4      12.332  51.564  14.5820  0.00  0.00     0.000 C
ENDBRANCH 49 56
ATOM     59   O  NAG B   4      10.882  58.683  16.1710  0.00  0.00     0.000 O
ATOM     61  HD  NAG B   4      10.856  58.004  15.6340  0.00  0.00     0.000 HD
ATOM     61   O  NAG B   4      10.882  58.683  16.1710  0.00  0.00     0.000 O
ATOM     63  HD  NAG B   4      10.856  58.004  15.6340  0.00  0.00     0.000 HD
ENDBRANCH 47 50
ENDBRANCH 34 47
ENDBRANCH 33 37
ENDBRANCH 17 33
ENDBRANCH 16 19
ENDBRANCH 1 16
TORSDOF 10
ENDMDL
MODEL 76
REMARK VINA RESULT:      -0.4     16.710     23.392
ROOT
ATOM      1  C1  GCU B   1      24.567  59.269  16.1760  0.00  0.00     0.000 C
ATOM      2  C2  GCU B   1      23.850  60.403  16.8920  0.00  0.00     0.000 C
ATOM      3  C3  GCU B   1      24.575  61.720  16.6610  0.00  0.00     0.000 C
ATOM      4  C4  GCU B   1      26.051  61.573  16.9950  0.00  0.00     0.000 C
ATOM      5  C5  GCU B   1      26.661  60.370  16.2740  0.00  0.00     0.000 C
ATOM      6  O5  GCU B   1      25.928  59.189  16.6270  0.00  0.00     0.000 O
ATOM      7   O  GCU B   1      22.521  60.463  16.3850  0.00  0.00     0.000 O
ATOM      9  HD  GCU B   1      21.794  60.461  16.8550  0.00  0.00     0.000 HD
ATOM      9   O  GCU B   1      23.999  62.759  17.4570  0.00  0.00     0.000 O
ATOM     11  HD  GCU B   1      23.272  62.757  17.9280  0.00  0.00     0.000 HD
ATOM     11   O  GCU B   1      26.733  62.766  16.6070  0.00  0.00     0.000 O
ATOM     13  HD  GCU B   1      26.006  62.765  17.0780  0.00  0.00     0.000 HD
ENDROOT
BRANCH 5 13
ATOM     13   C  GCU B   1      28.128  60.258  16.6130  0.00  0.00     0.000 C
ATOM     14   O  GCU B   1      28.590  60.837  17.6170  0.00  0.00     0.000 OA
ATOM     15   O  GCU B   1      28.836  59.549  15.8710  0.00  0.00     0.000 OA
ENDBRANCH 5 13
BRANCH 1 16
ATOM     16  O3  NAG B   2      24.552  57.971  16.4890  0.00  0.00     0.000 O
BRANCH 16 19
ATOM     17  C1  NAG B   2      23.043  54.911  14.8820  0.00  0.00     0.000 C
ATOM     18  C2  NAG B   2      23.066  56.283  15.5430  0.00  0.00     0.000 C
ATOM     19  C3  NAG B   2      24.505  56.768  15.7070  0.00  0.00     0.000 C
ATOM     20  C4  NAG B   2      25.346  55.707  16.4170  0.00  0.00     0.000 C
ATOM     21  C5  NAG B   2      25.250  54.386  15.6680  0.00  0.00     0.000 C
ATOM     22  O5  NAG B   2      23.869  53.985  15.6060  0.00  0.00     0.000 O
ATOM     23   O  NAG B   2      26.699  56.171  16.4790  0.00  0.00     0.000 O
ATOM     25  HD  NAG B   2      26.266  56.116  17.2270  0.00  0.00     0.000 HD
ATOM     25   C  NAG B   2      26.081  53.279  16.3130  0.00  0.00     0.000 C
ATOM     26   O  NAG B   2      25.482  52.807  17.5300  0.00  0.00     0.000 O
ATOM     28  HD  NAG B   2      25.049  52.752  18.2780  0.00  0.00     0.000 HD
BRANCH 18 30
ATOM     28   N  NAG B   2      21.667  56.622  15.7230  0.00  0.00     0.000 N
ATOM     30  HD  NAG B   2      21.935  57.196  15.1330  0.00  0.00     0.000 HD
ATOM     30   C  NAG B   2      21.078  57.685  15.1620  0.00  0.00     0.000 C
ATOM     31   C  NAG B   2      19.630  57.929  15.4800  0.00  0.00     0.000 C
ATOM     32   O  NAG B   2      21.682  58.435  14.4220  0.00  0.00     0.000 OA
ENDBRANCH 18 30
BRANCH 17 33
ATOM     33  O4  GCU B   3      21.665  54.495  14.7890  0.00  0.00     0.000 O
BRANCH 33 37
ATOM     34  C1  GCU B   3      19.756  51.966  12.0880  0.00  0.00     0.000 C
ATOM     35  C2  GCU B   3      20.520  51.322  13.2460  0.00  0.00     0.000 C
ATOM     36  C3  GCU B   3      20.770  52.354  14.3250  0.00  0.00     0.000 C
ATOM     37  C4  GCU B   3      21.482  53.558  13.7260  0.00  0.00     0.000 C
ATOM     38  C5  GCU B   3      20.646  54.135  12.5820  0.00  0.00     0.000 C
ATOM     39  O5  GCU B   3      20.455  53.114  11.5970  0.00  0.00     0.000 O
ATOM     40   O  GCU B   3      19.745  50.240  13.7670  0.00  0.00     0.000 O
ATOM     42  HD  GCU B   3      19.439  49.911  14.5070  0.00  0.00     0.000 HD
ATOM     42   O  GCU B   3      21.550  51.801  15.4000  0.00  0.00     0.000 O
ATOM     44  HD  GCU B   3      21.244  51.473  16.1400  0.00  0.00     0.000 HD
BRANCH 38 44
ATOM     44   C  GCU B   3      21.303  55.320  11.9200  0.00  0.00     0.000 C
ATOM     45   O  GCU B   3      22.410  55.162  11.3820  0.00  0.00     0.000 OA
ATOM     46   O  GCU B   3      20.729  56.426  11.9220  0.00  0.00     0.000 OA
ENDBRANCH 38 44
BRANCH 34 47
ATOM     47  O3  NAG B   4      19.726  51.117  11.0710  0.00  0.00     0.000 O
BRANCH 47 50
ATOM     48  C1  NAG B   4      17.212  51.228   8.3470  0.00  0.00     0.000 C
ATOM     49  C2  NAG B   4      18.532  51.493   9.0630  0.00  0.00     0.000 C
ATOM     50  C3  NAG B   4      18.743  50.530  10.2190  0.00  0.00     0.000 C
ATOM     51  C4  NAG B   4      17.472  50.247  11.0280  0.00  0.00     0.000 C
ATOM     52  C5  NAG B   4      16.386  49.644  10.1520  0.00  0.00     0.000 C
ATOM     53  O5  NAG B   4      16.267  50.260   8.8510  0.00  0.00     0.000 O
BRANCH 49 56
ATOM     54   N  NAG B   4      19.616  51.454   8.0650  0.00  0.00     0.000 N
ATOM     56  HD  NAG B   4      20.037  52.142   7.7490  0.00  0.00     0.000 HD
ATOM     56   C  NAG B   4      21.184  50.542   6.4530  0.00  0.00     0.000 C
ATOM     57   O  NAG B   4      19.430  49.294   7.3850  0.00  0.00     0.000 OA
ATOM     58   C  NAG B   4      19.989  50.380   7.3420  0.00  0.00     0.000 C
ENDBRANCH 49 56
ATOM     59   O  NAG B   4      14.056  48.843  10.3090  0.00  0.00     0.000 O
ATOM     61  HD  NAG B   4      14.608  49.488  10.1410  0.00  0.00     0.000 HD
ATOM     61   O  NAG B   4      14.056  48.843  10.3090  0.00  0.00     0.000 O
ATOM     63  HD  NAG B   4      14.608  49.488  10.1410  0.00  0.00     0.000 HD
ENDBRANCH 47 50
ENDBRANCH 34 47
ENDBRANCH 33 37
ENDBRANCH 17 33
ENDBRANCH 16 19
ENDBRANCH 1 16
TORSDOF 10
ENDMDL
MODEL 77
REMARK VINA RESULT:      -0.3     56.651     62.375
ROOT
ATOM      1  C1  GCU B   1      61.529  64.186  28.0330  0.00  0.00     0.000 C
ATOM      2  C2  GCU B   1      61.269  62.820  27.4180  0.00  0.00     0.000 C
ATOM      3  C3  GCU B   1      59.831  62.391  27.6650  0.00  0.00     0.000 C
ATOM      4  C4  GCU B   1      59.494  62.510  29.1430  0.00  0.00     0.000 C
ATOM      5  C5  GCU B   1      59.849  63.899  29.6780  0.00  0.00     0.000 C
ATOM      6  O5  GCU B   1      61.240  64.152  29.4400  0.00  0.00     0.000 O
ATOM      7   O  GCU B   1      61.533  62.918  26.0220  0.00  0.00     0.000 O
ATOM      9  HD  GCU B   1      62.053  62.399  25.5630  0.00  0.00     0.000 HD
ATOM      9   O  GCU B   1      59.625  61.045  27.2290  0.00  0.00     0.000 O
ATOM     11  HD  GCU B   1      60.145  60.526  26.7700  0.00  0.00     0.000 HD
ATOM     11   O  GCU B   1      58.098  62.267  29.3190  0.00  0.00     0.000 O
ATOM     13  HD  GCU B   1      58.617  61.748  28.8610  0.00  0.00     0.000 HD
ENDROOT
BRANCH 5 13
ATOM     13   C  GCU B   1      59.491  63.993  31.1420  0.00  0.00     0.000 C
ATOM     14   O  GCU B   1      58.305  64.162  31.4920  0.00  0.00     0.000 OA
ATOM     15   O  GCU B   1      60.416  63.866  31.9680  0.00  0.00     0.000 OA
ENDBRANCH 5 13
BRANCH 1 16
ATOM     16  O3  NAG B   2      62.697  64.684  28.4450  0.00  0.00     0.000 O
BRANCH 16 19
ATOM     17  C1  NAG B   2      64.390  67.887  27.3930  0.00  0.00     0.000 C
ATOM     18  C2  NAG B   2      63.672  66.555  27.2180  0.00  0.00     0.000 C
ATOM     19  C3  NAG B   2      63.212  66.018  28.5730  0.00  0.00     0.000 C
ATOM     20  C4  NAG B   2      64.381  65.985  29.5570  0.00  0.00     0.000 C
ATOM     21  C5  NAG B   2      65.014  67.366  29.6520  0.00  0.00     0.000 C
ATOM     22  O5  NAG B   2      65.460  67.765  28.3440  0.00  0.00     0.000 O
ATOM     23   O  NAG B   2      63.887  65.552  30.8290  0.00  0.00     0.000 O
ATOM     25  HD  NAG B   2      64.419  65.014  30.4080  0.00  0.00     0.000 HD
ATOM     25   C  NAG B   2      66.183  67.412  30.6340  0.00  0.00     0.000 C
ATOM     26   O  NAG B   2      67.344  66.749  30.1080  0.00  0.00     0.000 O
ATOM     28  HD  NAG B   2      67.876  66.211  29.6870  0.00  0.00     0.000 HD
BRANCH 18 30
ATOM     28   N  NAG B   2      62.799  66.966  26.1350  0.00  0.00     0.000 N
ATOM     30  HD  NAG B   2      63.002  66.150  25.9260  0.00  0.00     0.000 HD
ATOM     30   C  NAG B   2      62.555  66.222  25.0500  0.00  0.00     0.000 C
ATOM     31   C  NAG B   2      61.662  66.805  23.9910  0.00  0.00     0.000 C
ATOM     32   O  NAG B   2      63.033  65.113  24.9120  0.00  0.00     0.000 OA
ENDBRANCH 18 30
BRANCH 17 33
ATOM     33  O4  GCU B   3      64.829  68.320  26.0900  0.00  0.00     0.000 O
BRANCH 33 37
ATOM     34  C1  GCU B   3      65.975  72.084  24.7300  0.00  0.00     0.000 C
ATOM     35  C2  GCU B   3      67.052  71.198  25.3580  0.00  0.00     0.000 C
ATOM     36  C3  GCU B   3      66.570  69.763  25.3930  0.00  0.00     0.000 C
ATOM     37  C4  GCU B   3      65.231  69.691  26.1130  0.00  0.00     0.000 C
ATOM     38  C5  GCU B   3      64.221  70.603  25.4150  0.00  0.00     0.000 C
ATOM     39  O5  GCU B   3      64.733  71.940  25.4240  0.00  0.00     0.000 O
ATOM     40   O  GCU B   3      68.247  71.300  24.5810  0.00  0.00     0.000 O
ATOM     42  HD  GCU B   3      68.854  70.819  24.1930  0.00  0.00     0.000 HD
ATOM     42   O  GCU B   3      67.530  68.911  26.0450  0.00  0.00     0.000 O
ATOM     44  HD  GCU B   3      68.137  68.431  25.6570  0.00  0.00     0.000 HD
BRANCH 38 44
ATOM     44   C  GCU B   3      62.873  70.603  26.0900  0.00  0.00     0.000 C
ATOM     45   O  GCU B   3      62.720  71.288  27.1130  0.00  0.00     0.000 OA
ATOM     46   O  GCU B   3      61.943  69.924  25.6130  0.00  0.00     0.000 OA
ENDBRANCH 38 44
BRANCH 34 47
ATOM     47  O3  NAG B   4      66.319  73.354  24.8920  0.00  0.00     0.000 O
BRANCH 47 50
ATOM     48  C1  NAG B   4      67.568  76.320  23.0490  0.00  0.00     0.000 C
ATOM     49  C2  NAG B   4      67.441  74.852  23.4430  0.00  0.00     0.000 C
ATOM     50  C3  NAG B   4      66.147  74.587  24.1960  0.00  0.00     0.000 C
ATOM     51  C4  NAG B   4      65.778  75.689  25.1960  0.00  0.00     0.000 C
ATOM     52  C5  NAG B   4      65.609  77.030  24.5010  0.00  0.00     0.000 C
ATOM     53  O5  NAG B   4      66.610  77.303  23.4950  0.00  0.00     0.000 O
BRANCH 49 56
ATOM     54   N  NAG B   4      67.050  74.384  22.1020  0.00  0.00     0.000 N
ATOM     56  HD  NAG B   4      66.396  74.697  21.6280  0.00  0.00     0.000 HD
ATOM     56   C  NAG B   4      67.045  73.042  20.0790  0.00  0.00     0.000 C
ATOM     57   O  NAG B   4      68.280  72.476  21.9910  0.00  0.00     0.000 OA
ATOM     58   C  NAG B   4      67.507  73.276  21.4850  0.00  0.00     0.000 C
ENDBRANCH 49 56
ATOM     59   O  NAG B   4      65.078  79.383  25.0280  0.00  0.00     0.000 O
ATOM     61  HD  NAG B   4      65.675  78.767  24.9070  0.00  0.00     0.000 HD
ATOM     61   O  NAG B   4      65.078  79.383  25.0280  0.00  0.00     0.000 O
ATOM     63  HD  NAG B   4      65.675  78.767  24.9070  0.00  0.00     0.000 HD
ENDBRANCH 47 50
ENDBRANCH 34 47
ENDBRANCH 33 37
ENDBRANCH 17 33
ENDBRANCH 16 19
ENDBRANCH 1 16
TORSDOF 10
ENDMDL
MODEL 78
REMARK VINA RESULT:      -0.3     53.097     56.383
ROOT
ATOM      1  C1  GCU B   1      40.339  75.389  54.7700  0.00  0.00     0.000 C
ATOM      2  C2  GCU B   1      41.341  74.670  55.6600  0.00  0.00     0.000 C
ATOM      3  C3  GCU B   1      40.648  73.586  56.4730  0.00  0.00     0.000 C
ATOM      4  C4  GCU B   1      39.438  74.161  57.1920  0.00  0.00     0.000 C
ATOM      5  C5  GCU B   1      38.527  74.915  56.2200  0.00  0.00     0.000 C
ATOM      6  O5  GCU B   1      39.284  75.945  55.5710  0.00  0.00     0.000 O
ATOM      7   O  GCU B   1      42.342  74.107  54.8190  0.00  0.00     0.000 O
ATOM      9  HD  GCU B   1      43.198  74.211  54.9020  0.00  0.00     0.000 HD
ATOM      9   O  GCU B   1      41.550  73.016  57.4240  0.00  0.00     0.000 O
ATOM     11  HD  GCU B   1      42.406  73.121  57.5080  0.00  0.00     0.000 HD
ATOM     11   O  GCU B   1      38.713  73.093  57.8030  0.00  0.00     0.000 O
ATOM     13  HD  GCU B   1      39.569  73.198  57.8870  0.00  0.00     0.000 HD
ENDROOT
BRANCH 5 13
ATOM     13   C  GCU B   1      37.329  75.462  56.9580  0.00  0.00     0.000 C
ATOM     14   O  GCU B   1      36.352  74.726  57.2080  0.00  0.00     0.000 OA
ATOM     15   O  GCU B   1      37.374  76.653  57.3220  0.00  0.00     0.000 OA
ENDBRANCH 5 13
BRANCH 1 16
ATOM     16  O3  NAG B   2      40.421  76.633  54.2930  0.00  0.00     0.000 O
BRANCH 16 19
ATOM     17  C1  NAG B   2      40.293  77.809  50.7110  0.00  0.00     0.000 C
ATOM     18  C2  NAG B   2      40.747  76.969  51.8980  0.00  0.00     0.000 C
ATOM     19  C3  NAG B   2      39.892  77.279  53.1250  0.00  0.00     0.000 C
ATOM     20  C4  NAG B   2      39.863  78.785  53.3870  0.00  0.00     0.000 C
ATOM     21  C5  NAG B   2      39.392  79.516  52.1380  0.00  0.00     0.000 C
ATOM     22  O5  NAG B   2      40.283  79.204  51.0520  0.00  0.00     0.000 O
ATOM     23   O  NAG B   2      38.989  79.033  54.4940  0.00  0.00     0.000 O
ATOM     25  HD  NAG B   2      39.834  79.178  54.6170  0.00  0.00     0.000 HD
ATOM     25   C  NAG B   2      39.323  81.030  52.3320  0.00  0.00     0.000 C
ATOM     26   O  NAG B   2      40.631  81.620  52.3690  0.00  0.00     0.000 O
ATOM     28  HD  NAG B   2      41.476  81.765  52.4930  0.00  0.00     0.000 HD
BRANCH 18 30
ATOM     28   N  NAG B   2      40.797  75.697  51.2020  0.00  0.00     0.000 N
ATOM     30  HD  NAG B   2      41.473  75.654  51.7410  0.00  0.00     0.000 HD
ATOM     30   C  NAG B   2      41.787  74.808  51.3410  0.00  0.00     0.000 C
ATOM     31   C  NAG B   2      41.719  73.554  50.5160  0.00  0.00     0.000 C
ATOM     32   O  NAG B   2      42.716  74.997  52.1020  0.00  0.00     0.000 OA
ENDBRANCH 18 30
BRANCH 17 33
ATOM     33  O4  GCU B   3      41.159  77.498  49.6010  0.00  0.00     0.000 O
BRANCH 33 37
ATOM     34  C1  GCU B   3      40.656  78.121  45.5160  0.00  0.00     0.000 C
ATOM     35  C2  GCU B   3      41.272  79.255  46.3360  0.00  0.00     0.000 C
ATOM     36  C3  GCU B   3      41.762  78.713  47.6620  0.00  0.00     0.000 C
ATOM     37  C4  GCU B   3      40.623  78.000  48.3760  0.00  0.00     0.000 C
ATOM     38  C5  GCU B   3      40.074  76.885  47.4830  0.00  0.00     0.000 C
ATOM     39  O5  GCU B   3      39.622  77.465  46.2550  0.00  0.00     0.000 O
ATOM     40   O  GCU B   3      42.359  79.821  45.6010  0.00  0.00     0.000 O
ATOM     42  HD  GCU B   3      43.191  80.051  45.6770  0.00  0.00     0.000 HD
ATOM     42   O  GCU B   3      42.283  79.767  48.4910  0.00  0.00     0.000 O
ATOM     44  HD  GCU B   3      43.115  79.997  48.5670  0.00  0.00     0.000 HD
BRANCH 38 44
ATOM     44   C  GCU B   3      38.921  76.147  48.1160  0.00  0.00     0.000 C
ATOM     45   O  GCU B   3      37.794  76.665  48.0820  0.00  0.00     0.000 OA
ATOM     46   O  GCU B   3      39.116  75.041  48.6550  0.00  0.00     0.000 OA
ENDBRANCH 38 44
BRANCH 34 47
ATOM     47  O3  NAG B   4      40.050  78.640  44.4570  0.00  0.00     0.000 O
BRANCH 47 50
ATOM     48  C1  NAG B   4      40.346  78.993  40.7770  0.00  0.00     0.000 C
ATOM     49  C2  NAG B   4      40.800  78.938  42.2320  0.00  0.00     0.000 C
ATOM     50  C3  NAG B   4      39.767  78.255  43.1130  0.00  0.00     0.000 C
ATOM     51  C4  NAG B   4      38.320  78.627  42.7700  0.00  0.00     0.000 C
ATOM     52  C5  NAG B   4      37.981  78.257  41.3360  0.00  0.00     0.000 C
ATOM     53  O5  NAG B   4      39.027  78.560  40.3860  0.00  0.00     0.000 O
BRANCH 49 56
ATOM     54   N  NAG B   4      41.742  77.821  42.0400  0.00  0.00     0.000 N
ATOM     56  HD  NAG B   4      41.551  77.054  41.6850  0.00  0.00     0.000 HD
ATOM     56   C  NAG B   4      43.806  76.548  42.1530  0.00  0.00     0.000 C
ATOM     57   O  NAG B   4      43.476  78.561  43.3100  0.00  0.00     0.000 OA
ATOM     58   C  NAG B   4      42.984  77.734  42.5570  0.00  0.00     0.000 C
ENDBRANCH 49 56
ATOM     59   O  NAG B   4      36.098  78.379  39.7440  0.00  0.00     0.000 O
ATOM     61  HD  NAG B   4      36.817  78.734  40.0690  0.00  0.00     0.000 HD
ATOM     61   O  NAG B   4      36.098  78.379  39.7440  0.00  0.00     0.000 O
ATOM     63  HD  NAG B   4      36.817  78.734  40.0690  0.00  0.00     0.000 HD
ENDBRANCH 47 50
ENDBRANCH 34 47
ENDBRANCH 33 37
ENDBRANCH 17 33
ENDBRANCH 16 19
ENDBRANCH 1 16
TORSDOF 10
ENDMDL
MODEL 79
REMARK VINA RESULT:      -0.3     55.548     59.737
ROOT
ATOM      1  C1  GCU B   1      59.021  67.990  41.0180  0.00  0.00     0.000 C
ATOM      2  C2  GCU B   1      59.464  67.197  42.2380  0.00  0.00     0.000 C
ATOM      3  C3  GCU B   1      60.982  67.137  42.3110  0.00  0.00     0.000 C
ATOM      4  C4  GCU B   1      61.553  66.661  40.9850  0.00  0.00     0.000 C
ATOM      5  C5  GCU B   1      60.999  67.483  39.8200  0.00  0.00     0.000 C
ATOM      6  O5  GCU B   1      59.568  67.402  39.8270  0.00  0.00     0.000 O
ATOM      7   O  GCU B   1      58.928  67.839  43.3900  0.00  0.00     0.000 O
ATOM      9  HD  GCU B   1      58.463  67.462  44.0160  0.00  0.00     0.000 HD
ATOM      9   O  GCU B   1      61.402  66.262  43.3610  0.00  0.00     0.000 O
ATOM     11  HD  GCU B   1      60.936  65.885  43.9860  0.00  0.00     0.000 HD
ATOM     11   O  GCU B   1      62.976  66.779  41.0260  0.00  0.00     0.000 O
ATOM     13  HD  GCU B   1      62.511  66.401  41.6510  0.00  0.00     0.000 HD
ENDROOT
BRANCH 5 13
ATOM     13   C  GCU B   1      61.594  66.997  38.5200  0.00  0.00     0.000 C
ATOM     14   O  GCU B   1      62.732  67.371  38.1670  0.00  0.00     0.000 OA
ATOM     15   O  GCU B   1      60.919  66.198  37.8430  0.00  0.00     0.000 OA
ENDBRANCH 5 13
BRANCH 1 16
ATOM     16  O3  NAG B   2      57.868  67.884  40.3530  0.00  0.00     0.000 O
BRANCH 16 19
ATOM     17  C1  NAG B   2      55.313  70.556  39.6050  0.00  0.00     0.000 C
ATOM     18  C2  NAG B   2      56.267  69.723  40.4510  0.00  0.00     0.000 C
ATOM     19  C3  NAG B   2      57.098  68.801  39.5610  0.00  0.00     0.000 C
ATOM     20  C4  NAG B   2      56.188  67.986  38.6420  0.00  0.00     0.000 C
ATOM     21  C5  NAG B   2      55.287  68.921  37.8470  0.00  0.00     0.000 C
ATOM     22  O5  NAG B   2      54.510  69.711  38.7650  0.00  0.00     0.000 O
ATOM     23   O  NAG B   2      57.011  67.197  37.7750  0.00  0.00     0.000 O
ATOM     25  HD  NAG B   2      56.543  66.774  38.3690  0.00  0.00     0.000 HD
ATOM     25   C  NAG B   2      54.358  68.175  36.8920  0.00  0.00     0.000 C
ATOM     26   O  NAG B   2      53.299  67.507  37.5960  0.00  0.00     0.000 O
ATOM     28  HD  NAG B   2      52.832  67.083  38.1900  0.00  0.00     0.000 HD
BRANCH 18 30
ATOM     28   N  NAG B   2      56.785  70.815  41.2540  0.00  0.00     0.000 N
ATOM     30  HD  NAG B   2      56.742  70.158  41.8170  0.00  0.00     0.000 HD
ATOM     30   C  NAG B   2      56.976  70.743  42.5770  0.00  0.00     0.000 C
ATOM     31   C  NAG B   2      57.477  71.975  43.2770  0.00  0.00     0.000 C
ATOM     32   O  NAG B   2      56.754  69.725  43.2020  0.00  0.00     0.000 OA
ENDBRANCH 18 30
BRANCH 17 33
ATOM     33  O4  GCU B   3      54.536  71.375  40.5020  0.00  0.00     0.000 O
BRANCH 33 37
ATOM     34  C1  GCU B   3      52.309  74.818  39.7870  0.00  0.00     0.000 C
ATOM     35  C2  GCU B   3      51.612  73.470  39.5990  0.00  0.00     0.000 C
ATOM     36  C3  GCU B   3      52.407  72.387  40.2960  0.00  0.00     0.000 C
ATOM     37  C4  GCU B   3      53.842  72.401  39.7910  0.00  0.00     0.000 C
ATOM     38  C5  GCU B   3      54.456  73.783  40.0220  0.00  0.00     0.000 C
ATOM     39  O5  GCU B   3      53.663  74.755  39.3320  0.00  0.00     0.000 O
ATOM     40   O  GCU B   3      50.295  73.549  40.1500  0.00  0.00     0.000 O
ATOM     42  HD  GCU B   3      49.750  73.137  40.6820  0.00  0.00     0.000 HD
ATOM     42   O  GCU B   3      51.818  71.092  40.0790  0.00  0.00     0.000 O
ATOM     44  HD  GCU B   3      51.273  70.680  40.6120  0.00  0.00     0.000 HD
BRANCH 38 44
ATOM     44   C  GCU B   3      55.875  73.881  39.5210  0.00  0.00     0.000 C
ATOM     45   O  GCU B   3      56.066  74.048  38.3070  0.00  0.00     0.000 OA
ATOM     46   O  GCU B   3      56.822  73.797  40.3270  0.00  0.00     0.000 OA
ENDBRANCH 38 44
BRANCH 34 47
ATOM     47  O3  NAG B   4      51.722  75.715  39.0060  0.00  0.00     0.000 O
BRANCH 47 50
ATOM     48  C1  NAG B   4      49.479  78.667  39.0950  0.00  0.00     0.000 C
ATOM     49  C2  NAG B   4      50.019  77.291  39.4710  0.00  0.00     0.000 C
ATOM     50  C3  NAG B   4      51.462  77.117  39.0260  0.00  0.00     0.000 C
ATOM     51  C4  NAG B   4      51.757  77.710  37.6440  0.00  0.00     0.000 C
ATOM     52  C5  NAG B   4      51.470  79.202  37.6110  0.00  0.00     0.000 C
ATOM     53  O5  NAG B   4      50.253  79.583  38.2920  0.00  0.00     0.000 O
BRANCH 49 56
ATOM     54   N  NAG B   4      50.233  77.612  40.8930  0.00  0.00     0.000 N
ATOM     56  HD  NAG B   4      50.690  78.282  41.1970  0.00  0.00     0.000 HD
ATOM     56   C  NAG B   4      50.145  77.386  43.3080  0.00  0.00     0.000 C
ATOM     57   O  NAG B   4      49.478  75.687  41.8360  0.00  0.00     0.000 OA
ATOM     58   C  NAG B   4      49.930  76.817  41.9390  0.00  0.00     0.000 C
ENDBRANCH 49 56
ATOM     59   O  NAG B   4      51.536  81.109  36.0440  0.00  0.00     0.000 O
ATOM     61  HD  NAG B   4      51.086  80.465  36.4110  0.00  0.00     0.000 HD
ATOM     61   O  NAG B   4      51.536  81.109  36.0440  0.00  0.00     0.000 O
ATOM     63  HD  NAG B   4      51.086  80.465  36.4110  0.00  0.00     0.000 HD
ENDBRANCH 47 50
ENDBRANCH 34 47
ENDBRANCH 33 37
ENDBRANCH 17 33
ENDBRANCH 16 19
ENDBRANCH 1 16
TORSDOF 10
ENDMDL
MODEL 80
REMARK VINA RESULT:      -0.3     96.287     99.850
ROOT
ATOM      1  C1  GCU B   1      74.362  84.758  77.4680  0.00  0.00     0.000 C
ATOM      2  C2  GCU B   1      74.982  83.389  77.2350  0.00  0.00     0.000 C
ATOM      3  C3  GCU B   1      76.296  83.522  76.4810  0.00  0.00     0.000 C
ATOM      4  C4  GCU B   1      76.102  84.366  75.2310  0.00  0.00     0.000 C
ATOM      5  C5  GCU B   1      75.417  85.693  75.5640  0.00  0.00     0.000 C
ATOM      6  O5  GCU B   1      74.165  85.426  76.2110  0.00  0.00     0.000 O
ATOM      7   O  GCU B   1      75.191  82.787  78.5080  0.00  0.00     0.000 O
ATOM      9  HD  GCU B   1      74.924  81.999  78.7510  0.00  0.00     0.000 HD
ATOM      9   O  GCU B   1      76.803  82.234  76.1210  0.00  0.00     0.000 O
ATOM     11  HD  GCU B   1      76.536  81.447  76.3630  0.00  0.00     0.000 HD
ATOM     11   O  GCU B   1      77.377  84.616  74.6390  0.00  0.00     0.000 O
ATOM     13  HD  GCU B   1      77.110  83.829  74.8810  0.00  0.00     0.000 HD
ENDROOT
BRANCH 5 13
ATOM     13   C  GCU B   1      75.249  86.515  74.3090  0.00  0.00     0.000 C
ATOM     14   O  GCU B   1      76.203  87.185  73.8610  0.00  0.00     0.000 OA
ATOM     15   O  GCU B   1      74.143  86.469  73.7360  0.00  0.00     0.000 OA
ENDBRANCH 5 13
BRANCH 1 16
ATOM     16  O3  NAG B   2      73.071  85.047  77.6450  0.00  0.00     0.000 O
BRANCH 16 19
ATOM     17  C1  NAG B   2      71.421  86.853  80.5160  0.00  0.00     0.000 C
ATOM     18  C2  NAG B   2      72.317  85.830  79.8290  0.00  0.00     0.000 C
ATOM     19  C3  NAG B   2      72.380  86.104  78.3280  0.00  0.00     0.000 C
ATOM     20  C4  NAG B   2      70.971  86.205  77.7460  0.00  0.00     0.000 C
ATOM     21  C5  NAG B   2      70.173  87.256  78.5050  0.00  0.00     0.000 C
ATOM     22  O5  NAG B   2      70.126  86.890  79.8950  0.00  0.00     0.000 O
ATOM     23   O  NAG B   2      71.079  86.539  76.3570  0.00  0.00     0.000 O
ATOM     25  HD  NAG B   2      70.782  85.749  76.5520  0.00  0.00     0.000 HD
ATOM     25   C  NAG B   2      68.754  87.424  77.9660  0.00  0.00     0.000 C
ATOM     26   O  NAG B   2      67.917  86.312  78.3210  0.00  0.00     0.000 O
ATOM     28  HD  NAG B   2      67.620  85.522  78.5150  0.00  0.00     0.000 HD
BRANCH 18 30
ATOM     28   N  NAG B   2      73.431  85.928  80.7540  0.00  0.00     0.000 N
ATOM     30  HD  NAG B   2      73.414  85.086  80.5540  0.00  0.00     0.000 HD
ATOM     30   C  NAG B   2      74.105  84.871  81.2240  0.00  0.00     0.000 C
ATOM     31   C  NAG B   2      75.207  85.132  82.2120  0.00  0.00     0.000 C
ATOM     32   O  NAG B   2      73.845  83.738  80.8740  0.00  0.00     0.000 OA
ENDBRANCH 18 30
BRANCH 17 33
ATOM     33  O4  GCU B   3      71.374  86.520  81.9180  0.00  0.00     0.000 O
BRANCH 33 37
ATOM     34  C1  GCU B   3      70.261  88.810  85.2120  0.00  0.00     0.000 C
ATOM     35  C2  GCU B   3      69.161  88.048  84.4730  0.00  0.00     0.000 C
ATOM     36  C3  GCU B   3      69.782  86.970  83.6100  0.00  0.00     0.000 C
ATOM     37  C4  GCU B   3      70.816  87.591  82.6820  0.00  0.00     0.000 C
ATOM     38  C5  GCU B   3      71.873  88.327  83.5070  0.00  0.00     0.000 C
ATOM     39  O5  GCU B   3      71.221  89.333  84.2890  0.00  0.00     0.000 O
ATOM     40   O  GCU B   3      68.277  87.464  85.4320  0.00  0.00     0.000 O
ATOM     42  HD  GCU B   3      67.893  86.718  85.6450  0.00  0.00     0.000 HD
ATOM     42   O  GCU B   3      68.780  86.278  82.8440  0.00  0.00     0.000 O
ATOM     44  HD  GCU B   3      68.396  85.531  83.0560  0.00  0.00     0.000 HD
BRANCH 38 44
ATOM     44   C  GCU B   3      72.921  88.992  82.6500  0.00  0.00     0.000 C
ATOM     45   O  GCU B   3      72.650  90.078  82.1160  0.00  0.00     0.000 OA
ATOM     46   O  GCU B   3      74.031  88.447  82.4970  0.00  0.00     0.000 OA
ENDBRANCH 38 44
BRANCH 34 47
ATOM     47  O3  NAG B   4      69.726  89.873  85.7950  0.00  0.00     0.000 O
BRANCH 47 50
ATOM     48  C1  NAG B   4      68.768  91.237  89.1090  0.00  0.00     0.000 C
ATOM     49  C2  NAG B   4      68.947  90.198  88.0070  0.00  0.00     0.000 C
ATOM     50  C3  NAG B   4      69.954  90.657  86.9650  0.00  0.00     0.000 C
ATOM     51  C4  NAG B   4      69.841  92.145  86.6110  0.00  0.00     0.000 C
ATOM     52  C5  NAG B   4      70.052  93.020  87.8350  0.00  0.00     0.000 C
ATOM     53  O5  NAG B   4      69.400  92.532  89.0290  0.00  0.00     0.000 O
BRANCH 49 56
ATOM     54   N  NAG B   4      69.804  89.301  88.8020  0.00  0.00     0.000 N
ATOM     56  HD  NAG B   4      70.531  89.529  89.2130  0.00  0.00     0.000 HD
ATOM     56   C  NAG B   4      70.626  87.250  89.8070  0.00  0.00     0.000 C
ATOM     57   O  NAG B   4      68.922  87.295  88.1970  0.00  0.00     0.000 OA
ATOM     58   C  NAG B   4      69.711  87.957  88.8550  0.00  0.00     0.000 C
ENDBRANCH 49 56
ATOM     59   O  NAG B   4      70.083  95.404  88.4750  0.00  0.00     0.000 O
ATOM     61  HD  NAG B   4      69.640  94.665  88.3930  0.00  0.00     0.000 HD
ATOM     61   O  NAG B   4      70.083  95.404  88.4750  0.00  0.00     0.000 O
ATOM     63  HD  NAG B   4      69.640  94.665  88.3930  0.00  0.00     0.000 HD
ENDBRANCH 47 50
ENDBRANCH 34 47
ENDBRANCH 33 37
ENDBRANCH 17 33
ENDBRANCH 16 19
ENDBRANCH 1 16
TORSDOF 10
ENDMDL
MODEL 81
REMARK VINA RESULT:      -0.3     57.924     62.292
ROOT
ATOM      1  C1  GCU B   1      57.333  74.690  12.6640  0.00  0.00     0.000 C
ATOM      2  C2  GCU B   1      55.850  75.029  12.6680  0.00  0.00     0.000 C
ATOM      3  C3  GCU B   1      55.154  74.382  11.4810  0.00  0.00     0.000 C
ATOM      4  C4  GCU B   1      55.891  74.716  10.1940  0.00  0.00     0.000 C
ATOM      5  C5  GCU B   1      57.382  74.395  10.3150  0.00  0.00     0.000 C
ATOM      6  O5  GCU B   1      57.928  75.116  11.4280  0.00  0.00     0.000 O
ATOM      7   O  GCU B   1      55.302  74.556  13.8950  0.00  0.00     0.000 O
ATOM      9  HD  GCU B   1      54.832  75.018  14.4560  0.00  0.00     0.000 HD
ATOM      9   O  GCU B   1      53.797  74.825  11.3910  0.00  0.00     0.000 O
ATOM     11  HD  GCU B   1      53.327  75.287  11.9520  0.00  0.00     0.000 HD
ATOM     11   O  GCU B   1      55.320  73.960   9.1250  0.00  0.00     0.000 O
ATOM     13  HD  GCU B   1      54.849  74.422   9.6870  0.00  0.00     0.000 HD
ENDROOT
BRANCH 5 13
ATOM     13   C  GCU B   1      58.085  74.723   9.0190  0.00  0.00     0.000 C
ATOM     14   O  GCU B   1      58.048  73.924   8.0610  0.00  0.00     0.000 OA
ATOM     15   O  GCU B   1      58.668  75.822   8.9450  0.00  0.00     0.000 OA
ENDBRANCH 5 13
BRANCH 1 16
ATOM     16  O3  NAG B   2      58.330  75.394  13.2050  0.00  0.00     0.000 O
BRANCH 16 19
ATOM     17  C1  NAG B   2      60.893  74.282  15.7390  0.00  0.00     0.000 C
ATOM     18  C2  NAG B   2      59.509  74.473  15.1330  0.00  0.00     0.000 C
ATOM     19  C3  NAG B   2      59.623  75.040  13.7190  0.00  0.00     0.000 C
ATOM     20  C4  NAG B   2      60.495  76.296  13.7180  0.00  0.00     0.000 C
ATOM     21  C5  NAG B   2      61.848  75.984  14.3410  0.00  0.00     0.000 C
ATOM     22  O5  NAG B   2      61.645  75.505  15.6820  0.00  0.00     0.000 O
ATOM     23   O  NAG B   2      60.637  76.745  12.3660  0.00  0.00     0.000 O
ATOM     25  HD  NAG B   2      60.176  77.245  12.9020  0.00  0.00     0.000 HD
ATOM     25   C  NAG B   2      62.782  77.193  14.3590  0.00  0.00     0.000 C
ATOM     26   O  NAG B   2      62.380  78.158  15.3440  0.00  0.00     0.000 O
ATOM     28  HD  NAG B   2      61.919  78.658  15.8800  0.00  0.00     0.000 HD
BRANCH 18 30
ATOM     28   N  NAG B   2      58.986  73.165  15.4770  0.00  0.00     0.000 N
ATOM     30  HD  NAG B   2      58.302  73.685  15.5840  0.00  0.00     0.000 HD
ATOM     30   C  NAG B   2      57.758  72.958  15.9700  0.00  0.00     0.000 C
ATOM     31   C  NAG B   2      57.377  71.547  16.3210  0.00  0.00     0.000 C
ATOM     32   O  NAG B   2      56.972  73.869  16.1360  0.00  0.00     0.000 OA
ENDBRANCH 18 30
BRANCH 17 33
ATOM     33  O4  GCU B   3      60.716  73.782  17.0800  0.00  0.00     0.000 O
BRANCH 33 37
ATOM     34  C1  GCU B   3      63.388  71.859  19.6290  0.00  0.00     0.000 C
ATOM     35  C2  GCU B   3      63.361  73.388  19.6510  0.00  0.00     0.000 C
ATOM     36  C3  GCU B   3      62.081  73.882  19.0110  0.00  0.00     0.000 C
ATOM     37  C4  GCU B   3      61.949  73.294  17.6120  0.00  0.00     0.000 C
ATOM     38  C5  GCU B   3      61.983  71.767  17.6900  0.00  0.00     0.000 C
ATOM     39  O5  GCU B   3      63.218  71.369  18.2950  0.00  0.00     0.000 O
ATOM     40   O  GCU B   3      63.440  73.833  21.0060  0.00  0.00     0.000 O
ATOM     42  HD  GCU B   3      63.060  74.364  21.5750  0.00  0.00     0.000 HD
ATOM     42   O  GCU B   3      62.054  75.319  18.9480  0.00  0.00     0.000 O
ATOM     44  HD  GCU B   3      61.675  75.850  19.5170  0.00  0.00     0.000 HD
BRANCH 38 44
ATOM     44   C  GCU B   3      61.883  71.113  16.3350  0.00  0.00     0.000 C
ATOM     45   O  GCU B   3      60.784  70.665  15.9720  0.00  0.00     0.000 OA
ATOM     46   O  GCU B   3      62.892  71.036  15.6090  0.00  0.00     0.000 OA
ENDBRANCH 38 44
BRANCH 34 47
ATOM     47  O3  NAG B   4      64.593  71.448  19.9990  0.00  0.00     0.000 O
BRANCH 47 50
ATOM     48  C1  NAG B   4      66.411  69.848  22.8080  0.00  0.00     0.000 C
ATOM     49  C2  NAG B   4      65.406  70.761  22.1130  0.00  0.00     0.000 C
ATOM     50  C3  NAG B   4      65.159  70.328  20.6770  0.00  0.00     0.000 C
ATOM     51  C4  NAG B   4      66.427  69.876  19.9420  0.00  0.00     0.000 C
ATOM     52  C5  NAG B   4      67.080  68.697  20.6450  0.00  0.00     0.000 C
ATOM     53  O5  NAG B   4      67.108  68.811  22.0850  0.00  0.00     0.000 O
BRANCH 49 56
ATOM     54   N  NAG B   4      64.216  70.173  22.7540  0.00  0.00     0.000 N
ATOM     56  HD  NAG B   4      64.002  69.334  22.7500  0.00  0.00     0.000 HD
ATOM     56   C  NAG B   4      62.115  70.057  23.9630  0.00  0.00     0.000 C
ATOM     57   O  NAG B   4      63.060  72.073  23.2260  0.00  0.00     0.000 OA
ATOM     58   C  NAG B   4      63.176  70.857  23.2710  0.00  0.00     0.000 C
ENDBRANCH 49 56
ATOM     59   O  NAG B   4      69.046  67.219  20.4330  0.00  0.00     0.000 O
ATOM     61  HD  NAG B   4      68.689  67.935  20.7660  0.00  0.00     0.000 HD
ATOM     61   O  NAG B   4      69.046  67.219  20.4330  0.00  0.00     0.000 O
ATOM     63  HD  NAG B   4      68.689  67.935  20.7660  0.00  0.00     0.000 HD
ENDBRANCH 47 50
ENDBRANCH 34 47
ENDBRANCH 33 37
ENDBRANCH 17 33
ENDBRANCH 16 19
ENDBRANCH 1 16
TORSDOF 10
ENDMDL
MODEL 82
REMARK VINA RESULT:      -0.3     73.464     78.759
ROOT
ATOM      1  C1  GCU B   1      89.060  39.870  14.5240  0.00  0.00     0.000 C
ATOM      2  C2  GCU B   1      89.582  40.090  13.1130  0.00  0.00     0.000 C
ATOM      3  C3  GCU B   1      88.890  39.152  12.1370  0.00  0.00     0.000 C
ATOM      4  C4  GCU B   1      88.969  37.719  12.6410  0.00  0.00     0.000 C
ATOM      5  C5  GCU B   1      88.479  37.616  14.0860  0.00  0.00     0.000 C
ATOM      6  O5  GCU B   1      89.253  38.499  14.9090  0.00  0.00     0.000 O
ATOM      7   O  GCU B   1      89.334  41.450  12.7680  0.00  0.00     0.000 O
ATOM      9  HD  GCU B   1      89.917  42.014  12.4650  0.00  0.00     0.000 HD
ATOM      9   O  GCU B   1      89.487  39.242  10.8410  0.00  0.00     0.000 O
ATOM     11  HD  GCU B   1      90.070  39.807  10.5380  0.00  0.00     0.000 HD
ATOM     11   O  GCU B   1      88.168  36.889  11.7990  0.00  0.00     0.000 O
ATOM     13  HD  GCU B   1      88.751  37.453  11.4960  0.00  0.00     0.000 HD
ENDROOT
BRANCH 5 13
ATOM     13   C  GCU B   1      88.555  36.182  14.5540  0.00  0.00     0.000 C
ATOM     14   O  GCU B   1      87.653  35.373  14.2570  0.00  0.00     0.000 OA
ATOM     15   O  GCU B   1      89.558  35.847  15.2140  0.00  0.00     0.000 OA
ENDBRANCH 5 13
BRANCH 1 16
ATOM     16  O3  NAG B   2      89.692  40.118  15.6740  0.00  0.00     0.000 O
BRANCH 16 19
ATOM     17  C1  NAG B   2      88.563  42.237  18.5820  0.00  0.00     0.000 C
ATOM     18  C2  NAG B   2      88.854  41.888  17.1280  0.00  0.00     0.000 C
ATOM     19  C3  NAG B   2      89.241  40.416  17.0040  0.00  0.00     0.000 C
ATOM     20  C4  NAG B   2      90.371  40.079  17.9760  0.00  0.00     0.000 C
ATOM     21  C5  NAG B   2      89.967  40.466  19.3910  0.00  0.00     0.000 C
ATOM     22  O5  NAG B   2      89.670  41.874  19.4220  0.00  0.00     0.000 O
ATOM     23   O  NAG B   2      90.646  38.677  17.8800  0.00  0.00     0.000 O
ATOM     25  HD  NAG B   2      91.256  39.220  17.5910  0.00  0.00     0.000 HD
ATOM     25   C  NAG B   2      91.046  40.143  20.4230  0.00  0.00     0.000 C
ATOM     26   O  NAG B   2      92.157  41.048  20.3290  0.00  0.00     0.000 O
ATOM     28  HD  NAG B   2      92.767  41.590  20.0400  0.00  0.00     0.000 HD
BRANCH 18 30
ATOM     28   N  NAG B   2      87.668  42.509  16.5680  0.00  0.00     0.000 N
ATOM     30  HD  NAG B   2      88.273  42.662  15.9680  0.00  0.00     0.000 HD
ATOM     30   C  NAG B   2      87.668  43.242  15.4480  0.00  0.00     0.000 C
ATOM     31   C  NAG B   2      86.366  43.858  15.0180  0.00  0.00     0.000 C
ATOM     32   O  NAG B   2      88.678  43.414  14.7950  0.00  0.00     0.000 OA
ENDBRANCH 18 30
BRANCH 17 33
ATOM     33  O4  GCU B   3      88.240  43.642  18.6370  0.00  0.00     0.000 O
BRANCH 33 37
ATOM     34  C1  GCU B   3      86.267  45.856  21.5590  0.00  0.00     0.000 C
ATOM     35  C2  GCU B   3      87.780  45.683  21.7000  0.00  0.00     0.000 C
ATOM     36  C3  GCU B   3      88.366  45.243  20.3750  0.00  0.00     0.000 C
ATOM     37  C4  GCU B   3      87.656  43.985  19.8940  0.00  0.00     0.000 C
ATOM     38  C5  GCU B   3      86.154  44.254  19.7810  0.00  0.00     0.000 C
ATOM     39  O5  GCU B   3      85.665  44.656  21.0650  0.00  0.00     0.000 O
ATOM     40   O  GCU B   3      88.352  46.928  22.1050  0.00  0.00     0.000 O
ATOM     42  HD  GCU B   3      88.986  47.485  21.9110  0.00  0.00     0.000 HD
ATOM     42   O  GCU B   3      89.779  45.000  20.4890  0.00  0.00     0.000 O
ATOM     44  HD  GCU B   3      90.413  45.557  20.2950  0.00  0.00     0.000 HD
BRANCH 38 44
ATOM     44   C  GCU B   3      85.378  43.041  19.3320  0.00  0.00     0.000 C
ATOM     45   O  GCU B   3      85.002  42.980  18.1520  0.00  0.00     0.000 OA
ATOM     46   O  GCU B   3      85.133  42.129  20.1450  0.00  0.00     0.000 OA
ENDBRANCH 38 44
BRANCH 34 47
ATOM     47  O3  NAG B   4      85.743  46.037  22.7630  0.00  0.00     0.000 O
BRANCH 47 50
ATOM     48  C1  NAG B   4      84.212  48.602  24.9600  0.00  0.00     0.000 C
ATOM     49  C2  NAG B   4      85.177  48.013  23.9370  0.00  0.00     0.000 C
ATOM     50  C3  NAG B   4      84.634  46.727  23.3340  0.00  0.00     0.000 C
ATOM     51  C4  NAG B   4      83.935  45.816  24.3500  0.00  0.00     0.000 C
ATOM     52  C5  NAG B   4      82.758  46.521  25.0050  0.00  0.00     0.000 C
ATOM     53  O5  NAG B   4      83.018  47.897  25.3600  0.00  0.00     0.000 O
BRANCH 49 56
ATOM     54   N  NAG B   4      84.831  48.958  22.8610  0.00  0.00     0.000 N
ATOM     56  HD  NAG B   4      84.033  49.116  22.5640  0.00  0.00     0.000 HD
ATOM     56   C  NAG B   4      85.135  50.572  21.0730  0.00  0.00     0.000 C
ATOM     57   O  NAG B   4      86.909  49.381  22.0420  0.00  0.00     0.000 OA
ATOM     58   C  NAG B   4      85.702  49.573  22.0360  0.00  0.00     0.000 C
ENDBRANCH 49 56
ATOM     59   O  NAG B   4      81.008  46.110  26.6960  0.00  0.00     0.000 O
ATOM     61  HD  NAG B   4      81.797  46.411  26.5040  0.00  0.00     0.000 HD
ATOM     61   O  NAG B   4      81.008  46.110  26.6960  0.00  0.00     0.000 O
ATOM     63  HD  NAG B   4      81.797  46.411  26.5040  0.00  0.00     0.000 HD
ENDBRANCH 47 50
ENDBRANCH 34 47
ENDBRANCH 33 37
ENDBRANCH 17 33
ENDBRANCH 16 19
ENDBRANCH 1 16
TORSDOF 10
ENDMDL
MODEL 83
REMARK VINA RESULT:      -0.3     37.502     41.034
ROOT
ATOM      1  C1  GCU B   1      29.150  37.722  57.9270  0.00  0.00     0.000 C
ATOM      2  C2  GCU B   1      27.772  37.627  58.5640  0.00  0.00     0.000 C
ATOM      3  C3  GCU B   1      27.140  39.006  58.6730  0.00  0.00     0.000 C
ATOM      4  C4  GCU B   1      28.101  39.972  59.3480  0.00  0.00     0.000 C
ATOM      5  C5  GCU B   1      29.472  39.947  58.6720  0.00  0.00     0.000 C
ATOM      6  O5  GCU B   1      29.982  38.607  58.6940  0.00  0.00     0.000 O
ATOM      7   O  GCU B   1      26.977  36.771  57.7490  0.00  0.00     0.000 O
ATOM      9  HD  GCU B   1      26.528  36.081  58.0190  0.00  0.00     0.000 HD
ATOM      9   O  GCU B   1      25.917  38.943  59.4120  0.00  0.00     0.000 O
ATOM     11  HD  GCU B   1      25.468  38.253  59.6820  0.00  0.00     0.000 HD
ATOM     11   O  GCU B   1      27.553  41.289  59.2820  0.00  0.00     0.000 O
ATOM     13  HD  GCU B   1      27.104  40.600  59.5520  0.00  0.00     0.000 HD
ENDROOT
BRANCH 5 13
ATOM     13   C  GCU B   1      30.399  40.924  59.3540  0.00  0.00     0.000 C
ATOM     14   O  GCU B   1      30.316  42.146  59.1130  0.00  0.00     0.000 OA
ATOM     15   O  GCU B   1      31.217  40.463  60.1730  0.00  0.00     0.000 OA
ENDBRANCH 5 13
BRANCH 1 16
ATOM     16  O3  NAG B   2      30.175  36.880  58.0780  0.00  0.00     0.000 O
BRANCH 16 19
ATOM     17  C1  NAG B   2      32.099  35.013  55.4250  0.00  0.00     0.000 C
ATOM     18  C2  NAG B   2      30.875  35.525  56.1730  0.00  0.00     0.000 C
ATOM     19  C3  NAG B   2      31.292  36.528  57.2480  0.00  0.00     0.000 C
ATOM     20  C4  NAG B   2      32.378  35.929  58.1410  0.00  0.00     0.000 C
ATOM     21  C5  NAG B   2      33.547  35.457  57.2880  0.00  0.00     0.000 C
ATOM     22  O5  NAG B   2      33.070  34.484  56.3420  0.00  0.00     0.000 O
ATOM     23   O  NAG B   2      32.791  36.928  59.0800  0.00  0.00     0.000 O
ATOM     25  HD  NAG B   2      32.363  36.244  59.3940  0.00  0.00     0.000 HD
ATOM     25   C  NAG B   2      34.681  34.860  58.1180  0.00  0.00     0.000 C
ATOM     26   O  NAG B   2      34.336  33.564  58.6320  0.00  0.00     0.000 O
ATOM     28  HD  NAG B   2      33.908  32.880  58.9460  0.00  0.00     0.000 HD
BRANCH 18 30
ATOM     28   N  NAG B   2      30.070  35.828  55.0050  0.00  0.00     0.000 N
ATOM     30  HD  NAG B   2      29.490  35.526  55.5720  0.00  0.00     0.000 HD
ATOM     30   C  NAG B   2      28.769  35.530  54.8980  0.00  0.00     0.000 C
ATOM     31   C  NAG B   2      28.081  35.868  53.6050  0.00  0.00     0.000 C
ATOM     32   O  NAG B   2      28.156  35.004  55.8040  0.00  0.00     0.000 OA
ENDBRANCH 18 30
BRANCH 17 33
ATOM     33  O4  GCU B   3      31.644  34.049  54.4540  0.00  0.00     0.000 O
BRANCH 33 37
ATOM     34  C1  GCU B   3      33.508  32.546  51.0480  0.00  0.00     0.000 C
ATOM     35  C2  GCU B   3      33.781  31.840  52.3760  0.00  0.00     0.000 C
ATOM     36  C3  GCU B   3      32.723  32.233  53.3860  0.00  0.00     0.000 C
ATOM     37  C4  GCU B   3      32.671  33.750  53.5070  0.00  0.00     0.000 C
ATOM     38  C5  GCU B   3      32.393  34.366  52.1350  0.00  0.00     0.000 C
ATOM     39  O5  GCU B   3      33.430  33.962  51.2350  0.00  0.00     0.000 O
ATOM     40   O  GCU B   3      33.758  30.427  52.1630  0.00  0.00     0.000 O
ATOM     42  HD  GCU B   3      33.417  29.693  52.4710  0.00  0.00     0.000 HD
ATOM     42   O  GCU B   3      32.990  31.643  54.6710  0.00  0.00     0.000 O
ATOM     44  HD  GCU B   3      32.648  30.909  54.9790  0.00  0.00     0.000 HD
BRANCH 38 44
ATOM     44   C  GCU B   3      32.352  35.873  52.1720  0.00  0.00     0.000 C
ATOM     45   O  GCU B   3      33.425  36.496  52.1870  0.00  0.00     0.000 OA
ATOM     46   O  GCU B   3      31.254  36.462  52.1830  0.00  0.00     0.000 OA
ENDBRANCH 38 44
BRANCH 34 47
ATOM     47  O3  NAG B   4      34.545  32.359  50.2440  0.00  0.00     0.000 O
BRANCH 47 50
ATOM     48  C1  NAG B   4      35.644  30.539  47.2050  0.00  0.00     0.000 C
ATOM     49  C2  NAG B   4      34.940  30.766  48.5390  0.00  0.00     0.000 C
ATOM     50  C3  NAG B   4      34.782  32.247  48.8420  0.00  0.00     0.000 C
ATOM     51  C4  NAG B   4      36.006  33.089  48.4630  0.00  0.00     0.000 C
ATOM     52  C5  NAG B   4      36.312  32.979  46.9780  0.00  0.00     0.000 C
ATOM     53  O5  NAG B   4      36.191  31.640  46.4490  0.00  0.00     0.000 O
BRANCH 49 56
ATOM     54   N  NAG B   4      33.589  30.469  48.0330  0.00  0.00     0.000 N
ATOM     56  HD  NAG B   4      33.212  30.842  47.3480  0.00  0.00     0.000 HD
ATOM     56   C  NAG B   4      31.378  29.473  47.9140  0.00  0.00     0.000 C
ATOM     57   O  NAG B   4      32.793  29.238  49.7700  0.00  0.00     0.000 OA
ATOM     58   C  NAG B   4      32.654  29.725  48.6580  0.00  0.00     0.000 C
ENDBRANCH 49 56
ATOM     59   O  NAG B   4      37.940  33.804  45.3150  0.00  0.00     0.000 O
ATOM     61  HD  NAG B   4      37.702  33.190  45.8790  0.00  0.00     0.000 HD
ATOM     61   O  NAG B   4      37.940  33.804  45.3150  0.00  0.00     0.000 O
ATOM     63  HD  NAG B   4      37.702  33.190  45.8790  0.00  0.00     0.000 HD
ENDBRANCH 47 50
ENDBRANCH 34 47
ENDBRANCH 33 37
ENDBRANCH 17 33
ENDBRANCH 16 19
ENDBRANCH 1 16
TORSDOF 10
ENDMDL
MODEL 84
REMARK VINA RESULT:      -0.3     38.941     44.069
ROOT
ATOM      1  C1  GCU B   1      44.149  28.085  31.6650  0.00  0.00     0.000 C
ATOM      2  C2  GCU B   1      43.998  29.597  31.5970  0.00  0.00     0.000 C
ATOM      3  C3  GCU B   1      42.529  29.982  31.5230  0.00  0.00     0.000 C
ATOM      4  C4  GCU B   1      41.839  29.212  30.4080  0.00  0.00     0.000 C
ATOM      5  C5  GCU B   1      42.104  27.710  30.5320  0.00  0.00     0.000 C
ATOM      6  O5  GCU B   1      43.519  27.480  30.5250  0.00  0.00     0.000 O
ATOM      7   O  GCU B   1      44.605  30.145  32.7640  0.00  0.00     0.000 O
ATOM      9  HD  GCU B   1      45.202  30.772  32.7820  0.00  0.00     0.000 HD
ATOM      9   O  GCU B   1      42.386  31.387  31.3000  0.00  0.00     0.000 O
ATOM     11  HD  GCU B   1      42.984  32.014  31.3190  0.00  0.00     0.000 HD
ATOM     11   O  GCU B   1      40.435  29.463  30.4730  0.00  0.00     0.000 O
ATOM     13  HD  GCU B   1      41.033  30.089  30.4910  0.00  0.00     0.000 HD
ENDROOT
BRANCH 5 13
ATOM     13   C  GCU B   1      41.397  26.971  29.4210  0.00  0.00     0.000 C
ATOM     14   O  GCU B   1      40.179  26.712  29.5100  0.00  0.00     0.000 OA
ATOM     15   O  GCU B   1      42.069  26.663  28.4180  0.00  0.00     0.000 OA
ENDBRANCH 5 13
BRANCH 1 16
ATOM     16  O3  NAG B   2      45.197  27.355  31.2770  0.00  0.00     0.000 O
BRANCH 16 19
ATOM     17  C1  NAG B   2      47.230  24.888  33.2790  0.00  0.00     0.000 C
ATOM     18  C2  NAG B   2      46.530  26.204  32.9660  0.00  0.00     0.000 C
ATOM     19  C3  NAG B   2      45.713  26.077  31.6810  0.00  0.00     0.000 C
ATOM     20  C4  NAG B   2      46.584  25.536  30.5480  0.00  0.00     0.000 C
ATOM     21  C5  NAG B   2      47.225  24.222  30.9720  0.00  0.00     0.000 C
ATOM     22  O5  NAG B   2      48.011  24.449  32.1560  0.00  0.00     0.000 O
ATOM     23   O  NAG B   2      45.760  25.360  29.3900  0.00  0.00     0.000 O
ATOM     25  HD  NAG B   2      46.361  25.983  29.3560  0.00  0.00     0.000 HD
ATOM     25   C  NAG B   2      48.100  23.612  29.8800  0.00  0.00     0.000 C
ATOM     26   O  NAG B   2      49.330  24.337  29.7190  0.00  0.00     0.000 O
ATOM     28  HD  NAG B   2      49.931  24.959  29.6850  0.00  0.00     0.000 HD
BRANCH 18 30
ATOM     28   N  NAG B   2      45.992  26.432  34.2930  0.00  0.00     0.000 N
ATOM     30  HD  NAG B   2      46.201  27.229  34.0260  0.00  0.00     0.000 HD
ATOM     30   C  NAG B   2      46.002  27.621  34.9090  0.00  0.00     0.000 C
ATOM     31   C  NAG B   2      45.447  27.689  36.3040  0.00  0.00     0.000 C
ATOM     32   O  NAG B   2      46.444  28.617  34.3710  0.00  0.00     0.000 OA
ENDBRANCH 18 30
BRANCH 17 33
ATOM     33  O4  GCU B   3      48.010  25.083  34.4760  0.00  0.00     0.000 O
BRANCH 33 37
ATOM     34  C1  GCU B   3      49.634  22.320  37.1330  0.00  0.00     0.000 C
ATOM     35  C2  GCU B   3      50.470  22.707  35.9130  0.00  0.00     0.000 C
ATOM     36  C3  GCU B   3      49.934  23.992  35.3180  0.00  0.00     0.000 C
ATOM     37  C4  GCU B   3      48.452  23.834  35.0110  0.00  0.00     0.000 C
ATOM     38  C5  GCU B   3      47.699  23.451  36.2860  0.00  0.00     0.000 C
ATOM     39  O5  GCU B   3      48.248  22.228  36.7890  0.00  0.00     0.000 O
ATOM     40   O  GCU B   3      51.829  22.880  36.3190  0.00  0.00     0.000 O
ATOM     42  HD  GCU B   3      52.495  23.431  36.2650  0.00  0.00     0.000 HD
ATOM     42   O  GCU B   3      50.652  24.349  34.1240  0.00  0.00     0.000 O
ATOM     44  HD  GCU B   3      51.318  24.900  34.0700  0.00  0.00     0.000 HD
BRANCH 38 44
ATOM     44   C  GCU B   3      46.222  23.251  36.0530  0.00  0.00     0.000 C
ATOM     45   O  GCU B   3      45.838  22.175  35.5700  0.00  0.00     0.000 OA
ATOM     46   O  GCU B   3      45.422  24.159  36.3490  0.00  0.00     0.000 OA
ENDBRANCH 38 44
BRANCH 34 47
ATOM     47  O3  NAG B   4      49.978  21.099  37.5170  0.00  0.00     0.000 O
BRANCH 47 50
ATOM     48  C1  NAG B   4      51.797  19.258  40.1740  0.00  0.00     0.000 C
ATOM     49  C2  NAG B   4      51.505  20.371  39.1730  0.00  0.00     0.000 C
ATOM     50  C3  NAG B   4      50.050  20.360  38.7350  0.00  0.00     0.000 C
ATOM     51  C4  NAG B   4      49.482  18.954  38.5120  0.00  0.00     0.000 C
ATOM     52  C5  NAG B   4      49.561  18.120  39.7800  0.00  0.00     0.000 C
ATOM     53  O5  NAG B   4      50.801  18.269  40.5070  0.00  0.00     0.000 O
BRANCH 49 56
ATOM     54   N  NAG B   4      51.457  21.449  40.1760  0.00  0.00     0.000 N
ATOM     56  HD  NAG B   4      50.963  21.456  40.8870  0.00  0.00     0.000 HD
ATOM     56   C  NAG B   4      51.920  23.581  41.2400  0.00  0.00     0.000 C
ATOM     57   O  NAG B   4      52.589  23.068  39.0520  0.00  0.00     0.000 OA
ATOM     58   C  NAG B   4      52.010  22.672  40.0530  0.00  0.00     0.000 C
ENDBRANCH 49 56
ATOM     59   O  NAG B   4      49.018  15.853  40.5920  0.00  0.00     0.000 O
ATOM     61  HD  NAG B   4      49.598  16.399  40.2510  0.00  0.00     0.000 HD
ATOM     61   O  NAG B   4      49.018  15.853  40.5920  0.00  0.00     0.000 O
ATOM     63  HD  NAG B   4      49.598  16.399  40.2510  0.00  0.00     0.000 HD
ENDBRANCH 47 50
ENDBRANCH 34 47
ENDBRANCH 33 37
ENDBRANCH 17 33
ENDBRANCH 16 19
ENDBRANCH 1 16
TORSDOF 10
ENDMDL
MODEL 85
REMARK VINA RESULT:      -0.3     56.100     60.381
ROOT
ATOM      1  C1  GCU B   1      54.273  60.883  48.6750  0.00  0.00     0.000 C
ATOM      2  C2  GCU B   1      52.866  60.321  48.5430  0.00  0.00     0.000 C
ATOM      3  C3  GCU B   1      51.949  61.334  47.8750  0.00  0.00     0.000 C
ATOM      4  C4  GCU B   1      52.046  62.677  48.5820  0.00  0.00     0.000 C
ATOM      5  C5  GCU B   1      53.503  63.123  48.7170  0.00  0.00     0.000 C
ATOM      6  O5  GCU B   1      54.240  62.112  49.4180  0.00  0.00     0.000 O
ATOM      7   O  GCU B   1      52.947  59.128  47.7700  0.00  0.00     0.000 O
ATOM      9  HD  GCU B   1      52.628  58.354  47.9900  0.00  0.00     0.000 HD
ATOM      9   O  GCU B   1      50.594  60.876  47.8920  0.00  0.00     0.000 O
ATOM     11  HD  GCU B   1      50.275  60.102  48.1120  0.00  0.00     0.000 HD
ATOM     11   O  GCU B   1      51.312  63.647  47.8340  0.00  0.00     0.000 O
ATOM     13  HD  GCU B   1      50.992  62.873  48.0540  0.00  0.00     0.000 HD
ENDROOT
BRANCH 5 13
ATOM     13   C  GCU B   1      53.568  64.463  49.4090  0.00  0.00     0.000 C
ATOM     14   O  GCU B   1      53.362  65.515  48.7690  0.00  0.00     0.000 OA
ATOM     15   O  GCU B   1      53.805  64.467  50.6330  0.00  0.00     0.000 OA
ENDBRANCH 5 13
BRANCH 1 16
ATOM     16  O3  NAG B   2      55.202  60.547  49.5720  0.00  0.00     0.000 O
BRANCH 16 19
ATOM     17  C1  NAG B   2      58.715  59.313  48.9700  0.00  0.00     0.000 C
ATOM     18  C2  NAG B   2      57.201  59.377  48.8070  0.00  0.00     0.000 C
ATOM     19  C3  NAG B   2      56.638  60.577  49.5650  0.00  0.00     0.000 C
ATOM     20  C4  NAG B   2      57.121  60.566  51.0150  0.00  0.00     0.000 C
ATOM     21  C5  NAG B   2      58.641  60.506  51.0520  0.00  0.00     0.000 C
ATOM     22  O5  NAG B   2      59.077  59.322  50.3600  0.00  0.00     0.000 O
ATOM     23   O  NAG B   2      56.633  61.747  51.6620  0.00  0.00     0.000 O
ATOM     25  HD  NAG B   2      56.303  60.989  51.9220  0.00  0.00     0.000 HD
ATOM     25   C  NAG B   2      59.198  60.508  52.4740  0.00  0.00     0.000 C
ATOM     26   O  NAG B   2      58.980  59.250  53.1310  0.00  0.00     0.000 O
ATOM     28  HD  NAG B   2      58.650  58.492  53.3900  0.00  0.00     0.000 HD
BRANCH 18 30
ATOM     28   N  NAG B   2      57.171  59.199  47.3680  0.00  0.00     0.000 N
ATOM     30  HD  NAG B   2      56.477  58.756  47.6360  0.00  0.00     0.000 HD
ATOM     30   C  NAG B   2      56.308  58.397  46.7330  0.00  0.00     0.000 C
ATOM     31   C  NAG B   2      56.431  58.284  45.2390  0.00  0.00     0.000 C
ATOM     32   O  NAG B   2      55.453  57.775  47.3310  0.00  0.00     0.000 OA
ENDBRANCH 18 30
BRANCH 17 33
ATOM     33  O4  GCU B   3      59.180  58.143  48.2650  0.00  0.00     0.000 O
BRANCH 33 37
ATOM     34  C1  GCU B   3      62.982  57.134  46.9050  0.00  0.00     0.000 C
ATOM     35  C2  GCU B   3      62.615  56.747  48.3380  0.00  0.00     0.000 C
ATOM     36  C3  GCU B   3      61.112  56.799  48.5080  0.00  0.00     0.000 C
ATOM     37  C4  GCU B   3      60.598  58.173  48.1020  0.00  0.00     0.000 C
ATOM     38  C5  GCU B   3      61.010  58.470  46.6590  0.00  0.00     0.000 C
ATOM     39  O5  GCU B   3      62.437  58.413  46.5710  0.00  0.00     0.000 O
ATOM     40   O  GCU B   3      63.097  55.427  48.5990  0.00  0.00     0.000 O
ATOM     42  HD  GCU B   3      62.851  54.657  48.9110  0.00  0.00     0.000 HD
ATOM     42   O  GCU B   3      60.734  56.510  49.8660  0.00  0.00     0.000 O
ATOM     44  HD  GCU B   3      60.488  55.741  50.1780  0.00  0.00     0.000 HD
BRANCH 38 44
ATOM     44   C  GCU B   3      60.556  59.831  46.1930  0.00  0.00     0.000 C
ATOM     45   O  GCU B   3      59.553  59.906  45.4680  0.00  0.00     0.000 OA
ATOM     46   O  GCU B   3      61.188  60.846  46.5430  0.00  0.00     0.000 OA
ENDBRANCH 38 44
BRANCH 34 47
ATOM     47  O3  NAG B   4      64.297  57.285  46.8260  0.00  0.00     0.000 O
BRANCH 47 50
ATOM     48  C1  NAG B   4      67.350  55.670  45.4750  0.00  0.00     0.000 C
ATOM     49  C2  NAG B   4      65.976  55.769  46.1290  0.00  0.00     0.000 C
ATOM     50  C3  NAG B   4      65.319  57.111  45.8470  0.00  0.00     0.000 C
ATOM     51  C4  NAG B   4      66.288  58.297  45.9050  0.00  0.00     0.000 C
ATOM     52  C5  NAG B   4      67.411  58.142  44.8930  0.00  0.00     0.000 C
ATOM     53  O5  NAG B   4      67.947  56.803  44.8090  0.00  0.00     0.000 O
BRANCH 49 56
ATOM     54   N  NAG B   4      65.286  54.939  45.1270  0.00  0.00     0.000 N
ATOM     56  HD  NAG B   4      65.294  55.068  44.2710  0.00  0.00     0.000 HD
ATOM     56   C  NAG B   4      63.874  53.188  44.2140  0.00  0.00     0.000 C
ATOM     57   O  NAG B   4      63.967  53.699  46.5010  0.00  0.00     0.000 OA
ATOM     58   C  NAG B   4      64.379  53.975  45.3840  0.00  0.00     0.000 C
ENDBRANCH 49 56
ATOM     59   O  NAG B   4      69.441  59.317  44.1230  0.00  0.00     0.000 O
ATOM     61  HD  NAG B   4      69.079  58.727  44.6430  0.00  0.00     0.000 HD
ATOM     61   O  NAG B   4      69.441  59.317  44.1230  0.00  0.00     0.000 O
ATOM     63  HD  NAG B   4      69.079  58.727  44.6430  0.00  0.00     0.000 HD
ENDBRANCH 47 50
ENDBRANCH 34 47
ENDBRANCH 33 37
ENDBRANCH 17 33
ENDBRANCH 16 19
ENDBRANCH 1 16
TORSDOF 10
ENDMDL
MODEL 86
REMARK VINA RESULT:      -0.3     49.354     52.359
ROOT
ATOM      1  C1  GCU B   1      38.006   4.304  49.5500  0.00  0.00     0.000 C
ATOM      2  C2  GCU B   1      38.917   3.111  49.7890  0.00  0.00     0.000 C
ATOM      3  C3  GCU B   1      39.580   2.679  48.4900  0.00  0.00     0.000 C
ATOM      4  C4  GCU B   1      38.533   2.488  47.4040  0.00  0.00     0.000 C
ATOM      5  C5  GCU B   1      37.632   3.718  47.2860  0.00  0.00     0.000 C
ATOM      6  O5  GCU B   1      37.021   3.976  48.5570  0.00  0.00     0.000 O
ATOM      7   O  GCU B   1      39.894   3.498  50.7500  0.00  0.00     0.000 O
ATOM      9  HD  GCU B   1      40.088   3.075  51.4800  0.00  0.00     0.000 HD
ATOM      9   O  GCU B   1      40.312   1.465  48.6770  0.00  0.00     0.000 O
ATOM     11  HD  GCU B   1      40.506   1.042  49.4070  0.00  0.00     0.000 HD
ATOM     11   O  GCU B   1      39.195   2.253  46.1610  0.00  0.00     0.000 O
ATOM     13  HD  GCU B   1      39.389   1.830  46.8910  0.00  0.00     0.000 HD
ENDROOT
BRANCH 5 13
ATOM     13   C  GCU B   1      36.613   3.505  46.1930  0.00  0.00     0.000 C
ATOM     14   O  GCU B   1      36.922   3.688  44.9970  0.00  0.00     0.000 OA
ATOM     15   O  GCU B   1      35.478   3.118  46.5330  0.00  0.00     0.000 OA
ENDBRANCH 5 13
BRANCH 1 16
ATOM     16  O3  NAG B   2      36.938   4.668  50.2640  0.00  0.00     0.000 O
BRANCH 16 19
ATOM     17  C1  NAG B   2      36.237   7.962  51.9620  0.00  0.00     0.000 C
ATOM     18  C2  NAG B   2      37.032   6.720  51.5800  0.00  0.00     0.000 C
ATOM     19  C3  NAG B   2      36.293   5.929  50.5030  0.00  0.00     0.000 C
ATOM     20  C4  NAG B   2      34.854   5.652  50.9390  0.00  0.00     0.000 C
ATOM     21  C5  NAG B   2      34.161   6.960  51.2900  0.00  0.00     0.000 C
ATOM     22  O5  NAG B   2      34.897   7.609  52.3420  0.00  0.00     0.000 O
ATOM     23   O  NAG B   2      34.181   4.978  49.8690  0.00  0.00     0.000 O
ATOM     25  HD  NAG B   2      34.330   4.523  50.5900  0.00  0.00     0.000 HD
ATOM     25   C  NAG B   2      32.709   6.762  51.7210  0.00  0.00     0.000 C
ATOM     26   O  NAG B   2      32.619   6.185  53.0330  0.00  0.00     0.000 O
ATOM     28  HD  NAG B   2      32.769   5.729  53.7540  0.00  0.00     0.000 HD
BRANCH 18 30
ATOM     28   N  NAG B   2      38.313   7.380  51.4150  0.00  0.00     0.000 N
ATOM     30  HD  NAG B   2      38.528   6.617  51.7650  0.00  0.00     0.000 HD
ATOM     30   C  NAG B   2      39.471   6.885  51.8690  0.00  0.00     0.000 C
ATOM     31   C  NAG B   2      40.711   7.708  51.6600  0.00  0.00     0.000 C
ATOM     32   O  NAG B   2      39.532   5.811  52.4330  0.00  0.00     0.000 OA
ENDBRANCH 18 30
BRANCH 17 33
ATOM     33  O4  GCU B   3      36.966   8.643  53.0030  0.00  0.00     0.000 O
BRANCH 33 37
ATOM     34  C1  GCU B   3      36.704  12.565  54.3740  0.00  0.00     0.000 C
ATOM     35  C2  GCU B   3      35.769  11.530  55.0010  0.00  0.00     0.000 C
ATOM     36  C3  GCU B   3      36.285  10.138  54.7070  0.00  0.00     0.000 C
ATOM     37  C4  GCU B   3      36.459   9.963  53.2050  0.00  0.00     0.000 C
ATOM     38  C5  GCU B   3      37.408  11.037  52.6690  0.00  0.00     0.000 C
ATOM     39  O5  GCU B   3      36.859  12.323  52.9730  0.00  0.00     0.000 O
ATOM     40   O  GCU B   3      35.715  11.750  56.4130  0.00  0.00     0.000 O
ATOM     42  HD  GCU B   3      35.785  11.340  57.1720  0.00  0.00     0.000 HD
ATOM     42   O  GCU B   3      35.389   9.135  55.2210  0.00  0.00     0.000 O
ATOM     44  HD  GCU B   3      35.460   8.725  55.9810  0.00  0.00     0.000 HD
BRANCH 38 44
ATOM     44   C  GCU B   3      37.610  10.943  51.1780  0.00  0.00     0.000 C
ATOM     45   O  GCU B   3      36.737  11.409  50.4300  0.00  0.00     0.000 OA
ATOM     46   O  GCU B   3      38.641  10.408  50.7260  0.00  0.00     0.000 OA
ENDBRANCH 38 44
BRANCH 34 47
ATOM     47  O3  NAG B   4      36.137  13.760  54.4600  0.00  0.00     0.000 O
BRANCH 47 50
ATOM     48  C1  NAG B   4      36.362  16.993  56.2640  0.00  0.00     0.000 C
ATOM     49  C2  NAG B   4      36.397  15.482  56.0630  0.00  0.00     0.000 C
ATOM     50  C3  NAG B   4      36.557  15.117  54.5970  0.00  0.00     0.000 C
ATOM     51  C4  NAG B   4      35.740  16.001  53.6480  0.00  0.00     0.000 C
ATOM     52  C5  NAG B   4      36.137  17.462  53.7780  0.00  0.00     0.000 C
ATOM     53  O5  NAG B   4      36.343  17.898  55.1400  0.00  0.00     0.000 O
BRANCH 49 56
ATOM     54   N  NAG B   4      37.790  15.315  56.5130  0.00  0.00     0.000 N
ATOM     56  HD  NAG B   4      38.477  15.741  56.2010  0.00  0.00     0.000 HD
ATOM     56   C  NAG B   4      39.689  14.424  57.7350  0.00  0.00     0.000 C
ATOM     57   O  NAG B   4      37.564  13.433  57.7670  0.00  0.00     0.000 OA
ATOM     58   C  NAG B   4      38.249  14.345  57.3300  0.00  0.00     0.000 C
ENDBRANCH 49 56
ATOM     59   O  NAG B   4      35.549  19.673  52.8500  0.00  0.00     0.000 O
ATOM     61  HD  NAG B   4      35.436  19.073  53.4640  0.00  0.00     0.000 HD
ATOM     61   O  NAG B   4      35.549  19.673  52.8500  0.00  0.00     0.000 O
ATOM     63  HD  NAG B   4      35.436  19.073  53.4640  0.00  0.00     0.000 HD
ENDBRANCH 47 50
ENDBRANCH 34 47
ENDBRANCH 33 37
ENDBRANCH 17 33
ENDBRANCH 16 19
ENDBRANCH 1 16
TORSDOF 10
ENDMDL
MODEL 87
REMARK VINA RESULT:      -0.3     25.907     29.459
ROOT
ATOM      1  C1  GCU B   1      21.435  60.506  33.3330  0.00  0.00     0.000 C
ATOM      2  C2  GCU B   1      20.311  60.221  32.3490  0.00  0.00     0.000 C
ATOM      3  C3  GCU B   1      20.021  61.450  31.5010  0.00  0.00     0.000 C
ATOM      4  C4  GCU B   1      19.810  62.665  32.3920  0.00  0.00     0.000 C
ATOM      5  C5  GCU B   1      20.964  62.827  33.3830  0.00  0.00     0.000 C
ATOM      6  O5  GCU B   1      21.088  61.628  34.1600  0.00  0.00     0.000 O
ATOM      7   O  GCU B   1      20.718  59.129  31.5310  0.00  0.00     0.000 O
ATOM      9  HD  GCU B   1      20.268  58.403  31.3860  0.00  0.00     0.000 HD
ATOM      9   O  GCU B   1      18.864  61.239  30.6880  0.00  0.00     0.000 O
ATOM     11  HD  GCU B   1      18.413  60.514  30.5430  0.00  0.00     0.000 HD
ATOM     11   O  GCU B   1      19.711  63.828  31.5700  0.00  0.00     0.000 O
ATOM     13  HD  GCU B   1      19.261  63.103  31.4250  0.00  0.00     0.000 HD
ENDROOT
BRANCH 5 13
ATOM     13   C  GCU B   1      20.734  64.047  34.2430  0.00  0.00     0.000 C
ATOM     14   O  GCU B   1      20.218  63.934  35.3740  0.00  0.00     0.000 OA
ATOM     15   O  GCU B   1      21.105  65.147  33.7890  0.00  0.00     0.000 OA
ENDBRANCH 5 13
BRANCH 1 16
ATOM     16  O3  NAG B   2      21.660  59.911  34.5060  0.00  0.00     0.000 O
BRANCH 16 19
ATOM     17  C1  NAG B   2      24.782  58.160  35.6960  0.00  0.00     0.000 C
ATOM     18  C2  NAG B   2      23.639  58.505  34.7500  0.00  0.00     0.000 C
ATOM     19  C3  NAG B   2      22.843  59.691  35.2900  0.00  0.00     0.000 C
ATOM     20  C4  NAG B   2      22.414  59.431  36.7340  0.00  0.00     0.000 C
ATOM     21  C5  NAG B   2      23.634  59.102  37.5830  0.00  0.00     0.000 C
ATOM     22  O5  NAG B   2      24.290  57.948  37.0290  0.00  0.00     0.000 O
ATOM     23   O  NAG B   2      21.741  60.597  37.2220  0.00  0.00     0.000 O
ATOM     25  HD  NAG B   2      21.263  59.883  37.1080  0.00  0.00     0.000 HD
ATOM     25   C  NAG B   2      23.283  58.845  39.0470  0.00  0.00     0.000 C
ATOM     26   O  NAG B   2      22.631  57.578  39.2210  0.00  0.00     0.000 O
ATOM     28  HD  NAG B   2      22.153  56.865  39.1070  0.00  0.00     0.000 HD
BRANCH 18 30
ATOM     28   N  NAG B   2      24.419  58.500  33.5260  0.00  0.00     0.000 N
ATOM     30  HD  NAG B   2      23.662  58.158  33.2800  0.00  0.00     0.000 HD
ATOM     30   C  NAG B   2      24.008  57.939  32.3820  0.00  0.00     0.000 C
ATOM     31   C  NAG B   2      24.949  57.977  31.2110  0.00  0.00     0.000 C
ATOM     32   O  NAG B   2      22.918  57.413  32.2820  0.00  0.00     0.000 OA
ENDBRANCH 18 30
BRANCH 17 33
ATOM     33  O4  GCU B   3      25.470  57.016  35.1510  0.00  0.00     0.000 O
BRANCH 33 37
ATOM     34  C1  GCU B   3      29.281  55.527  35.9190  0.00  0.00     0.000 C
ATOM     35  C2  GCU B   3      28.138  55.048  36.8150  0.00  0.00     0.000 C
ATOM     36  C3  GCU B   3      26.812  55.339  36.1440  0.00  0.00     0.000 C
ATOM     37  C4  GCU B   3      26.729  56.818  35.7970  0.00  0.00     0.000 C
ATOM     38  C5  GCU B   3      27.907  57.204  34.9000  0.00  0.00     0.000 C
ATOM     39  O5  GCU B   3      29.123  56.911  35.5950  0.00  0.00     0.000 O
ATOM     40   O  GCU B   3      28.281  53.643  37.0370  0.00  0.00     0.000 O
ATOM     42  HD  GCU B   3      27.842  52.897  37.0100  0.00  0.00     0.000 HD
ATOM     42   O  GCU B   3      25.711  54.966  36.9920  0.00  0.00     0.000 O
ATOM     44  HD  GCU B   3      25.271  54.220  36.9650  0.00  0.00     0.000 HD
BRANCH 38 44
ATOM     44   C  GCU B   3      27.905  58.667  34.5340  0.00  0.00     0.000 C
ATOM     45   O  GCU B   3      28.315  59.488  35.3680  0.00  0.00     0.000 OA
ATOM     46   O  GCU B   3      27.500  59.022  33.4100  0.00  0.00     0.000 OA
ENDBRANCH 38 44
BRANCH 34 47
ATOM     47  O3  NAG B   4      30.416  55.457  36.6000  0.00  0.00     0.000 O
BRANCH 47 50
ATOM     48  C1  NAG B   4      33.567  53.519  36.8670  0.00  0.00     0.000 C
ATOM     49  C2  NAG B   4      32.075  53.770  36.6710  0.00  0.00     0.000 C
ATOM     50  C3  NAG B   4      31.796  55.223  36.3240  0.00  0.00     0.000 C
ATOM     51  C4  NAG B   4      32.649  56.222  37.1150  0.00  0.00     0.000 C
ATOM     52  C5  NAG B   4      34.132  55.995  36.8700  0.00  0.00     0.000 C
ATOM     53  O5  NAG B   4      34.519  54.603  36.8510  0.00  0.00     0.000 O
BRANCH 49 56
ATOM     54   N  NAG B   4      32.011  53.175  35.3250  0.00  0.00     0.000 N
ATOM     56  HD  NAG B   4      32.513  53.391  34.6520  0.00  0.00     0.000 HD
ATOM     56   C  NAG B   4      31.232  51.788  33.4920  0.00  0.00     0.000 C
ATOM     57   O  NAG B   4      30.054  52.034  35.5040  0.00  0.00     0.000 OA
ATOM     58   C  NAG B   4      31.046  52.354  34.8660  0.00  0.00     0.000 C
ENDBRANCH 49 56
ATOM     59   O  NAG B   4      36.324  56.897  37.5580  0.00  0.00     0.000 O
ATOM     61  HD  NAG B   4      35.688  56.322  37.6800  0.00  0.00     0.000 HD
ATOM     61   O  NAG B   4      36.324  56.897  37.5580  0.00  0.00     0.000 O
ATOM     63  HD  NAG B   4      35.688  56.322  37.6800  0.00  0.00     0.000 HD
ENDBRANCH 47 50
ENDBRANCH 34 47
ENDBRANCH 33 37
ENDBRANCH 17 33
ENDBRANCH 16 19
ENDBRANCH 1 16
TORSDOF 10
ENDMDL
MODEL 88
REMARK VINA RESULT:      -0.3     53.811     57.874
ROOT
ATOM      1  C1  GCU B   1      52.207  72.800  32.0170  0.00  0.00     0.000 C
ATOM      2  C2  GCU B   1      52.444  71.345  32.3920  0.00  0.00     0.000 C
ATOM      3  C3  GCU B   1      53.787  70.870  31.8600  0.00  0.00     0.000 C
ATOM      4  C4  GCU B   1      53.905  71.184  30.3770  0.00  0.00     0.000 C
ATOM      5  C5  GCU B   1      53.589  72.655  30.0990  0.00  0.00     0.000 C
ATOM      6  O5  GCU B   1      52.276  72.954  30.5900  0.00  0.00     0.000 O
ATOM      7   O  GCU B   1      52.403  71.252  33.8130  0.00  0.00     0.000 O
ATOM      9  HD  GCU B   1      51.917  70.704  34.2750  0.00  0.00     0.000 HD
ATOM      9   O  GCU B   1      53.944  69.464  32.0710  0.00  0.00     0.000 O
ATOM     11  HD  GCU B   1      53.458  68.916  32.5330  0.00  0.00     0.000 HD
ATOM     11   O  GCU B   1      55.233  70.885  29.9460  0.00  0.00     0.000 O
ATOM     13  HD  GCU B   1      54.748  70.337  30.4080  0.00  0.00     0.000 HD
ENDROOT
BRANCH 5 13
ATOM     13   C  GCU B   1      53.728  72.940  28.6230  0.00  0.00     0.000 C
ATOM     14   O  GCU B   1      54.853  73.146  28.1230  0.00  0.00     0.000 OA
ATOM     15   O  GCU B   1      52.688  72.932  27.9370  0.00  0.00     0.000 OA
ENDBRANCH 5 13
BRANCH 1 16
ATOM     16  O3  NAG B   2      51.036  73.422  31.8710  0.00  0.00     0.000 O
BRANCH 16 19
ATOM     17  C1  NAG B   2      49.773  76.526  33.6020  0.00  0.00     0.000 C
ATOM     18  C2  NAG B   2      50.396  75.141  33.4800  0.00  0.00     0.000 C
ATOM     19  C3  NAG B   2      50.620  74.790  32.0100  0.00  0.00     0.000 C
ATOM     20  C4  NAG B   2      49.329  74.977  31.2150  0.00  0.00     0.000 C
ATOM     21  C5  NAG B   2      48.804  76.393  31.4100  0.00  0.00     0.000 C
ATOM     22  O5  NAG B   2      48.576  76.616  32.8120  0.00  0.00     0.000 O
ATOM     23   O  NAG B   2      49.606  74.712  29.8350  0.00  0.00     0.000 O
ATOM     25  HD  NAG B   2      49.094  74.150  30.2500  0.00  0.00     0.000 HD
ATOM     25   C  NAG B   2      47.519  76.659  30.6280  0.00  0.00     0.000 C
ATOM     26   O  NAG B   2      46.391  75.996  31.2210  0.00  0.00     0.000 O
ATOM     28  HD  NAG B   2      45.879  75.434  31.6360  0.00  0.00     0.000 HD
BRANCH 18 30
ATOM     28   N  NAG B   2      51.437  75.332  34.4720  0.00  0.00     0.000 N
ATOM     30  HD  NAG B   2      51.202  74.506  34.5870  0.00  0.00     0.000 HD
ATOM     30   C  NAG B   2      51.769  74.416  35.3900  0.00  0.00     0.000 C
ATOM     31   C  NAG B   2      52.839  74.779  36.3810  0.00  0.00     0.000 C
ATOM     32   O  NAG B   2      51.230  73.328  35.4340  0.00  0.00     0.000 OA
ENDBRANCH 18 30
BRANCH 17 33
ATOM     33  O4  GCU B   3      49.554  76.783  35.0040  0.00  0.00     0.000 O
BRANCH 33 37
ATOM     34  C1  GCU B   3      48.909  80.359  37.0360  0.00  0.00     0.000 C
ATOM     35  C2  GCU B   3      47.690  79.645  36.4520  0.00  0.00     0.000 C
ATOM     36  C3  GCU B   3      48.045  78.205  36.1450  0.00  0.00     0.000 C
ATOM     37  C4  GCU B   3      49.264  78.163  35.2340  0.00  0.00     0.000 C
ATOM     38  C5  GCU B   3      50.429  78.898  35.8990  0.00  0.00     0.000 C
ATOM     39  O5  GCU B   3      50.030  80.248  36.1540  0.00  0.00     0.000 O
ATOM     40   O  GCU B   3      46.623  79.698  37.4020  0.00  0.00     0.000 O
ATOM     42  HD  GCU B   3      46.038  79.202  37.8030  0.00  0.00     0.000 HD
ATOM     42   O  GCU B   3      46.941  77.520  35.5270  0.00  0.00     0.000 O
ATOM     44  HD  GCU B   3      46.355  77.024  35.9280  0.00  0.00     0.000 HD
BRANCH 38 44
ATOM     44   C  GCU B   3      51.669  78.919  35.0410  0.00  0.00     0.000 C
ATOM     45   O  GCU B   3      51.738  79.745  34.1170  0.00  0.00     0.000 OA
ATOM     46   O  GCU B   3      52.595  78.119  35.2730  0.00  0.00     0.000 OA
ENDBRANCH 38 44
BRANCH 34 47
ATOM     47  O3  NAG B   4      48.650  81.657  37.1060  0.00  0.00     0.000 O
BRANCH 47 50
ATOM     48  C1  NAG B   4      47.895  84.372  39.5180  0.00  0.00     0.000 C
ATOM     49  C2  NAG B   4      47.854  82.977  38.9030  0.00  0.00     0.000 C
ATOM     50  C3  NAG B   4      49.009  82.758  37.9400  0.00  0.00     0.000 C
ATOM     51  C4  NAG B   4      49.325  83.977  37.0660  0.00  0.00     0.000 C
ATOM     52  C5  NAG B   4      49.689  85.184  37.9150  0.00  0.00     0.000 C
ATOM     53  O5  NAG B   4      48.857  85.355  39.0840  0.00  0.00     0.000 O
BRANCH 49 56
ATOM     54   N  NAG B   4      48.386  82.286  40.0900  0.00  0.00     0.000 N
ATOM     56  HD  NAG B   4      49.123  82.482  40.5020  0.00  0.00     0.000 HD
ATOM     56   C  NAG B   4      48.559  80.653  41.8780  0.00  0.00     0.000 C
ATOM     57   O  NAG B   4      47.030  80.462  40.1110  0.00  0.00     0.000 OA
ATOM     58   C  NAG B   4      47.928  81.127  40.6050  0.00  0.00     0.000 C
ENDBRANCH 49 56
ATOM     59   O  NAG B   4      50.324  87.556  37.6600  0.00  0.00     0.000 O
ATOM     61  HD  NAG B   4      49.703  86.963  37.7770  0.00  0.00     0.000 HD
ATOM     61   O  NAG B   4      50.324  87.556  37.6600  0.00  0.00     0.000 O
ATOM     63  HD  NAG B   4      49.703  86.963  37.7770  0.00  0.00     0.000 HD
ENDBRANCH 47 50
ENDBRANCH 34 47
ENDBRANCH 33 37
ENDBRANCH 17 33
ENDBRANCH 16 19
ENDBRANCH 1 16
TORSDOF 10
ENDMDL
MODEL 89
REMARK VINA RESULT:      -0.3     49.141     54.479
ROOT
ATOM      1  C1  GCU B   1       5.810  32.375  79.1660  0.00  0.00     0.000 C
ATOM      2  C2  GCU B   1       4.394  32.469  79.7150  0.00  0.00     0.000 C
ATOM      3  C3  GCU B   1       4.418  32.580  81.2320  0.00  0.00     0.000 C
ATOM      4  C4  GCU B   1       5.272  31.471  81.8270  0.00  0.00     0.000 C
ATOM      5  C5  GCU B   1       6.650  31.423  81.1650  0.00  0.00     0.000 C
ATOM      6  O5  GCU B   1       6.488  31.252  79.7510  0.00  0.00     0.000 O
ATOM      7   O  GCU B   1       3.780  33.615  79.1350  0.00  0.00     0.000 O
ATOM      9  HD  GCU B   1       3.018  33.633  78.7240  0.00  0.00     0.000 HD
ATOM      9   O  GCU B   1       3.092  32.508  81.7630  0.00  0.00     0.000 O
ATOM     11  HD  GCU B   1       2.330  32.526  81.3530  0.00  0.00     0.000 HD
ATOM     11   O  GCU B   1       5.416  31.701  83.2290  0.00  0.00     0.000 O
ATOM     13  HD  GCU B   1       4.653  31.719  82.8180  0.00  0.00     0.000 HD
ENDROOT
BRANCH 5 13
ATOM     13   C  GCU B   1       7.480  30.324  81.7850  0.00  0.00     0.000 C
ATOM     14   O  GCU B   1       8.068  30.512  82.8690  0.00  0.00     0.000 OA
ATOM     15   O  GCU B   1       7.523  29.232  81.1860  0.00  0.00     0.000 OA
ENDBRANCH 5 13
BRANCH 1 16
ATOM     16  O3  NAG B   2       6.202  31.816  78.0200  0.00  0.00     0.000 O
BRANCH 16 19
ATOM     17  C1  NAG B   2       8.146  33.358  75.1780  0.00  0.00     0.000 C
ATOM     18  C2  NAG B   2       7.052  33.243  76.2320  0.00  0.00     0.000 C
ATOM     19  C3  NAG B   2       7.315  32.043  77.1410  0.00  0.00     0.000 C
ATOM     20  C4  NAG B   2       7.527  30.780  76.3060  0.00  0.00     0.000 C
ATOM     21  C5  NAG B   2       8.642  31.012  75.2960  0.00  0.00     0.000 C
ATOM     22  O5  NAG B   2       8.285  32.124  74.4560  0.00  0.00     0.000 O
ATOM     23   O  NAG B   2       7.847  29.703  77.1930  0.00  0.00     0.000 O
ATOM     25  HD  NAG B   2       7.084  29.665  76.7850  0.00  0.00     0.000 HD
ATOM     25   C  NAG B   2       8.922  29.782  74.4340  0.00  0.00     0.000 C
ATOM     26   O  NAG B   2       7.883  29.564  73.4680  0.00  0.00     0.000 O
ATOM     28  HD  NAG B   2       7.120  29.526  73.0590  0.00  0.00     0.000 HD
BRANCH 18 30
ATOM     28   N  NAG B   2       7.062  34.634  76.6440  0.00  0.00     0.000 N
ATOM     30  HD  NAG B   2       6.223  34.422  76.6830  0.00  0.00     0.000 HD
ATOM     30   C  NAG B   2       5.956  35.354  76.8670  0.00  0.00     0.000 C
ATOM     31   C  NAG B   2       6.129  36.798  77.2450  0.00  0.00     0.000 C
ATOM     32   O  NAG B   2       4.846  34.871  76.7680  0.00  0.00     0.000 OA
ENDBRANCH 18 30
BRANCH 17 33
ATOM     33  O4  GCU B   3       7.822  34.481  74.3340  0.00  0.00     0.000 O
BRANCH 33 37
ATOM     34  C1  GCU B   3      10.204  36.690  71.7310  0.00  0.00     0.000 C
ATOM     35  C2  GCU B   3       9.531  35.431  71.1820  0.00  0.00     0.000 C
ATOM     36  C3  GCU B   3       8.404  35.016  72.1040  0.00  0.00     0.000 C
ATOM     37  C4  GCU B   3       8.936  34.849  73.5200  0.00  0.00     0.000 C
ATOM     38  C5  GCU B   3       9.586  36.155  73.9820  0.00  0.00     0.000 C
ATOM     39  O5  GCU B   3      10.644  36.483  73.0760  0.00  0.00     0.000 O
ATOM     40   O  GCU B   3       9.024  35.709  69.8750  0.00  0.00     0.000 O
ATOM     42  HD  GCU B   3       8.311  35.638  69.3880  0.00  0.00     0.000 HD
ATOM     42   O  GCU B   3       7.794  33.792  71.6570  0.00  0.00     0.000 O
ATOM     44  HD  GCU B   3       7.081  33.722  71.1700  0.00  0.00     0.000 HD
BRANCH 38 44
ATOM     44   C  GCU B   3      10.161  36.057  75.3730  0.00  0.00     0.000 C
ATOM     45   O  GCU B   3      11.265  35.511  75.5220  0.00  0.00     0.000 OA
ATOM     46   O  GCU B   3       9.527  36.525  76.3380  0.00  0.00     0.000 OA
ENDBRANCH 38 44
BRANCH 34 47
ATOM     47  O3  NAG B   4      11.308  36.922  71.0350  0.00  0.00     0.000 O
BRANCH 47 50
ATOM     48  C1  NAG B   4      12.742  39.195  68.4790  0.00  0.00     0.000 C
ATOM     49  C2  NAG B   4      11.692  38.336  69.1760  0.00  0.00     0.000 C
ATOM     50  C3  NAG B   4      12.072  38.053  70.6210  0.00  0.00     0.000 C
ATOM     51  C4  NAG B   4      13.564  37.761  70.8210  0.00  0.00     0.000 C
ATOM     52  C5  NAG B   4      14.420  38.932  70.3680  0.00  0.00     0.000 C
ATOM     53  O5  NAG B   4      13.984  39.537  69.1300  0.00  0.00     0.000 O
BRANCH 49 56
ATOM     54   N  NAG B   4      10.731  39.433  69.3830  0.00  0.00     0.000 N
ATOM     56  HD  NAG B   4      10.901  40.188  69.7710  0.00  0.00     0.000 HD
ATOM     56   C  NAG B   4       8.622  40.636  69.3670  0.00  0.00     0.000 C
ATOM     57   O  NAG B   4       8.801  38.354  68.8570  0.00  0.00     0.000 OA
ATOM     58   C  NAG B   4       9.399  39.367  69.1870  0.00  0.00     0.000 C
ENDBRANCH 49 56
ATOM     59   O  NAG B   4      16.794  39.584  70.1890  0.00  0.00     0.000 O
ATOM     61  HD  NAG B   4      16.091  39.236  69.8210  0.00  0.00     0.000 HD
ATOM     61   O  NAG B   4      16.794  39.584  70.1890  0.00  0.00     0.000 O
ATOM     63  HD  NAG B   4      16.091  39.236  69.8210  0.00  0.00     0.000 HD
ENDBRANCH 47 50
ENDBRANCH 34 47
ENDBRANCH 33 37
ENDBRANCH 17 33
ENDBRANCH 16 19
ENDBRANCH 1 16
TORSDOF 10
ENDMDL
MODEL 90
REMARK VINA RESULT:      -0.3     57.403     61.517
ROOT
ATOM      1  C1  GCU B   1      49.987  87.897  25.9170  0.00  0.00     0.000 C
ATOM      2  C2  GCU B   1      51.076  87.585  24.9020  0.00  0.00     0.000 C
ATOM      3  C3  GCU B   1      51.908  88.826  24.6170  0.00  0.00     0.000 C
ATOM      4  C4  GCU B   1      51.002  89.994  24.2570  0.00  0.00     0.000 C
ATOM      5  C5  GCU B   1      49.907  90.184  25.3080  0.00  0.00     0.000 C
ATOM      6  O5  GCU B   1      49.160  88.967  25.4330  0.00  0.00     0.000 O
ATOM      7   O  GCU B   1      51.888  86.548  25.4440  0.00  0.00     0.000 O
ATOM      9  HD  GCU B   1      52.096  85.804  25.0520  0.00  0.00     0.000 HD
ATOM      9   O  GCU B   1      52.828  88.582  23.5500  0.00  0.00     0.000 O
ATOM     11  HD  GCU B   1      53.036  87.838  23.1580  0.00  0.00     0.000 HD
ATOM     11   O  GCU B   1      51.793  91.180  24.1630  0.00  0.00     0.000 O
ATOM     13  HD  GCU B   1      52.001  90.436  23.7710  0.00  0.00     0.000 HD
ENDROOT
BRANCH 5 13
ATOM     13   C  GCU B   1      49.033  91.357  24.9320  0.00  0.00     0.000 C
ATOM     14   O  GCU B   1      47.959  91.175  24.3230  0.00  0.00     0.000 OA
ATOM     15   O  GCU B   1      49.415  92.491  25.2790  0.00  0.00     0.000 OA
ENDBRANCH 5 13
BRANCH 1 16
ATOM     16  O3  NAG B   2      48.818  87.273  26.0730  0.00  0.00     0.000 O
BRANCH 16 19
ATOM     17  C1  NAG B   2      47.387  85.693  29.1850  0.00  0.00     0.000 C
ATOM     18  C2  NAG B   2      48.428  85.996  28.1150  0.00  0.00     0.000 C
ATOM     19  C3  NAG B   2      47.930  87.103  27.1890  0.00  0.00     0.000 C
ATOM     20  C4  NAG B   2      46.544  86.759  26.6450  0.00  0.00     0.000 C
ATOM     21  C5  NAG B   2      45.591  86.482  27.8000  0.00  0.00     0.000 C
ATOM     22  O5  NAG B   2      46.115  85.397  28.5850  0.00  0.00     0.000 O
ATOM     23   O  NAG B   2      46.086  87.857  25.8480  0.00  0.00     0.000 O
ATOM     25  HD  NAG B   2      46.269  87.118  25.4350  0.00  0.00     0.000 HD
ATOM     25   C  NAG B   2      44.177  86.146  27.3310  0.00  0.00     0.000 C
ATOM     26   O  NAG B   2      44.107  84.831  26.7580  0.00  0.00     0.000 O
ATOM     28  HD  NAG B   2      44.290  84.092  26.3450  0.00  0.00     0.000 HD
BRANCH 18 30
ATOM     28   N  NAG B   2      49.568  86.086  29.0080  0.00  0.00     0.000 N
ATOM     30  HD  NAG B   2      49.900  85.710  28.3010  0.00  0.00     0.000 HD
ATOM     30   C  NAG B   2      50.766  85.548  28.7450  0.00  0.00     0.000 C
ATOM     31   C  NAG B   2      51.837  85.687  29.7900  0.00  0.00     0.000 C
ATOM     32   O  NAG B   2      50.991  84.963  27.7040  0.00  0.00     0.000 OA
ENDBRANCH 18 30
BRANCH 17 33
ATOM     33  O4  GCU B   3      47.899  84.620  30.0010  0.00  0.00     0.000 O
BRANCH 33 37
ATOM     34  C1  GCU B   3      46.799  83.352  33.8100  0.00  0.00     0.000 C
ATOM     35  C2  GCU B   3      46.043  82.761  32.6200  0.00  0.00     0.000 C
ATOM     36  C3  GCU B   3      46.835  82.993  31.3510  0.00  0.00     0.000 C
ATOM     37  C4  GCU B   3      47.135  84.478  31.2000  0.00  0.00     0.000 C
ATOM     38  C5  GCU B   3      47.892  84.978  32.4320  0.00  0.00     0.000 C
ATOM     39  O5  GCU B   3      47.087  84.736  33.5900  0.00  0.00     0.000 O
ATOM     40   O  GCU B   3      45.858  81.361  32.8370  0.00  0.00     0.000 O
ATOM     42  HD  GCU B   3      45.957  80.589  32.4560  0.00  0.00     0.000 HD
ATOM     42   O  GCU B   3      46.119  82.513  30.1980  0.00  0.00     0.000 O
ATOM     44  HD  GCU B   3      46.218  81.742  29.8170  0.00  0.00     0.000 HD
BRANCH 38 44
ATOM     44   C  GCU B   3      48.203  86.452  32.3650  0.00  0.00     0.000 C
ATOM     45   O  GCU B   3      47.312  87.261  32.6650  0.00  0.00     0.000 OA
ATOM     46   O  GCU B   3      49.339  86.828  32.0170  0.00  0.00     0.000 OA
ENDBRANCH 38 44
BRANCH 34 47
ATOM     47  O3  NAG B   4      46.007  83.327  34.8740  0.00  0.00     0.000 O
BRANCH 47 50
ATOM     48  C1  NAG B   4      45.487  81.594  38.1120  0.00  0.00     0.000 C
ATOM     49  C2  NAG B   4      45.825  81.754  36.6330  0.00  0.00     0.000 C
ATOM     50  C3  NAG B   4      46.149  83.198  36.2870  0.00  0.00     0.000 C
ATOM     51  C4  NAG B   4      45.242  84.218  36.9850  0.00  0.00     0.000 C
ATOM     52  C5  NAG B   4      45.341  84.100  38.4970  0.00  0.00     0.000 C
ATOM     53  O5  NAG B   4      45.368  82.740  38.9820  0.00  0.00     0.000 O
BRANCH 49 56
ATOM     54   N  NAG B   4      47.191  81.211  36.7460  0.00  0.00     0.000 N
ATOM     56  HD  NAG B   4      47.799  81.486  37.2980  0.00  0.00     0.000 HD
ATOM     56   C  NAG B   4      49.140  79.852  36.2530  0.00  0.00     0.000 C
ATOM     57   O  NAG B   4      47.254  79.941  34.8630  0.00  0.00     0.000 OA
ATOM     58   C  NAG B   4      47.774  80.349  35.8910  0.00  0.00     0.000 C
ENDBRANCH 49 56
ATOM     59   O  NAG B   4      44.403  85.119  40.5410  0.00  0.00     0.000 O
ATOM     61  HD  NAG B   4      44.366  84.498  39.9380  0.00  0.00     0.000 HD
ATOM     61   O  NAG B   4      44.403  85.119  40.5410  0.00  0.00     0.000 O
ATOM     63  HD  NAG B   4      44.366  84.498  39.9380  0.00  0.00     0.000 HD
ENDBRANCH 47 50
ENDBRANCH 34 47
ENDBRANCH 33 37
ENDBRANCH 17 33
ENDBRANCH 16 19
ENDBRANCH 1 16
TORSDOF 10
ENDMDL
MODEL 91
REMARK VINA RESULT:      -0.3     59.624     62.294
ROOT
ATOM      1  C1  GCU B   1      67.870  55.713  12.6470  0.00  0.00     0.000 C
ATOM      2  C2  GCU B   1      67.210  54.465  13.2120  0.00  0.00     0.000 C
ATOM      3  C3  GCU B   1      68.236  53.598  13.9250  0.00  0.00     0.000 C
ATOM      4  C4  GCU B   1      69.432  53.346  13.0200  0.00  0.00     0.000 C
ATOM      5  C5  GCU B   1      69.981  54.658  12.4570  0.00  0.00     0.000 C
ATOM      6  O5  GCU B   1      68.935  55.344  11.7570  0.00  0.00     0.000 O
ATOM      7   O  GCU B   1      66.190  54.884  14.1130  0.00  0.00     0.000 O
ATOM      9  HD  GCU B   1      65.362  54.631  14.1010  0.00  0.00     0.000 HD
ATOM      9   O  GCU B   1      67.656  52.351  14.3190  0.00  0.00     0.000 O
ATOM     11  HD  GCU B   1      66.828  52.098  14.3070  0.00  0.00     0.000 HD
ATOM     11   O  GCU B   1      70.447  52.679  13.7710  0.00  0.00     0.000 O
ATOM     13  HD  GCU B   1      69.619  52.425  13.7590  0.00  0.00     0.000 HD
ENDROOT
BRANCH 5 13
ATOM     13   C  GCU B   1      71.174  54.379  11.5750  0.00  0.00     0.000 C
ATOM     14   O  GCU B   1      72.307  54.223  12.0750  0.00  0.00     0.000 OA
ATOM     15   O  GCU B   1      70.972  54.284  10.3490  0.00  0.00     0.000 OA
ENDBRANCH 5 13
BRANCH 1 16
ATOM     16  O3  NAG B   2      67.466  56.447  11.6080  0.00  0.00     0.000 O
BRANCH 16 19
ATOM     17  C1  NAG B   2      66.698  60.138  11.4880  0.00  0.00     0.000 C
ATOM     18  C2  NAG B   2      66.646  58.709  12.0130  0.00  0.00     0.000 C
ATOM     19  C3  NAG B   2      67.633  57.828  11.2500  0.00  0.00     0.000 C
ATOM     20  C4  NAG B   2      67.410  57.959   9.7440  0.00  0.00     0.000 C
ATOM     21  C5  NAG B   2      67.489  59.423   9.3370  0.00  0.00     0.000 C
ATOM     22  O5  NAG B   2      66.494  60.164  10.0660  0.00  0.00     0.000 O
ATOM     23   O  NAG B   2      68.405  57.179   9.0710  0.00  0.00     0.000 O
ATOM     25  HD  NAG B   2      67.586  56.904   9.0190  0.00  0.00     0.000 HD
ATOM     25   C  NAG B   2      67.291  59.630   7.8370  0.00  0.00     0.000 C
ATOM     26   O  NAG B   2      65.921  59.439   7.4510  0.00  0.00     0.000 O
ATOM     28  HD  NAG B   2      65.102  59.164   7.3990  0.00  0.00     0.000 HD
BRANCH 18 30
ATOM     28   N  NAG B   2      66.722  59.041  13.4230  0.00  0.00     0.000 N
ATOM     30  HD  NAG B   2      66.179  58.367  13.4080  0.00  0.00     0.000 HD
ATOM     30   C  NAG B   2      65.971  58.462  14.3680  0.00  0.00     0.000 C
ATOM     31   C  NAG B   2      66.134  58.945  15.7810  0.00  0.00     0.000 C
ATOM     32   O  NAG B   2      65.179  57.578  14.1050  0.00  0.00     0.000 OA
ENDBRANCH 18 30
BRANCH 17 33
ATOM     33  O4  GCU B   3      65.722  60.907  12.2200  0.00  0.00     0.000 O
BRANCH 33 37
ATOM     34  C1  GCU B   3      65.326  65.024  12.7020  0.00  0.00     0.000 C
ATOM     35  C2  GCU B   3      64.654  64.383  11.4860  0.00  0.00     0.000 C
ATOM     36  C3  GCU B   3      64.537  62.889  11.7000  0.00  0.00     0.000 C
ATOM     37  C4  GCU B   3      65.910  62.308  12.0090  0.00  0.00     0.000 C
ATOM     38  C5  GCU B   3      66.500  63.005  13.2370  0.00  0.00     0.000 C
ATOM     39  O5  GCU B   3      66.589  64.407  12.9650  0.00  0.00     0.000 O
ATOM     40   O  GCU B   3      63.358  64.961  11.3150  0.00  0.00     0.000 O
ATOM     42  HD  GCU B   3      62.526  64.753  11.1970  0.00  0.00     0.000 HD
ATOM     42   O  GCU B   3      63.975  62.243  10.5440  0.00  0.00     0.000 O
ATOM     44  HD  GCU B   3      63.143  62.035  10.4260  0.00  0.00     0.000 HD
BRANCH 38 44
ATOM     44   C  GCU B   3      67.875  62.497  13.5890  0.00  0.00     0.000 C
ATOM     45   O  GCU B   3      68.849  62.933  12.9560  0.00  0.00     0.000 OA
ATOM     46   O  GCU B   3      68.009  61.661  14.5030  0.00  0.00     0.000 OA
ENDBRANCH 38 44
BRANCH 34 47
ATOM     47  O3  NAG B   4      65.607  66.287  12.4180  0.00  0.00     0.000 O
BRANCH 47 50
ATOM     48  C1  NAG B   4      64.549  69.764  13.1590  0.00  0.00     0.000 C
ATOM     49  C2  NAG B   4      64.402  68.273  12.8710  0.00  0.00     0.000 C
ATOM     50  C3  NAG B   4      65.703  67.527  13.1180  0.00  0.00     0.000 C
ATOM     51  C4  NAG B   4      66.949  68.284  12.6450  0.00  0.00     0.000 C
ATOM     52  C5  NAG B   4      67.078  69.625  13.3480  0.00  0.00     0.000 C
ATOM     53  O5  NAG B   4      65.831  70.342  13.4830  0.00  0.00     0.000 O
BRANCH 49 56
ATOM     54   N  NAG B   4      63.695  67.958  14.1250  0.00  0.00     0.000 N
ATOM     56  HD  NAG B   4      63.972  68.148  14.9230  0.00  0.00     0.000 HD
ATOM     56   C  NAG B   4      61.998  67.055  15.6080  0.00  0.00     0.000 C
ATOM     57   O  NAG B   4      62.110  66.540  13.3220  0.00  0.00     0.000 OA
ATOM     58   C  NAG B   4      62.616  67.159  14.2470  0.00  0.00     0.000 C
ENDBRANCH 49 56
ATOM     59   O  NAG B   4      68.557  71.601  13.3990  0.00  0.00     0.000 O
ATOM     61  HD  NAG B   4      67.854  71.209  13.0780  0.00  0.00     0.000 HD
ATOM     61   O  NAG B   4      68.557  71.601  13.3990  0.00  0.00     0.000 O
ATOM     63  HD  NAG B   4      67.854  71.209  13.0780  0.00  0.00     0.000 HD
ENDBRANCH 47 50
ENDBRANCH 34 47
ENDBRANCH 33 37
ENDBRANCH 17 33
ENDBRANCH 16 19
ENDBRANCH 1 16
TORSDOF 10
ENDMDL
MODEL 92
REMARK VINA RESULT:      -0.3     68.306     72.226
ROOT
ATOM      1  C1  GCU B   1      66.195  44.855  64.7600  0.00  0.00     0.000 C
ATOM      2  C2  GCU B   1      65.590  46.054  65.4730  0.00  0.00     0.000 C
ATOM      3  C3  GCU B   1      65.727  45.902  66.9800  0.00  0.00     0.000 C
ATOM      4  C4  GCU B   1      65.193  44.548  67.4220  0.00  0.00     0.000 C
ATOM      5  C5  GCU B   1      65.817  43.417  66.6040  0.00  0.00     0.000 C
ATOM      6  O5  GCU B   1      65.561  43.647  65.2120  0.00  0.00     0.000 O
ATOM      7   O  GCU B   1      66.275  47.217  65.0190  0.00  0.00     0.000 O
ATOM      9  HD  GCU B   1      65.909  47.935  64.7020  0.00  0.00     0.000 HD
ATOM      9   O  GCU B   1      65.023  46.945  67.6580  0.00  0.00     0.000 O
ATOM     11  HD  GCU B   1      64.656  47.662  67.3410  0.00  0.00     0.000 HD
ATOM     11   O  GCU B   1      65.490  44.364  68.8070  0.00  0.00     0.000 O
ATOM     13  HD  GCU B   1      65.123  45.082  68.4890  0.00  0.00     0.000 HD
ENDROOT
BRANCH 5 13
ATOM     13   C  GCU B   1      65.280  42.086  67.0730  0.00  0.00     0.000 C
ATOM     14   O  GCU B   1      65.753  41.536  68.0890  0.00  0.00     0.000 OA
ATOM     15   O  GCU B   1      64.339  41.587  66.4260  0.00  0.00     0.000 OA
ENDBRANCH 5 13
BRANCH 1 16
ATOM     16  O3  NAG B   2      65.879  44.382  63.5520  0.00  0.00     0.000 O
BRANCH 16 19
ATOM     17  C1  NAG B   2      68.124  43.812  60.5750  0.00  0.00     0.000 C
ATOM     18  C2  NAG B   2      67.506  44.570  61.7420  0.00  0.00     0.000 C
ATOM     19  C3  NAG B   2      66.608  43.643  62.5600  0.00  0.00     0.000 C
ATOM     20  C4  NAG B   2      65.598  42.942  61.6520  0.00  0.00     0.000 C
ATOM     21  C5  NAG B   2      66.328  42.219  60.5300  0.00  0.00     0.000 C
ATOM     22  O5  NAG B   2      67.105  43.175  59.7870  0.00  0.00     0.000 O
ATOM     23   O  NAG B   2      64.833  42.029  62.4470  0.00  0.00     0.000 O
ATOM     25  HD  NAG B   2      64.418  42.719  62.1290  0.00  0.00     0.000 HD
ATOM     25   C  NAG B   2      65.379  41.480  59.5880  0.00  0.00     0.000 C
ATOM     26   O  NAG B   2      64.660  42.388  58.7400  0.00  0.00     0.000 O
ATOM     28  HD  NAG B   2      64.244  43.078  58.4220  0.00  0.00     0.000 HD
BRANCH 18 30
ATOM     28   N  NAG B   2      68.729  45.192  62.2110  0.00  0.00     0.000 N
ATOM     30  HD  NAG B   2      68.133  45.807  62.3390  0.00  0.00     0.000 HD
ATOM     30   C  NAG B   2      68.816  46.472  62.5930  0.00  0.00     0.000 C
ATOM     31   C  NAG B   2      70.166  46.984  63.0120  0.00  0.00     0.000 C
ATOM     32   O  NAG B   2      67.847  47.205  62.6030  0.00  0.00     0.000 OA
ENDBRANCH 18 30
BRANCH 17 33
ATOM     33  O4  GCU B   3      68.926  44.746  59.8250  0.00  0.00     0.000 O
BRANCH 33 37
ATOM     34  C1  GCU B   3      71.972  44.094  57.0620  0.00  0.00     0.000 C
ATOM     35  C2  GCU B   3      70.535  44.124  56.5400  0.00  0.00     0.000 C
ATOM     36  C3  GCU B   3      69.637  44.780  57.5670  0.00  0.00     0.000 C
ATOM     37  C4  GCU B   3      69.780  44.065  58.9030  0.00  0.00     0.000 C
ATOM     38  C5  GCU B   3      71.245  44.087  59.3450  0.00  0.00     0.000 C
ATOM     39  O5  GCU B   3      72.034  43.447  58.3370  0.00  0.00     0.000 O
ATOM     40   O  GCU B   3      70.503  44.859  55.3150  0.00  0.00     0.000 O
ATOM     42  HD  GCU B   3      70.082  45.499  54.9110  0.00  0.00     0.000 HD
ATOM     42   O  GCU B   3      68.263  44.761  57.1400  0.00  0.00     0.000 O
ATOM     44  HD  GCU B   3      67.842  45.401  56.7370  0.00  0.00     0.000 HD
BRANCH 38 44
ATOM     44   C  GCU B   3      71.469  43.372  60.6530  0.00  0.00     0.000 C
ATOM     45   O  GCU B   3      71.538  42.134  60.6490  0.00  0.00     0.000 OA
ATOM     46   O  GCU B   3      71.583  44.030  61.7050  0.00  0.00     0.000 OA
ENDBRANCH 38 44
BRANCH 34 47
ATOM     47  O3  NAG B   4      72.704  43.340  56.2540  0.00  0.00     0.000 O
BRANCH 47 50
ATOM     48  C1  NAG B   4      75.341  43.529  53.6530  0.00  0.00     0.000 C
ATOM     49  C2  NAG B   4      74.090  43.929  54.4280  0.00  0.00     0.000 C
ATOM     50  C3  NAG B   4      74.057  43.286  55.8050  0.00  0.00     0.000 C
ATOM     51  C4  NAG B   4      74.541  41.831  55.8190  0.00  0.00     0.000 C
ATOM     52  C5  NAG B   4      75.973  41.722  55.3220  0.00  0.00     0.000 C
ATOM     53  O5  NAG B   4      76.262  42.546  54.1710  0.00  0.00     0.000 O
BRANCH 49 56
ATOM     54   N  NAG B   4      74.576  45.271  54.7920  0.00  0.00     0.000 N
ATOM     56  HD  NAG B   4      75.324  45.447  55.1910  0.00  0.00     0.000 HD
ATOM     56   C  NAG B   4      74.585  47.682  55.0720  0.00  0.00     0.000 C
ATOM     57   O  NAG B   4      72.677  46.471  54.4450  0.00  0.00     0.000 OA
ATOM     58   C  NAG B   4      73.859  46.412  54.7480  0.00  0.00     0.000 C
ENDBRANCH 49 56
ATOM     59   O  NAG B   4      77.705  40.015  54.9010  0.00  0.00     0.000 O
ATOM     61  HD  NAG B   4      77.050  40.495  54.6010  0.00  0.00     0.000 HD
ATOM     61   O  NAG B   4      77.705  40.015  54.9010  0.00  0.00     0.000 O
ATOM     63  HD  NAG B   4      77.050  40.495  54.6010  0.00  0.00     0.000 HD
ENDBRANCH 47 50
ENDBRANCH 34 47
ENDBRANCH 33 37
ENDBRANCH 17 33
ENDBRANCH 16 19
ENDBRANCH 1 16
TORSDOF 10
ENDMDL
MODEL 93
REMARK VINA RESULT:      -0.3     70.766     74.747
ROOT
ATOM      1  C1  GCU B   1      66.725  83.488  40.8990  0.00  0.00     0.000 C
ATOM      2  C2  GCU B   1      65.925  84.738  40.5670  0.00  0.00     0.000 C
ATOM      3  C3  GCU B   1      66.216  85.839  41.5740  0.00  0.00     0.000 C
ATOM      4  C4  GCU B   1      66.040  85.315  42.9910  0.00  0.00     0.000 C
ATOM      5  C5  GCU B   1      66.835  84.026  43.2030  0.00  0.00     0.000 C
ATOM      6  O5  GCU B   1      66.421  83.054  42.2340  0.00  0.00     0.000 O
ATOM      7   O  GCU B   1      66.289  85.148  39.2520  0.00  0.00     0.000 O
ATOM      9  HD  GCU B   1      65.745  85.310  38.5990  0.00  0.00     0.000 HD
ATOM      9   O  GCU B   1      65.351  86.958  41.3620  0.00  0.00     0.000 O
ATOM     11  HD  GCU B   1      64.807  87.121  40.7080  0.00  0.00     0.000 HD
ATOM     11   O  GCU B   1      66.484  86.313  43.9110  0.00  0.00     0.000 O
ATOM     13  HD  GCU B   1      65.939  86.476  43.2570  0.00  0.00     0.000 HD
ENDROOT
BRANCH 5 13
ATOM     13   C  GCU B   1      66.653  83.537  44.6200  0.00  0.00     0.000 C
ATOM     14   O  GCU B   1      67.321  84.034  45.5500  0.00  0.00     0.000 OA
ATOM     15   O  GCU B   1      65.800  82.650  44.8160  0.00  0.00     0.000 OA
ENDBRANCH 5 13
BRANCH 1 16
ATOM     16  O3  NAG B   2      66.427  82.225  40.5880  0.00  0.00     0.000 O
BRANCH 16 19
ATOM     17  C1  NAG B   2      68.491  79.707  38.6820  0.00  0.00     0.000 C
ATOM     18  C2  NAG B   2      67.815  81.043  38.9660  0.00  0.00     0.000 C
ATOM     19  C3  NAG B   2      67.221  81.047  40.3730  0.00  0.00     0.000 C
ATOM     20  C4  NAG B   2      66.324  79.826  40.5770  0.00  0.00     0.000 C
ATOM     21  C5  NAG B   2      67.105  78.557  40.2700  0.00  0.00     0.000 C
ATOM     22  O5  NAG B   2      67.581  78.619  38.9140  0.00  0.00     0.000 O
ATOM     23   O  NAG B   2      65.854  79.832  41.9290  0.00  0.00     0.000 O
ATOM     25  HD  NAG B   2      65.269  79.974  41.3070  0.00  0.00     0.000 HD
ATOM     25   C  NAG B   2      66.274  77.290  40.4680  0.00  0.00     0.000 C
ATOM     26   O  NAG B   2      65.301  77.126  39.4250  0.00  0.00     0.000 O
ATOM     28  HD  NAG B   2      64.715  77.267  38.8030  0.00  0.00     0.000 HD
BRANCH 18 30
ATOM     28   N  NAG B   2      68.900  81.887  38.5030  0.00  0.00     0.000 N
ATOM     30  HD  NAG B   2      68.192  82.319  38.2520  0.00  0.00     0.000 HD
ATOM     30   C  NAG B   2      68.725  82.979  37.7490  0.00  0.00     0.000 C
ATOM     31   C  NAG B   2      69.953  83.726  37.3100  0.00  0.00     0.000 C
ATOM     32   O  NAG B   2      67.620  83.362  37.4210  0.00  0.00     0.000 OA
ENDBRANCH 18 30
BRANCH 17 33
ATOM     33  O4  GCU B   3      68.997  79.753  37.3330  0.00  0.00     0.000 O
BRANCH 33 37
ATOM     34  C1  GCU B   3      71.874  77.416  35.4370  0.00  0.00     0.000 C
ATOM     35  C2  GCU B   3      70.430  76.914  35.4230  0.00  0.00     0.000 C
ATOM     36  C3  GCU B   3      69.493  78.054  35.7610  0.00  0.00     0.000 C
ATOM     37  C4  GCU B   3      69.904  78.676  37.0880  0.00  0.00     0.000 C
ATOM     38  C5  GCU B   3      71.356  79.150  37.0080  0.00  0.00     0.000 C
ATOM     39  O5  GCU B   3      72.185  78.026  36.6940  0.00  0.00     0.000 O
ATOM     40   O  GCU B   3      70.132  76.399  34.1230  0.00  0.00     0.000 O
ATOM     42  HD  GCU B   3      69.545  76.442  33.4880  0.00  0.00     0.000 HD
ATOM     42   O  GCU B   3      68.129  77.602  35.8270  0.00  0.00     0.000 O
ATOM     44  HD  GCU B   3      67.543  77.645  35.1920  0.00  0.00     0.000 HD
BRANCH 38 44
ATOM     44   C  GCU B   3      71.843  79.757  38.2990  0.00  0.00     0.000 C
ATOM     45   O  GCU B   3      72.191  78.999  39.2180  0.00  0.00     0.000 OA
ATOM     46   O  GCU B   3      71.891  80.996  38.4210  0.00  0.00     0.000 OA
ENDBRANCH 38 44
BRANCH 34 47
ATOM     47  O3  NAG B   4      72.689  76.375  35.3450  0.00  0.00     0.000 O
BRANCH 47 50
ATOM     48  C1  NAG B   4      74.993  74.649  33.0060  0.00  0.00     0.000 C
ATOM     49  C2  NAG B   4      73.751  75.407  33.4640  0.00  0.00     0.000 C
ATOM     50  C3  NAG B   4      73.978  76.092  34.8020  0.00  0.00     0.000 C
ATOM     51  C4  NAG B   4      74.778  75.248  35.8010  0.00  0.00     0.000 C
ATOM     52  C5  NAG B   4      76.152  74.901  35.2520  0.00  0.00     0.000 C
ATOM     53  O5  NAG B   4      76.152  74.524  33.8570  0.00  0.00     0.000 O
BRANCH 49 56
ATOM     54   N  NAG B   4      73.949  76.554  32.5610  0.00  0.00     0.000 N
ATOM     56  HD  NAG B   4      74.668  77.033  32.5010  0.00  0.00     0.000 HD
ATOM     56   C  NAG B   4      73.434  78.255  30.9070  0.00  0.00     0.000 C
ATOM     57   O  NAG B   4      71.805  76.872  31.8740  0.00  0.00     0.000 OA
ATOM     58   C  NAG B   4      72.991  77.165  31.8340  0.00  0.00     0.000 C
ENDBRANCH 49 56
ATOM     59   O  NAG B   4      78.185  73.655  35.8900  0.00  0.00     0.000 O
ATOM     61  HD  NAG B   4      77.416  73.665  35.4920  0.00  0.00     0.000 HD
ATOM     61   O  NAG B   4      78.185  73.655  35.8900  0.00  0.00     0.000 O
ATOM     63  HD  NAG B   4      77.416  73.665  35.4920  0.00  0.00     0.000 HD
ENDBRANCH 47 50
ENDBRANCH 34 47
ENDBRANCH 33 37
ENDBRANCH 17 33
ENDBRANCH 16 19
ENDBRANCH 1 16
TORSDOF 10
ENDMDL
MODEL 94
REMARK VINA RESULT:      -0.3     48.928     54.630
ROOT
ATOM      1  C1  GCU B   1      56.874  72.066  32.4250  0.00  0.00     0.000 C
ATOM      2  C2  GCU B   1      58.361  72.385  32.4290  0.00  0.00     0.000 C
ATOM      3  C3  GCU B   1      59.028  71.794  33.6620  0.00  0.00     0.000 C
ATOM      4  C4  GCU B   1      58.274  72.206  34.9160  0.00  0.00     0.000 C
ATOM      5  C5  GCU B   1      56.781  71.899  34.7860  0.00  0.00     0.000 C
ATOM      6  O5  GCU B   1      56.264  72.565  33.6260  0.00  0.00     0.000 O
ATOM      7   O  GCU B   1      58.924  71.839  31.2400  0.00  0.00     0.000 O
ATOM      9  HD  GCU B   1      59.410  72.264  30.6630  0.00  0.00     0.000 HD
ATOM      9   O  GCU B   1      60.389  72.223  33.7530  0.00  0.00     0.000 O
ATOM     11  HD  GCU B   1      60.875  72.649  33.1760  0.00  0.00     0.000 HD
ATOM     11   O  GCU B   1      58.817  71.502  36.0340  0.00  0.00     0.000 O
ATOM     13  HD  GCU B   1      59.303  71.927  35.4570  0.00  0.00     0.000 HD
ENDROOT
BRANCH 5 13
ATOM     13   C  GCU B   1      56.061  72.305  36.0490  0.00  0.00     0.000 C
ATOM     14   O  GCU B   1      56.070  71.557  37.0490  0.00  0.00     0.000 OA
ATOM     15   O  GCU B   1      55.492  73.414  36.0550  0.00  0.00     0.000 OA
ENDBRANCH 5 13
BRANCH 1 16
ATOM     16  O3  NAG B   2      55.896  72.752  31.8300  0.00  0.00     0.000 O
BRANCH 16 19
ATOM     17  C1  NAG B   2      53.359  71.554  29.3090  0.00  0.00     0.000 C
ATOM     18  C2  NAG B   2      54.737  71.759  29.9270  0.00  0.00     0.000 C
ATOM     19  C3  NAG B   2      54.607  72.388  31.3130  0.00  0.00     0.000 C
ATOM     20  C4  NAG B   2      53.747  73.649  31.2470  0.00  0.00     0.000 C
ATOM     21  C5  NAG B   2      52.400  73.323  30.6190  0.00  0.00     0.000 C
ATOM     22  O5  NAG B   2      52.618  72.785  29.3020  0.00  0.00     0.000 O
ATOM     23   O  NAG B   2      53.590  74.158  32.5770  0.00  0.00     0.000 O
ATOM     25  HD  NAG B   2      54.063  74.631  32.0260  0.00  0.00     0.000 HD
ATOM     25   C  NAG B   2      51.478  74.538  30.5350  0.00  0.00     0.000 C
ATOM     26   O  NAG B   2      51.902  75.456  29.5160  0.00  0.00     0.000 O
ATOM     28  HD  NAG B   2      52.376  75.929  28.9660  0.00  0.00     0.000 HD
BRANCH 18 30
ATOM     28   N  NAG B   2      55.251  70.433  29.6450  0.00  0.00     0.000 N
ATOM     30  HD  NAG B   2      55.942  70.942  29.5280  0.00  0.00     0.000 HD
ATOM     30   C  NAG B   2      56.484  70.194  29.1810  0.00  0.00     0.000 C
ATOM     31   C  NAG B   2      56.857  68.766  28.8940  0.00  0.00     0.000 C
ATOM     32   O  NAG B   2      57.282  71.090  28.9910  0.00  0.00     0.000 OA
ENDBRANCH 18 30
BRANCH 17 33
ATOM     33  O4  GCU B   3      53.550  70.995  27.9940  0.00  0.00     0.000 O
BRANCH 33 37
ATOM     34  C1  GCU B   3      50.903  68.971  25.4990  0.00  0.00     0.000 C
ATOM     35  C2  GCU B   3      50.934  70.497  25.4120  0.00  0.00     0.000 C
ATOM     36  C3  GCU B   3      52.208  71.015  26.0450  0.00  0.00     0.000 C
ATOM     37  C4  GCU B   3      52.323  70.488  27.4680  0.00  0.00     0.000 C
ATOM     38  C5  GCU B   3      52.285  68.959  27.4550  0.00  0.00     0.000 C
ATOM     39  O5  GCU B   3      51.056  68.538  26.8540  0.00  0.00     0.000 O
ATOM     40   O  GCU B   3      50.872  70.884  24.0370  0.00  0.00     0.000 O
ATOM     42  HD  GCU B   3      51.260  71.390  23.4500  0.00  0.00     0.000 HD
ATOM     42   O  GCU B   3      52.238  72.454  26.0460  0.00  0.00     0.000 O
ATOM     44  HD  GCU B   3      52.625  72.959  25.4590  0.00  0.00     0.000 HD
BRANCH 38 44
ATOM     44   C  GCU B   3      52.368  68.363  28.8380  0.00  0.00     0.000 C
ATOM     45   O  GCU B   3      51.343  68.335  29.5360  0.00  0.00     0.000 OA
ATOM     46   O  GCU B   3      53.453  67.910  29.2520  0.00  0.00     0.000 OA
ENDBRANCH 38 44
BRANCH 34 47
ATOM     47  O3  NAG B   4      49.702  68.547  25.1330  0.00  0.00     0.000 O
BRANCH 47 50
ATOM     48  C1  NAG B   4      47.909  66.837  22.3730  0.00  0.00     0.000 C
ATOM     49  C2  NAG B   4      48.908  67.775  23.0400  0.00  0.00     0.000 C
ATOM     50  C3  NAG B   4      49.140  67.401  24.4950  0.00  0.00     0.000 C
ATOM     51  C4  NAG B   4      47.865  66.980  25.2350  0.00  0.00     0.000 C
ATOM     52  C5  NAG B   4      47.216  65.775  24.5740  0.00  0.00     0.000 C
ATOM     53  O5  NAG B   4      47.203  65.831  23.1300  0.00  0.00     0.000 O
BRANCH 49 56
ATOM     54   N  NAG B   4      50.102  67.161  22.4330  0.00  0.00     0.000 N
ATOM     56  HD  NAG B   4      50.311  66.321  22.4660  0.00  0.00     0.000 HD
ATOM     56   C  NAG B   4      52.216  66.994  21.2530  0.00  0.00     0.000 C
ATOM     57   O  NAG B   4      51.274  69.038  21.9130  0.00  0.00     0.000 OA
ATOM     58   C  NAG B   4      51.152  67.822  21.9060  0.00  0.00     0.000 C
ENDBRANCH 49 56
ATOM     59   O  NAG B   4      45.246  64.309  24.8260  0.00  0.00     0.000 O
ATOM     61  HD  NAG B   4      45.608  65.010  24.4680  0.00  0.00     0.000 HD
ATOM     61   O  NAG B   4      45.246  64.309  24.8260  0.00  0.00     0.000 O
ATOM     63  HD  NAG B   4      45.608  65.010  24.4680  0.00  0.00     0.000 HD
ENDBRANCH 47 50
ENDBRANCH 34 47
ENDBRANCH 33 37
ENDBRANCH 17 33
ENDBRANCH 16 19
ENDBRANCH 1 16
TORSDOF 10
ENDMDL
MODEL 95
REMARK VINA RESULT:      -0.3     50.818     55.347
ROOT
ATOM      1  C1  GCU B   1      47.618  80.156  42.4450  0.00  0.00     0.000 C
ATOM      2  C2  GCU B   1      48.701  81.006  41.7990  0.00  0.00     0.000 C
ATOM      3  C3  GCU B   1      50.080  80.494  42.1850  0.00  0.00     0.000 C
ATOM      4  C4  GCU B   1      50.183  80.352  43.6960  0.00  0.00     0.000 C
ATOM      5  C5  GCU B   1      49.016  79.534  44.2520  0.00  0.00     0.000 C
ATOM      6  O5  GCU B   1      47.782  80.157  43.8720  0.00  0.00     0.000 O
ATOM      7   O  GCU B   1      48.516  80.942  40.3880  0.00  0.00     0.000 O
ATOM      9  HD  GCU B   1      48.455  81.618  39.8500  0.00  0.00     0.000 HD
ATOM      9   O  GCU B   1      51.097  81.381  41.7120  0.00  0.00     0.000 O
ATOM     11  HD  GCU B   1      51.036  82.056  41.1740  0.00  0.00     0.000 HD
ATOM     11   O  GCU B   1      51.419  79.711  44.0160  0.00  0.00     0.000 O
ATOM     13  HD  GCU B   1      51.358  80.387  43.4780  0.00  0.00     0.000 HD
ENDROOT
BRANCH 5 13
ATOM     13   C  GCU B   1      49.153  79.397  45.7500  0.00  0.00     0.000 C
ATOM     14   O  GCU B   1      49.914  78.538  46.2390  0.00  0.00     0.000 OA
ATOM     15   O  GCU B   1      48.502  80.188  46.4600  0.00  0.00     0.000 OA
ENDBRANCH 5 13
BRANCH 1 16
ATOM     16  O3  NAG B   2      46.369  80.520  42.7460  0.00  0.00     0.000 O
BRANCH 16 19
ATOM     17  C1  NAG B   2      43.118  78.942  41.6660  0.00  0.00     0.000 C
ATOM     18  C2  NAG B   2      44.513  79.533  41.5080  0.00  0.00     0.000 C
ATOM     19  C3  NAG B   2      45.135  79.799  42.8770  0.00  0.00     0.000 C
ATOM     20  C4  NAG B   2      44.187  80.631  43.7400  0.00  0.00     0.000 C
ATOM     21  C5  NAG B   2      42.832  79.943  43.8290  0.00  0.00     0.000 C
ATOM     22  O5  NAG B   2      42.304  79.780  42.5010  0.00  0.00     0.000 O
ATOM     23   O  NAG B   2      44.776  80.788  45.0360  0.00  0.00     0.000 O
ATOM     25  HD  NAG B   2      44.712  81.497  44.5420  0.00  0.00     0.000 HD
ATOM     25   C  NAG B   2      41.835  80.713  44.6920  0.00  0.00     0.000 C
ATOM     26   O  NAG B   2      41.361  81.895  44.0280  0.00  0.00     0.000 O
ATOM     28  HD  NAG B   2      41.297  82.604  43.5350  0.00  0.00     0.000 HD
BRANCH 18 30
ATOM     28   N  NAG B   2      44.997  78.575  40.5310  0.00  0.00     0.000 N
ATOM     30  HD  NAG B   2      45.357  79.319  40.2730  0.00  0.00     0.000 HD
ATOM     30   C  NAG B   2      45.709  78.910  39.4480  0.00  0.00     0.000 C
ATOM     31   C  NAG B   2      46.099  77.807  38.5040  0.00  0.00     0.000 C
ATOM     32   O  NAG B   2      46.031  80.059  39.2230  0.00  0.00     0.000 OA
ENDBRANCH 18 30
BRANCH 17 33
ATOM     33  O4  GCU B   3      42.574  78.748  40.3450  0.00  0.00     0.000 O
BRANCH 33 37
ATOM     34  C1  GCU B   3      39.415  76.373  39.0360  0.00  0.00     0.000 C
ATOM     35  C2  GCU B   3      39.088  77.786  39.5200  0.00  0.00     0.000 C
ATOM     36  C3  GCU B   3      40.351  78.620  39.5420  0.00  0.00     0.000 C
ATOM     37  C4  GCU B   3      41.409  77.922  40.3850  0.00  0.00     0.000 C
ATOM     38  C5  GCU B   3      41.672  76.522  39.8270  0.00  0.00     0.000 C
ATOM     39  O5  GCU B   3      40.443  75.788  39.8410  0.00  0.00     0.000 O
ATOM     40   O  GCU B   3      38.128  78.368  38.6350  0.00  0.00     0.000 O
ATOM     42  HD  GCU B   3      37.969  79.081  38.1700  0.00  0.00     0.000 HD
ATOM     42   O  GCU B   3      40.093  79.937  40.0620  0.00  0.00     0.000 O
ATOM     44  HD  GCU B   3      39.934  80.650  39.5980  0.00  0.00     0.000 HD
BRANCH 38 44
ATOM     44   C  GCU B   3      42.695  75.758  40.6290  0.00  0.00     0.000 C
ATOM     45   O  GCU B   3      42.336  75.217  41.6860  0.00  0.00     0.000 OA
ATOM     46   O  GCU B   3      43.869  75.680  40.2190  0.00  0.00     0.000 OA
ENDBRANCH 38 44
BRANCH 34 47
ATOM     47  O3  NAG B   4      38.352  75.603  39.2160  0.00  0.00     0.000 O
BRANCH 47 50
ATOM     48  C1  NAG B   4      35.628  73.884  37.3770  0.00  0.00     0.000 C
ATOM     49  C2  NAG B   4      36.619  74.990  37.7250  0.00  0.00     0.000 C
ATOM     50  C3  NAG B   4      37.756  74.469  38.5880  0.00  0.00     0.000 C
ATOM     51  C4  NAG B   4      37.309  73.469  39.6610  0.00  0.00     0.000 C
ATOM     52  C5  NAG B   4      36.644  72.253  39.0380  0.00  0.00     0.000 C
ATOM     53  O5  NAG B   4      35.744  72.565  37.9520  0.00  0.00     0.000 O
BRANCH 49 56
ATOM     54   N  NAG B   4      37.287  74.995  36.4110  0.00  0.00     0.000 N
ATOM     56  HD  NAG B   4      37.632  74.305  36.0170  0.00  0.00     0.000 HD
ATOM     56   C  NAG B   4      38.226  75.859  34.3470  0.00  0.00     0.000 C
ATOM     57   O  NAG B   4      37.504  77.236  36.1020  0.00  0.00     0.000 OA
ATOM     58   C  NAG B   4      37.644  76.088  35.7080  0.00  0.00     0.000 C
ENDBRANCH 49 56
ATOM     59   O  NAG B   4      35.570  70.133  39.7060  0.00  0.00     0.000 O
ATOM     61  HD  NAG B   4      35.493  70.971  39.5030  0.00  0.00     0.000 HD
ATOM     61   O  NAG B   4      35.570  70.133  39.7060  0.00  0.00     0.000 O
ATOM     63  HD  NAG B   4      35.493  70.971  39.5030  0.00  0.00     0.000 HD
ENDBRANCH 47 50
ENDBRANCH 34 47
ENDBRANCH 33 37
ENDBRANCH 17 33
ENDBRANCH 16 19
ENDBRANCH 1 16
TORSDOF 10
ENDMDL
MODEL 96
REMARK VINA RESULT:      -0.3     48.242     52.551
ROOT
ATOM      1  C1  GCU B   1       4.184  23.547  72.0920  0.00  0.00     0.000 C
ATOM      2  C2  GCU B   1       2.771  24.024  72.3920  0.00  0.00     0.000 C
ATOM      3  C3  GCU B   1       2.724  25.543  72.4510  0.00  0.00     0.000 C
ATOM      4  C4  GCU B   1       3.797  26.066  73.3930  0.00  0.00     0.000 C
ATOM      5  C5  GCU B   1       5.167  25.480  73.0450  0.00  0.00     0.000 C
ATOM      6  O5  GCU B   1       5.090  24.049  73.0880  0.00  0.00     0.000 O
ATOM      7   O  GCU B   1       1.921  23.533  71.3600  0.00  0.00     0.000 O
ATOM      9  HD  GCU B   1       1.188  23.086  71.4720  0.00  0.00     0.000 HD
ATOM      9   O  GCU B   1       1.438  25.991  72.8870  0.00  0.00     0.000 O
ATOM     11  HD  GCU B   1       0.704  25.544  72.9990  0.00  0.00     0.000 HD
ATOM     11   O  GCU B   1       3.842  27.490  73.2960  0.00  0.00     0.000 O
ATOM     13  HD  GCU B   1       3.109  27.043  73.4080  0.00  0.00     0.000 HD
ENDROOT
BRANCH 5 13
ATOM     13   C  GCU B   1       6.214  26.027  73.9860  0.00  0.00     0.000 C
ATOM     14   O  GCU B   1       6.710  27.155  73.7910  0.00  0.00     0.000 OA
ATOM     15   O  GCU B   1       6.531  25.322  74.9630  0.00  0.00     0.000 OA
ENDBRANCH 5 13
BRANCH 1 16
ATOM     16  O3  NAG B   2       4.730  22.372  72.4120  0.00  0.00     0.000 O
BRANCH 16 19
ATOM     17  C1  NAG B   2       6.336  19.816  70.1500  0.00  0.00     0.000 C
ATOM     18  C2  NAG B   2       5.270  20.791  70.6340  0.00  0.00     0.000 C
ATOM     19  C3  NAG B   2       5.782  21.583  71.8350  0.00  0.00     0.000 C
ATOM     20  C4  NAG B   2       6.311  20.636  72.9110  0.00  0.00     0.000 C
ATOM     21  C5  NAG B   2       7.368  19.717  72.3160  0.00  0.00     0.000 C
ATOM     22  O5  NAG B   2       6.784  18.978  71.2280  0.00  0.00     0.000 O
ATOM     23   O  NAG B   2       6.850  21.423  73.9800  0.00  0.00     0.000 O
ATOM     25  HD  NAG B   2       6.130  20.972  74.1460  0.00  0.00     0.000 HD
ATOM     25   C  NAG B   2       7.955  18.750  73.3410  0.00  0.00     0.000 C
ATOM     26   O  NAG B   2       7.026  17.710  73.6830  0.00  0.00     0.000 O
ATOM     28  HD  NAG B   2       6.305  17.259  73.8490  0.00  0.00     0.000 HD
BRANCH 18 30
ATOM     28   N  NAG B   2       4.940  21.344  69.3340  0.00  0.00     0.000 N
ATOM     30  HD  NAG B   2       4.174  21.315  69.7370  0.00  0.00     0.000 HD
ATOM     30   C  NAG B   2       3.689  21.579  68.9200  0.00  0.00     0.000 C
ATOM     31   C  NAG B   2       3.505  22.114  67.5270  0.00  0.00     0.000 C
ATOM     32   O  NAG B   2       2.727  21.370  69.6320  0.00  0.00     0.000 OA
ENDBRANCH 18 30
BRANCH 17 33
ATOM     33  O4  GCU B   3       5.781  19.076  69.0440  0.00  0.00     0.000 O
BRANCH 33 37
ATOM     34  C1  GCU B   3       7.648  16.850  66.0630  0.00  0.00     0.000 C
ATOM     35  C2  GCU B   3       7.308  16.138  67.3730  0.00  0.00     0.000 C
ATOM     36  C3  GCU B   3       6.284  16.948  68.1390  0.00  0.00     0.000 C
ATOM     37  C4  GCU B   3       6.800  18.367  68.3380  0.00  0.00     0.000 C
ATOM     38  C5  GCU B   3       7.110  18.997  66.9790  0.00  0.00     0.000 C
ATOM     39  O5  GCU B   3       8.086  18.189  66.3140  0.00  0.00     0.000 O
ATOM     40   O  GCU B   3       6.788  14.841  67.0730  0.00  0.00     0.000 O
ATOM     42  HD  GCU B   3       6.127  14.311  67.2510  0.00  0.00     0.000 HD
ATOM     42   O  GCU B   3       5.994  16.344  69.4130  0.00  0.00     0.000 O
ATOM     44  HD  GCU B   3       5.333  15.814  69.5900  0.00  0.00     0.000 HD
BRANCH 38 44
ATOM     44   C  GCU B   3       7.651  20.399  67.0980  0.00  0.00     0.000 C
ATOM     45   O  GCU B   3       8.847  20.552  67.3880  0.00  0.00     0.000 OA
ATOM     46   O  GCU B   3       6.897  21.372  66.9010  0.00  0.00     0.000 OA
ENDBRANCH 38 44
BRANCH 34 47
ATOM     47  O3  NAG B   4       8.686  16.244  65.5040  0.00  0.00     0.000 O
BRANCH 47 50
ATOM     48  C1  NAG B   4       9.620  14.021  62.6860  0.00  0.00     0.000 C
ATOM     49  C2  NAG B   4       8.782  14.565  63.8380  0.00  0.00     0.000 C
ATOM     50  C3  NAG B   4       9.174  15.992  64.1880  0.00  0.00     0.000 C
ATOM     51  C4  NAG B   4      10.686  16.244  64.1470  0.00  0.00     0.000 C
ATOM     52  C5  NAG B   4      11.254  15.963  62.7660  0.00  0.00     0.000 C
ATOM     53  O5  NAG B   4      10.725  14.772  62.1420  0.00  0.00     0.000 O
BRANCH 49 56
ATOM     54   N  NAG B   4       7.583  14.830  63.0240  0.00  0.00     0.000 N
ATOM     56  HD  NAG B   4       7.558  15.303  62.2990  0.00  0.00     0.000 HD
ATOM     56   C  NAG B   4       5.251  14.821  62.3480  0.00  0.00     0.000 C
ATOM     57   O  NAG B   4       5.979  14.089  64.4540  0.00  0.00     0.000 OA
ATOM     58   C  NAG B   4       6.310  14.554  63.3730  0.00  0.00     0.000 C
ENDBRANCH 49 56
ATOM     59   O  NAG B   4      13.412  15.986  61.5670  0.00  0.00     0.000 O
ATOM     61  HD  NAG B   4      12.822  15.545  62.0240  0.00  0.00     0.000 HD
ATOM     61   O  NAG B   4      13.412  15.986  61.5670  0.00  0.00     0.000 O
ATOM     63  HD  NAG B   4      12.822  15.545  62.0240  0.00  0.00     0.000 HD
ENDBRANCH 47 50
ENDBRANCH 34 47
ENDBRANCH 33 37
ENDBRANCH 17 33
ENDBRANCH 16 19
ENDBRANCH 1 16
TORSDOF 10
ENDMDL
MODEL 97
REMARK VINA RESULT:      -0.3     46.896     51.366
ROOT
ATOM      1  C1  GCU B   1      47.825  25.724  41.5280  0.00  0.00     0.000 C
ATOM      2  C2  GCU B   1      47.252  27.024  42.0710  0.00  0.00     0.000 C
ATOM      3  C3  GCU B   1      45.899  27.314  41.4390  0.00  0.00     0.000 C
ATOM      4  C4  GCU B   1      45.998  27.233  39.9240  0.00  0.00     0.000 C
ATOM      5  C5  GCU B   1      46.642  25.916  39.4850  0.00  0.00     0.000 C
ATOM      6  O5  GCU B   1      47.933  25.797  40.0970  0.00  0.00     0.000 O
ATOM      7   O  GCU B   1      47.131  26.887  43.4830  0.00  0.00     0.000 O
ATOM      9  HD  GCU B   1      47.442  27.434  44.0780  0.00  0.00     0.000 HD
ATOM      9   O  GCU B   1      45.431  28.609  41.8250  0.00  0.00     0.000 O
ATOM     11  HD  GCU B   1      45.742  29.156  42.4200  0.00  0.00     0.000 HD
ATOM     11   O  GCU B   1      44.687  27.339  39.3690  0.00  0.00     0.000 O
ATOM     13  HD  GCU B   1      44.998  27.886  39.9640  0.00  0.00     0.000 HD
ENDROOT
BRANCH 5 13
ATOM     13   C  GCU B   1      46.714  25.857  37.9780  0.00  0.00     0.000 C
ATOM     14   O  GCU B   1      45.713  25.525  37.3100  0.00  0.00     0.000 OA
ATOM     15   O  GCU B   1      47.793  26.178  37.4420  0.00  0.00     0.000 OA
ENDBRANCH 5 13
BRANCH 1 16
ATOM     16  O3  NAG B   2      49.109  25.371  41.4500  0.00  0.00     0.000 O
BRANCH 16 19
ATOM     17  C1  NAG B   2      50.815  22.323  42.8760  0.00  0.00     0.000 C
ATOM     18  C2  NAG B   2      49.931  23.564  42.8700  0.00  0.00     0.000 C
ATOM     19  C3  NAG B   2      49.786  24.104  41.4480  0.00  0.00     0.000 C
ATOM     20  C4  NAG B   2      51.161  24.301  40.8110  0.00  0.00     0.000 C
ATOM     21  C5  NAG B   2      51.949  23.000  40.8700  0.00  0.00     0.000 C
ATOM     22  O5  NAG B   2      52.077  22.596  42.2450  0.00  0.00     0.000 O
ATOM     23   O  NAG B   2      50.974  24.733  39.4580  0.00  0.00     0.000 O
ATOM     25  HD  NAG B   2      51.313  25.306  40.0120  0.00  0.00     0.000 HD
ATOM     25   C  NAG B   2      53.333  23.118  40.2350  0.00  0.00     0.000 C
ATOM     26   O  NAG B   2      54.231  23.878  41.0580  0.00  0.00     0.000 O
ATOM     28  HD  NAG B   2      54.570  24.451  41.6120  0.00  0.00     0.000 HD
BRANCH 18 30
ATOM     28   N  NAG B   2      48.860  23.016  43.6800  0.00  0.00     0.000 N
ATOM     30  HD  NAG B   2      48.903  23.841  43.9400  0.00  0.00     0.000 HD
ATOM     30   C  NAG B   2      48.253  23.687  44.6670  0.00  0.00     0.000 C
ATOM     31   C  NAG B   2      47.189  22.968  45.4470  0.00  0.00     0.000 C
ATOM     32   O  NAG B   2      48.545  24.836  44.9340  0.00  0.00     0.000 OA
ENDBRANCH 18 30
BRANCH 17 33
ATOM     33  O4  GCU B   3      50.942  21.885  44.2430  0.00  0.00     0.000 O
BRANCH 33 37
ATOM     34  C1  GCU B   3      52.116  18.213  45.8150  0.00  0.00     0.000 C
ATOM     35  C2  GCU B   3      53.210  19.235  45.5050  0.00  0.00     0.000 C
ATOM     36  C3  GCU B   3      52.594  20.610  45.3600  0.00  0.00     0.000 C
ATOM     37  C4  GCU B   3      51.491  20.568  44.3120  0.00  0.00     0.000 C
ATOM     38  C5  GCU B   3      50.445  19.524  44.7070  0.00  0.00     0.000 C
ATOM     39  O5  GCU B   3      51.091  18.252  44.8190  0.00  0.00     0.000 O
ATOM     40   O  GCU B   3      54.164  19.230  46.5690  0.00  0.00     0.000 O
ATOM     42  HD  GCU B   3      54.589  19.757  47.1100  0.00  0.00     0.000 HD
ATOM     42   O  GCU B   3      53.586  21.586  44.9950  0.00  0.00     0.000 O
ATOM     44  HD  GCU B   3      54.011  22.113  45.5360  0.00  0.00     0.000 HD
BRANCH 38 44
ATOM     44   C  GCU B   3      49.329  19.407  43.6990  0.00  0.00     0.000 C
ATOM     45   O  GCU B   3      49.528  18.748  42.6670  0.00  0.00     0.000 OA
ATOM     46   O  GCU B   3      48.237  19.966  43.9190  0.00  0.00     0.000 OA
ENDBRANCH 38 44
BRANCH 34 47
ATOM     47  O3  NAG B   4      52.633  16.995  45.7350  0.00  0.00     0.000 O
BRANCH 47 50
ATOM     48  C1  NAG B   4      53.695  14.115  47.8170  0.00  0.00     0.000 C
ATOM     49  C2  NAG B   4      53.504  15.574  47.4160  0.00  0.00     0.000 C
ATOM     50  C3  NAG B   4      52.431  15.724  46.3500  0.00  0.00     0.000 C
ATOM     51  C4  NAG B   4      52.467  14.628  45.2780  0.00  0.00     0.000 C
ATOM     52  C5  NAG B   4      52.281  13.251  45.8930  0.00  0.00     0.000 C
ATOM     53  O5  NAG B   4      53.009  13.051  47.1240  0.00  0.00     0.000 O
BRANCH 49 56
ATOM     54   N  NAG B   4      52.723  15.944  48.6090  0.00  0.00     0.000 N
ATOM     56  HD  NAG B   4      52.007  15.545  48.8880  0.00  0.00     0.000 HD
ATOM     56   C  NAG B   4      52.034  17.195  50.5720  0.00  0.00     0.000 C
ATOM     57   O  NAG B   4      53.658  17.965  49.0650  0.00  0.00     0.000 OA
ATOM     58   C  NAG B   4      52.874  17.068  49.3380  0.00  0.00     0.000 C
ENDBRANCH 49 56
ATOM     59   O  NAG B   4      52.185  10.877  45.2230  0.00  0.00     0.000 O
ATOM     61  HD  NAG B   4      52.653  11.549  45.5030  0.00  0.00     0.000 HD
ATOM     61   O  NAG B   4      52.185  10.877  45.2230  0.00  0.00     0.000 O
ATOM     63  HD  NAG B   4      52.653  11.549  45.5030  0.00  0.00     0.000 HD
ENDBRANCH 47 50
ENDBRANCH 34 47
ENDBRANCH 33 37
ENDBRANCH 17 33
ENDBRANCH 16 19
ENDBRANCH 1 16
TORSDOF 10
ENDMDL
MODEL 98
REMARK VINA RESULT:      -0.3     52.006     54.727
ROOT
ATOM      1  C1  GCU B   1      50.371  74.811  30.5910  0.00  0.00     0.000 C
ATOM      2  C2  GCU B   1      51.292  74.761  31.8000  0.00  0.00     0.000 C
ATOM      3  C3  GCU B   1      50.758  73.783  32.8350  0.00  0.00     0.000 C
ATOM      4  C4  GCU B   1      49.300  74.087  33.1430  0.00  0.00     0.000 C
ATOM      5  C5  GCU B   1      48.474  74.176  31.8590  0.00  0.00     0.000 C
ATOM      6  O5  GCU B   1      49.043  75.175  31.0020  0.00  0.00     0.000 O
ATOM      7   O  GCU B   1      52.581  74.361  31.3460  0.00  0.00     0.000 O
ATOM      9  HD  GCU B   1      53.327  74.771  31.5030  0.00  0.00     0.000 HD
ATOM      9   O  GCU B   1      51.530  73.849  34.0370  0.00  0.00     0.000 O
ATOM     11  HD  GCU B   1      52.277  74.259  34.1930  0.00  0.00     0.000 HD
ATOM     11   O  GCU B   1      48.780  73.055  33.9820  0.00  0.00     0.000 O
ATOM     13  HD  GCU B   1      49.526  73.465  34.1380  0.00  0.00     0.000 HD
ENDROOT
BRANCH 5 13
ATOM     13   C  GCU B   1      47.030  74.465  32.1950  0.00  0.00     0.000 C
ATOM     14   O  GCU B   1      46.269  73.543  32.5540  0.00  0.00     0.000 OA
ATOM     15   O  GCU B   1      46.651  75.650  32.1270  0.00  0.00     0.000 OA
ENDBRANCH 5 13
BRANCH 1 16
ATOM     16  O3  NAG B   2      50.212  75.819  29.7310  0.00  0.00     0.000 O
BRANCH 16 19
ATOM     17  C1  NAG B   2      50.614  75.816  25.9810  0.00  0.00     0.000 C
ATOM     18  C2  NAG B   2      50.990  75.554  27.4330  0.00  0.00     0.000 C
ATOM     19  C3  NAG B   2      49.816  75.888  28.3520  0.00  0.00     0.000 C
ATOM     20  C4  NAG B   2      49.307  77.302  28.0730  0.00  0.00     0.000 C
ATOM     21  C5  NAG B   2      48.961  77.444  26.5980  0.00  0.00     0.000 C
ATOM     22  O5  NAG B   2      50.134  77.160  25.8150  0.00  0.00     0.000 O
ATOM     23   O  NAG B   2      48.162  77.541  28.9000  0.00  0.00     0.000 O
ATOM     25  HD  NAG B   2      48.879  77.993  29.0780  0.00  0.00     0.000 HD
ATOM     25   C  NAG B   2      48.428  78.831  26.2480  0.00  0.00     0.000 C
ATOM     26   O  NAG B   2      49.472  79.817  26.2540  0.00  0.00     0.000 O
ATOM     28  HD  NAG B   2      50.189  80.270  26.4320  0.00  0.00     0.000 HD
BRANCH 18 30
ATOM     28   N  NAG B   2      51.555  74.234  27.2300  0.00  0.00     0.000 N
ATOM     30  HD  NAG B   2      52.069  74.578  27.8360  0.00  0.00     0.000 HD
ATOM     30   C  NAG B   2      52.692  73.814  27.7990  0.00  0.00     0.000 C
ATOM     31   C  NAG B   2      53.174  72.432  27.4540  0.00  0.00     0.000 C
ATOM     32   O  NAG B   2      53.323  74.515  28.5640  0.00  0.00     0.000 OA
ENDBRANCH 18 30
BRANCH 17 33
ATOM     33  O4  GCU B   3      51.770  75.518  25.1710  0.00  0.00     0.000 O
BRANCH 33 37
ATOM     34  C1  GCU B   3      52.097  74.752  21.0920  0.00  0.00     0.000 C
ATOM     35  C2  GCU B   3      52.158  76.210  21.5480  0.00  0.00     0.000 C
ATOM     36  C3  GCU B   3      52.451  76.266  23.0320  0.00  0.00     0.000 C
ATOM     37  C4  GCU B   3      51.421  75.439  23.7880  0.00  0.00     0.000 C
ATOM     38  C5  GCU B   3      51.435  74.000  23.2680  0.00  0.00     0.000 C
ATOM     39  O5  GCU B   3      51.144  74.019  21.8670  0.00  0.00     0.000 O
ATOM     40   O  GCU B   3      53.185  76.882  20.8150  0.00  0.00     0.000 O
ATOM     42  HD  GCU B   3      53.876  77.394  20.9180  0.00  0.00     0.000 HD
ATOM     42   O  GCU B   3      52.443  77.623  23.5100  0.00  0.00     0.000 O
ATOM     44  HD  GCU B   3      53.134  78.135  23.6130  0.00  0.00     0.000 HD
BRANCH 38 44
ATOM     44   C  GCU B   3      50.419  73.123  23.9560  0.00  0.00     0.000 C
ATOM     45   O  GCU B   3      49.234  73.192  23.5950  0.00  0.00     0.000 OA
ATOM     46   O  GCU B   3      50.783  72.350  24.8630  0.00  0.00     0.000 OA
ENDBRANCH 38 44
BRANCH 34 47
ATOM     47  O3  NAG B   4      51.640  74.711  19.8490  0.00  0.00     0.000 O
BRANCH 47 50
ATOM     48  C1  NAG B   4      52.702  74.096  16.3490  0.00  0.00     0.000 C
ATOM     49  C2  NAG B   4      52.790  74.609  17.7830  0.00  0.00     0.000 C
ATOM     50  C3  NAG B   4      51.806  73.892  18.6930  0.00  0.00     0.000 C
ATOM     51  C4  NAG B   4      50.439  73.638  18.0470  0.00  0.00     0.000 C
ATOM     52  C5  NAG B   4      50.571  72.788  16.7940  0.00  0.00     0.000 C
ATOM     53  O5  NAG B   4      51.689  73.149  15.9520  0.00  0.00     0.000 O
BRANCH 49 56
ATOM     54   N  NAG B   4      54.021  73.872  18.1180  0.00  0.00     0.000 N
ATOM     56  HD  NAG B   4      54.141  73.019  18.0270  0.00  0.00     0.000 HD
ATOM     56   C  NAG B   4      56.267  73.463  18.9440  0.00  0.00     0.000 C
ATOM     57   O  NAG B   4      55.126  75.485  19.2790  0.00  0.00     0.000 OA
ATOM     58   C  NAG B   4      55.077  74.362  18.7990  0.00  0.00     0.000 C
ENDBRANCH 49 56
ATOM     59   O  NAG B   4      49.169  71.811  15.0140  0.00  0.00     0.000 O
ATOM     61  HD  NAG B   4      49.662  72.465  15.2930  0.00  0.00     0.000 HD
ATOM     61   O  NAG B   4      49.169  71.811  15.0140  0.00  0.00     0.000 O
ATOM     63  HD  NAG B   4      49.662  72.465  15.2930  0.00  0.00     0.000 HD
ENDBRANCH 47 50
ENDBRANCH 34 47
ENDBRANCH 33 37
ENDBRANCH 17 33
ENDBRANCH 16 19
ENDBRANCH 1 16
TORSDOF 10
ENDMDL
MODEL 99
REMARK VINA RESULT:      -0.3     41.469     44.782
ROOT
ATOM      1  C1  GCU B   1      37.015  36.893  56.6390  0.00  0.00     0.000 C
ATOM      2  C2  GCU B   1      35.604  36.597  57.1230  0.00  0.00     0.000 C
ATOM      3  C3  GCU B   1      34.908  37.881  57.5500  0.00  0.00     0.000 C
ATOM      4  C4  GCU B   1      35.781  38.651  58.5280  0.00  0.00     0.000 C
ATOM      5  C5  GCU B   1      37.194  38.841  57.9730  0.00  0.00     0.000 C
ATOM      6  O5  GCU B   1      37.758  37.557  57.6730  0.00  0.00     0.000 O
ATOM      7   O  GCU B   1      34.900  35.974  56.0530  0.00  0.00     0.000 O
ATOM      9  HD  GCU B   1      34.465  35.227  56.0940  0.00  0.00     0.000 HD
ATOM      9   O  GCU B   1      33.644  37.592  58.1530  0.00  0.00     0.000 O
ATOM     11  HD  GCU B   1      33.208  36.845  58.1950  0.00  0.00     0.000 HD
ATOM     11   O  GCU B   1      35.184  39.924  58.7770  0.00  0.00     0.000 O
ATOM     13  HD  GCU B   1      34.748  39.177  58.8180  0.00  0.00     0.000 HD
ENDROOT
BRANCH 5 13
ATOM     13   C  GCU B   1      38.033  39.620  58.9580  0.00  0.00     0.000 C
ATOM     14   O  GCU B   1      37.948  40.864  59.0140  0.00  0.00     0.000 OA
ATOM     15   O  GCU B   1      38.777  38.970  59.7170  0.00  0.00     0.000 OA
ENDBRANCH 5 13
BRANCH 1 16
ATOM     16  O3  NAG B   2      38.063  36.066  56.6340  0.00  0.00     0.000 O
BRANCH 16 19
ATOM     17  C1  NAG B   2      40.238  35.020  53.7360  0.00  0.00     0.000 C
ATOM     18  C2  NAG B   2      38.946  35.281  54.4990  0.00  0.00     0.000 C
ATOM     19  C3  NAG B   2      39.246  35.977  55.8250  0.00  0.00     0.000 C
ATOM     20  C4  NAG B   2      40.300  35.197  56.6100  0.00  0.00     0.000 C
ATOM     21  C5  NAG B   2      41.542  35.001  55.7510  0.00  0.00     0.000 C
ATOM     22  O5  NAG B   2      41.173  34.297  54.5530  0.00  0.00     0.000 O
ATOM     23   O  NAG B   2      40.605  35.925  57.8040  0.00  0.00     0.000 O
ATOM     25  HD  NAG B   2      40.191  35.170  57.8970  0.00  0.00     0.000 HD
ATOM     25   C  NAG B   2      42.648  34.240  56.4790  0.00  0.00     0.000 C
ATOM     26   O  NAG B   2      42.334  32.845  56.6110  0.00  0.00     0.000 O
ATOM     28  HD  NAG B   2      41.920  32.090  56.7030  0.00  0.00     0.000 HD
BRANCH 18 30
ATOM     28   N  NAG B   2      38.204  35.855  53.3920  0.00  0.00     0.000 N
ATOM     30  HD  NAG B   2      37.603  35.400  53.8190  0.00  0.00     0.000 HD
ATOM     30   C  NAG B   2      36.928  35.560  53.1180  0.00  0.00     0.000 C
ATOM     31   C  NAG B   2      36.309  36.202  51.9080  0.00  0.00     0.000 C
ATOM     32   O  NAG B   2      36.282  34.800  53.8110  0.00  0.00     0.000 OA
ENDBRANCH 18 30
BRANCH 17 33
ATOM     33  O4  GCU B   3      39.893  34.332  52.5160  0.00  0.00     0.000 O
BRANCH 33 37
ATOM     34  C1  GCU B   3      42.041  33.829  48.9860  0.00  0.00     0.000 C
ATOM     35  C2  GCU B   3      42.260  32.807  50.1020  0.00  0.00     0.000 C
ATOM     36  C3  GCU B   3      41.123  32.892  51.0970  0.00  0.00     0.000 C
ATOM     37  C4  GCU B   3      40.991  34.321  51.6040  0.00  0.00     0.000 C
ATOM     38  C5  GCU B   3      40.773  35.268  50.4220  0.00  0.00     0.000 C
ATOM     39  O5  GCU B   3      41.883  35.144  49.5270  0.00  0.00     0.000 O
ATOM     40   O  GCU B   3      42.318  31.500  49.5280  0.00  0.00     0.000 O
ATOM     42  HD  GCU B   3      41.992  30.702  49.6090  0.00  0.00     0.000 HD
ATOM     42   O  GCU B   3      41.333  31.993  52.2010  0.00  0.00     0.000 O
ATOM     44  HD  GCU B   3      41.007  31.195  52.2820  0.00  0.00     0.000 HD
BRANCH 38 44
ATOM     44   C  GCU B   3      40.659  36.711  50.8450  0.00  0.00     0.000 C
ATOM     45   O  GCU B   3      41.698  37.340  51.0960  0.00  0.00     0.000 OA
ATOM     46   O  GCU B   3      39.535  37.242  50.9320  0.00  0.00     0.000 OA
ENDBRANCH 38 44
BRANCH 34 47
ATOM     47  O3  NAG B   4      43.135  33.889  48.2400  0.00  0.00     0.000 O
BRANCH 47 50
ATOM     48  C1  NAG B   4      44.481  32.927  44.9210  0.00  0.00     0.000 C
ATOM     49  C2  NAG B   4      43.685  32.794  46.2150  0.00  0.00     0.000 C
ATOM     50  C3  NAG B   4      43.466  34.145  46.8760  0.00  0.00     0.000 C
ATOM     51  C4  NAG B   4      44.687  35.069  46.8130  0.00  0.00     0.000 C
ATOM     52  C5  NAG B   4      45.093  35.350  45.3760  0.00  0.00     0.000 C
ATOM     53  O5  NAG B   4      45.044  34.192  44.5130  0.00  0.00     0.000 O
BRANCH 49 56
ATOM     54   N  NAG B   4      42.378  32.625  45.5570  0.00  0.00     0.000 N
ATOM     56  HD  NAG B   4      42.034  33.160  44.9700  0.00  0.00     0.000 HD
ATOM     56   C  NAG B   4      40.210  31.668  45.0310  0.00  0.00     0.000 C
ATOM     57   O  NAG B   4      41.511  30.971  46.8530  0.00  0.00     0.000 OA
ATOM     58   C  NAG B   4      41.428  31.732  45.9010  0.00  0.00     0.000 C
ENDBRANCH 49 56
ATOM     59   O  NAG B   4      46.801  36.593  44.0980  0.00  0.00     0.000 O
ATOM     61  HD  NAG B   4      46.544  35.853  44.4670  0.00  0.00     0.000 HD
ATOM     61   O  NAG B   4      46.801  36.593  44.0980  0.00  0.00     0.000 O
ATOM     63  HD  NAG B   4      46.544  35.853  44.4670  0.00  0.00     0.000 HD
ENDBRANCH 47 50
ENDBRANCH 34 47
ENDBRANCH 33 37
ENDBRANCH 17 33
ENDBRANCH 16 19
ENDBRANCH 1 16
TORSDOF 10
ENDMDL
MODEL 100
REMARK VINA RESULT:      -0.3     35.507     41.265
ROOT
ATOM      1  C1  GCU B   1      49.491  27.948  33.3890  0.00  0.00     0.000 C
ATOM      2  C2  GCU B   1      50.493  27.736  34.5130  0.00  0.00     0.000 C
ATOM      3  C3  GCU B   1      50.787  29.051  35.2180  0.00  0.00     0.000 C
ATOM      4  C4  GCU B   1      51.168  30.118  34.2030  0.00  0.00     0.000 C
ATOM      5  C5  GCU B   1      50.129  30.208  33.0840  0.00  0.00     0.000 C
ATOM      6  O5  GCU B   1      49.995  28.923  32.4620  0.00  0.00     0.000 O
ATOM      7   O  GCU B   1      49.933  26.792  35.4200  0.00  0.00     0.000 O
ATOM      9  HD  GCU B   1      50.314  26.069  35.7060  0.00  0.00     0.000 HD
ATOM      9   O  GCU B   1      51.843  28.889  36.1680  0.00  0.00     0.000 O
ATOM     11  HD  GCU B   1      52.225  28.166  36.4540  0.00  0.00     0.000 HD
ATOM     11   O  GCU B   1      51.270  31.376  34.8710  0.00  0.00     0.000 O
ATOM     13  HD  GCU B   1      51.651  30.653  35.1560  0.00  0.00     0.000 HD
ENDROOT
BRANCH 5 13
ATOM     13   C  GCU B   1      50.525  31.283  32.1000  0.00  0.00     0.000 C
ATOM     14   O  GCU B   1      50.283  32.483  32.3450  0.00  0.00     0.000 OA
ATOM     15   O  GCU B   1      51.119  30.923  31.0660  0.00  0.00     0.000 OA
ENDBRANCH 5 13
BRANCH 1 16
ATOM     16  O3  NAG B   2      49.338  27.210  32.2870  0.00  0.00     0.000 O
BRANCH 16 19
ATOM     17  C1  NAG B   2      46.241  25.472  31.0160  0.00  0.00     0.000 C
ATOM     18  C2  NAG B   2      47.309  25.880  32.0220  0.00  0.00     0.000 C
ATOM     19  C3  NAG B   2      48.221  26.949  31.4220  0.00  0.00     0.000 C
ATOM     20  C4  NAG B   2      48.766  26.486  30.0710  0.00  0.00     0.000 C
ATOM     21  C5  NAG B   2      47.612  26.111  29.1520  0.00  0.00     0.000 C
ATOM     22  O5  NAG B   2      46.841  25.069  29.7740  0.00  0.00     0.000 O
ATOM     23   O  NAG B   2      49.549  27.547  29.5130  0.00  0.00     0.000 O
ATOM     25  HD  NAG B   2      49.971  26.833  29.7610  0.00  0.00     0.000 HD
ATOM     25   C  NAG B   2      48.081  25.653  27.7720  0.00  0.00     0.000 C
ATOM     26   O  NAG B   2      48.670  24.344  27.8200  0.00  0.00     0.000 O
ATOM     28  HD  NAG B   2      49.092  23.630  28.0670  0.00  0.00     0.000 HD
BRANCH 18 30
ATOM     28   N  NAG B   2      46.420  26.065  33.1530  0.00  0.00     0.000 N
ATOM     30  HD  NAG B   2      47.130  25.726  33.5140  0.00  0.00     0.000 HD
ATOM     30   C  NAG B   2      46.691  25.639  34.3930  0.00  0.00     0.000 C
ATOM     31   C  NAG B   2      45.648  25.866  35.4510  0.00  0.00     0.000 C
ATOM     32   O  NAG B   2      47.736  25.084  34.6650  0.00  0.00     0.000 OA
ENDBRANCH 18 30
BRANCH 17 33
ATOM     33  O4  GCU B   3      45.439  24.441  31.6260  0.00  0.00     0.000 O
BRANCH 33 37
ATOM     34  C1  GCU B   3      41.641  23.035  30.6610  0.00  0.00     0.000 C
ATOM     35  C2  GCU B   3      42.835  22.397  29.9500  0.00  0.00     0.000 C
ATOM     36  C3  GCU B   3      44.105  22.712  30.7120  0.00  0.00     0.000 C
ATOM     37  C4  GCU B   3      44.238  24.218  30.8840  0.00  0.00     0.000 C
ATOM     38  C5  GCU B   3      43.003  24.765  31.6040  0.00  0.00     0.000 C
ATOM     39  O5  GCU B   3      41.844  24.440  30.8290  0.00  0.00     0.000 O
ATOM     40   O  GCU B   3      42.636  20.983  29.8860  0.00  0.00     0.000 O
ATOM     42  HD  GCU B   3      43.028  20.228  30.0480  0.00  0.00     0.000 HD
ATOM     42   O  GCU B   3      45.260  22.188  30.0320  0.00  0.00     0.000 O
ATOM     44  HD  GCU B   3      45.653  21.433  30.1940  0.00  0.00     0.000 HD
BRANCH 38 44
ATOM     44   C  GCU B   3      43.052  26.261  31.7890  0.00  0.00     0.000 C
ATOM     45   O  GCU B   3      42.755  26.988  30.8280  0.00  0.00     0.000 OA
ATOM     46   O  GCU B   3      43.382  26.737  32.8920  0.00  0.00     0.000 OA
ENDBRANCH 38 44
BRANCH 34 47
ATOM     47  O3  NAG B   4      40.574  22.929  29.8810  0.00  0.00     0.000 O
BRANCH 47 50
ATOM     48  C1  NAG B   4      37.364  21.104  29.5340  0.00  0.00     0.000 C
ATOM     49  C2  NAG B   4      38.841  21.317  29.8480  0.00  0.00     0.000 C
ATOM     50  C3  NAG B   4      39.163  22.790  30.0420  0.00  0.00     0.000 C
ATOM     51  C4  NAG B   4      38.444  23.715  29.0540  0.00  0.00     0.000 C
ATOM     52  C5  NAG B   4      36.935  23.582  29.1720  0.00  0.00     0.000 C
ATOM     53  O5  NAG B   4      36.474  22.221  29.3210  0.00  0.00     0.000 O
BRANCH 49 56
ATOM     54   N  NAG B   4      38.744  20.896  31.2570  0.00  0.00     0.000 N
ATOM     56  HD  NAG B   4      38.196  21.219  31.8440  0.00  0.00     0.000 HD
ATOM     56   C  NAG B   4      39.268  19.720  33.3140  0.00  0.00     0.000 C
ATOM     57   O  NAG B   4      40.641  19.653  31.4140  0.00  0.00     0.000 OA
ATOM     58   C  NAG B   4      39.614  20.097  31.9060  0.00  0.00     0.000 C
ENDBRANCH 49 56
ATOM     59   O  NAG B   4      34.870  24.480  28.1610  0.00  0.00     0.000 O
ATOM     61  HD  NAG B   4      35.483  23.868  28.1750  0.00  0.00     0.000 HD
ATOM     61   O  NAG B   4      34.870  24.480  28.1610  0.00  0.00     0.000 O
ATOM     63  HD  NAG B   4      35.483  23.868  28.1750  0.00  0.00     0.000 HD
ENDBRANCH 47 50
ENDBRANCH 34 47
ENDBRANCH 33 37
ENDBRANCH 17 33
ENDBRANCH 16 19
ENDBRANCH 1 16
TORSDOF 10
ENDMDL
