MODEL 1
REMARK VINA RESULT:      -9.3      0.000      0.000
ROOT
ATOM      1  C1  IDS C   1     158.432  18.684  50.6120  0.00  0.00     0.000 C
ATOM      2  C2  IDS C   1     158.685  18.072  49.2310  0.00  0.00     0.000 C
ATOM      3  C3  IDS C   1     160.173  17.856  48.9990  0.00  0.00     0.000 C
ATOM      4  C4  IDS C   1     160.930  19.172  49.1110  0.00  0.00     0.000 C
ATOM      5  C5  IDS C   1     160.354  20.012  50.2470  0.00  0.00     0.000 C
ATOM      6  O5  IDS C   1     159.646  19.178  51.1640  0.00  0.00     0.000 O
ATOM      7   O  IDS C   1     160.383  17.279  47.7030  0.00  0.00     0.000 O
ATOM      9  HD  IDS C   1     159.735  16.727  47.5420  0.00  0.00     0.000 HD
ENDROOT
BRANCH 2 9
ATOM      9   O  IDS C   1     158.018  16.755  49.1080  0.00  0.00     0.000 O
ATOM     10   S  IDS C   1     157.044  16.482  47.8760  0.00  0.00     0.000 S
ATOM     11   O  IDS C   1     156.574  15.124  48.0360  0.00  0.00     0.000 OA
ATOM     12   O  IDS C   1     155.985  17.464  47.9920  0.00  0.00     0.000 OA
ATOM     13   O  IDS C   1     157.850  16.661  46.6880  0.00  0.00     0.000 OA
ENDBRANCH 2 9
BRANCH 5 14
ATOM     14   C  IDS C   1     161.433  20.760  51.0110  0.00  0.00     0.000 C
ATOM     15   O  IDS C   1     161.493  20.653  52.2110  0.00  0.00     0.000 OA
ATOM     16   O  IDS C   1     162.226  21.463  50.4070  0.00  0.00     0.000 OA
ENDBRANCH 5 14
BRANCH 1 17
ATOM     17  O4  SGN C   2     157.450  18.276  51.4200  0.00  0.00     0.000 O
BRANCH 17 21
ATOM     18  C1  SGN C   2     155.804  16.345  54.7500  0.00  0.00     0.000 C
ATOM     19  C2  SGN C   2     157.299  16.677  54.8190  0.00  0.00     0.000 C
ATOM     20  C3  SGN C   2     157.647  17.728  53.7570  0.00  0.00     0.000 C
ATOM     21  C4  SGN C   2     157.179  17.261  52.3830  0.00  0.00     0.000 C
ATOM     22  C5  SGN C   2     155.682  16.968  52.4410  0.00  0.00     0.000 C
ATOM     23  O5  SGN C   2     155.420  15.961  53.4460  0.00  0.00     0.000 O
ATOM     24   O  SGN C   2     159.044  17.972  53.7600  0.00  0.00     0.000 O
ATOM     26  HD  SGN C   2     158.203  18.175  53.7250  0.00  0.00     0.000 HD
BRANCH 19 28
ATOM     26   N  SGN C   2     157.553  16.584  56.2630  0.00  0.00     0.000 N
ATOM     28  HD  SGN C   2     156.956  15.973  56.1190  0.00  0.00     0.000 HD
ATOM     28   O  SGN C   2     159.150  16.784  58.1690  0.00  0.00     0.000 OA
ATOM     29   S  SGN C   2     158.911  15.961  56.8580  0.00  0.00     0.000 S
ATOM     30   O  SGN C   2     158.645  14.619  57.2090  0.00  0.00     0.000 OA
ATOM     31   O  SGN C   2     159.958  16.254  55.9420  0.00  0.00     0.000 OA
ENDBRANCH 19 28
BRANCH 22 32
ATOM     32   C  SGN C   2     155.125  16.441  51.1410  0.00  0.00     0.000 C
ATOM     33   S  SGN C   2     153.198  14.936  50.3270  0.00  0.00     0.000 S
ATOM     34   O  SGN C   2     153.886  13.729  50.7120  0.00  0.00     0.000 OA
ATOM     35   O  SGN C   2     151.773  14.897  50.5790  0.00  0.00     0.000 OA
ATOM     36   O  SGN C   2     153.536  15.410  49.0050  0.00  0.00     0.000 OA
ATOM     37   O  SGN C   2     153.761  16.046  51.3270  0.00  0.00     0.000 O
ENDBRANCH 22 32
BRANCH 18 38
ATOM     38  O4  IDS C   3     154.749  17.019  55.2130  0.00  0.00     0.000 O
BRANCH 38 42
ATOM     39  C1  IDS C   3     151.600  17.669  56.5510  0.00  0.00     0.000 C
ATOM     40  C2  IDS C   3     151.807  16.545  55.5240  0.00  0.00     0.000 C
ATOM     41  C3  IDS C   3     152.527  17.060  54.2780  0.00  0.00     0.000 C
ATOM     42  C4  IDS C   3     153.754  17.880  54.6500  0.00  0.00     0.000 C
ATOM     43  C5  IDS C   3     153.366  18.964  55.6630  0.00  0.00     0.000 C
ATOM     44  O5  IDS C   3     152.817  18.343  56.8240  0.00  0.00     0.000 O
ATOM     45   O  IDS C   3     151.627  17.859  53.5080  0.00  0.00     0.000 O
ATOM     47  HD  IDS C   3     151.137  18.555  53.6680  0.00  0.00     0.000 HD
BRANCH 40 47
ATOM     47   O  IDS C   3     152.637  15.460  56.1000  0.00  0.00     0.000 O
ATOM     48   S  IDS C   3     152.261  13.932  55.8120  0.00  0.00     0.000 S
ATOM     49   O  IDS C   3     151.138  13.630  56.6730  0.00  0.00     0.000 OA
ATOM     50   O  IDS C   3     153.445  13.177  56.1610  0.00  0.00     0.000 OA
ATOM     51   O  IDS C   3     151.930  13.852  54.4140  0.00  0.00     0.000 OA
ENDBRANCH 40 47
BRANCH 43 52
ATOM     52   C  IDS C   3     154.534  19.840  56.0600  0.00  0.00     0.000 C
ATOM     53   O  IDS C   3     155.356  20.159  55.2320  0.00  0.00     0.000 OA
ATOM     54   O  IDS C   3     154.638  20.217  57.1990  0.00  0.00     0.000 OA
ENDBRANCH 43 52
BRANCH 39 55
ATOM     55  O4  SGN C   4     150.525  18.458  56.5750  0.00  0.00     0.000 O
BRANCH 55 59
ATOM     56  C1  SGN C   4     146.703  19.512  57.9120  0.00  0.00     0.000 C
ATOM     57  C2  SGN C   4     147.830  19.543  58.9580  0.00  0.00     0.000 C
ATOM     58  C3  SGN C   4     149.198  19.532  58.2810  0.00  0.00     0.000 C
ATOM     59  C4  SGN C   4     149.289  18.393  57.2720  0.00  0.00     0.000 C
ATOM     60  C5  SGN C   4     148.129  18.517  56.2860  0.00  0.00     0.000 C
ATOM     61  O5  SGN C   4     146.895  18.422  57.0250  0.00  0.00     0.000 O
ATOM     62   O  SGN C   4     150.216  19.411  59.2660  0.00  0.00     0.000 O
ATOM     64  HD  SGN C   4     149.564  19.808  59.6760  0.00  0.00     0.000 HD
BRANCH 57 66
ATOM     64   N  SGN C   4     147.725  19.417  60.4210  0.00  0.00     0.000 N
ATOM     66  HD  SGN C   4     147.904  19.915  61.1060  0.00  0.00     0.000 HD
ATOM     66   S  SGN C   4     146.942  20.514  61.2760  0.00  0.00     0.000 S
ATOM     67   O  SGN C   4     147.065  20.155  62.6420  0.00  0.00     0.000 OA
ATOM     68   O  SGN C   4     147.404  21.787  60.8430  0.00  0.00     0.000 OA
ATOM     69   O  SGN C   4     145.455  20.342  60.8270  0.00  0.00     0.000 OA
ENDBRANCH 57 66
BRANCH 60 70
ATOM     70   C  SGN C   4     148.114  17.442  55.2210  0.00  0.00     0.000 C
ATOM     71   O  SGN C   4     145.558  16.989  52.5070  0.00  0.00     0.000 OA
ATOM     72   O  SGN C   4     147.759  17.972  52.3100  0.00  0.00     0.000 OA
ATOM     73   O  SGN C   4     146.871  17.469  54.4930  0.00  0.00     0.000 O
ATOM     74   S  SGN C   4     146.927  16.990  52.9690  0.00  0.00     0.000 S
ATOM     75   O  SGN C   4     147.521  15.669  53.0170  0.00  0.00     0.000 OA
ENDBRANCH 60 70
BRANCH 56 76
ATOM     76  O4  IDS C   5     145.961  20.433  57.2690  0.00  0.00     0.000 O
BRANCH 76 80
ATOM     77  C1  IDS C   5     142.575  22.052  58.8720  0.00  0.00     0.000 C
ATOM     78  C2  IDS C   5     142.340  20.806  58.0190  0.00  0.00     0.000 C
ATOM     79  C3  IDS C   5     143.641  20.047  57.8460  0.00  0.00     0.000 C
ATOM     80  C4  IDS C   5     144.621  20.892  57.0370  0.00  0.00     0.000 C
ATOM     81  C5  IDS C   5     144.480  22.365  57.4450  0.00  0.00     0.000 C
ATOM     82  O5  IDS C   5     143.935  22.472  58.7640  0.00  0.00     0.000 O
BRANCH 78 83
ATOM     83   O  IDS C   5     141.355  19.906  58.6650  0.00  0.00     0.000 O
ATOM     84   S  IDS C   5     140.044  19.466  57.8710  0.00  0.00     0.000 S
ATOM     85   O  IDS C   5     139.482  20.676  57.3330  0.00  0.00     0.000 OA
ATOM     86   O  IDS C   5     140.506  18.553  56.8520  0.00  0.00     0.000 OA
ATOM     87   O  IDS C   5     139.194  18.827  58.8460  0.00  0.00     0.000 OA
ENDBRANCH 78 83
BRANCH 81 88
ATOM     88   C  IDS C   5     145.787  23.137  57.4270  0.00  0.00     0.000 C
ATOM     89   O  IDS C   5     146.449  23.171  56.4240  0.00  0.00     0.000 OA
ATOM     90   O  IDS C   5     146.155  23.715  58.4250  0.00  0.00     0.000 OA
ENDBRANCH 81 88
ENDBRANCH 76 80
ENDBRANCH 56 76
ENDBRANCH 55 59
ENDBRANCH 39 55
ENDBRANCH 38 42
ENDBRANCH 18 38
ENDBRANCH 17 21
ENDBRANCH 1 17
TORSDOF 18
ENDMDL
MODEL 2
REMARK VINA RESULT:      -8.8      1.479      2.651
ROOT
ATOM      1  C1  IDS C   1     158.247  18.398  50.5120  0.00  0.00     0.000 C
ATOM      2  C2  IDS C   1     158.832  17.793  49.2320  0.00  0.00     0.000 C
ATOM      3  C3  IDS C   1     160.339  17.626  49.3530  0.00  0.00     0.000 C
ATOM      4  C4  IDS C   1     161.008  18.966  49.6260  0.00  0.00     0.000 C
ATOM      5  C5  IDS C   1     160.158  19.788  50.5900  0.00  0.00     0.000 C
ATOM      6  O5  IDS C   1     159.283  18.933  51.3250  0.00  0.00     0.000 O
ATOM      7   O  IDS C   1     160.862  17.055  48.1450  0.00  0.00     0.000 O
ATOM      9  HD  IDS C   1     160.287  16.481  47.8440  0.00  0.00     0.000 HD
ENDROOT
BRANCH 2 9
ATOM      9   O  IDS C   1     158.254  16.455  48.9700  0.00  0.00     0.000 O
ATOM     10   S  IDS C   1     157.551  16.166  47.5680  0.00  0.00     0.000 S
ATOM     11   O  IDS C   1     157.111  14.790  47.6210  0.00  0.00     0.000 OA
ATOM     12   O  IDS C   1     156.452  17.106  47.4830  0.00  0.00     0.000 OA
ATOM     13   O  IDS C   1     158.566  16.393  46.5630  0.00  0.00     0.000 OA
ENDBRANCH 2 9
BRANCH 5 14
ATOM     14   C  IDS C   1     161.007  20.572  51.5760  0.00  0.00     0.000 C
ATOM     15   O  IDS C   1     162.123  20.908  51.2640  0.00  0.00     0.000 OA
ATOM     16   O  IDS C   1     160.555  20.853  52.6740  0.00  0.00     0.000 OA
ENDBRANCH 5 14
BRANCH 1 17
ATOM     17  O4  SGN C   2     157.117  17.959  51.0740  0.00  0.00     0.000 O
BRANCH 17 21
ATOM     18  C1  SGN C   2     154.813  15.819  53.8370  0.00  0.00     0.000 C
ATOM     19  C2  SGN C   2     156.271  16.094  54.2260  0.00  0.00     0.000 C
ATOM     20  C3  SGN C   2     156.840  17.215  53.3480  0.00  0.00     0.000 C
ATOM     21  C4  SGN C   2     156.644  16.878  51.8740  0.00  0.00     0.000 C
ATOM     22  C5  SGN C   2     155.161  16.632  51.6120  0.00  0.00     0.000 C
ATOM     23  O5  SGN C   2     154.688  15.556  52.4550  0.00  0.00     0.000 O
ATOM     24   O  SGN C   2     158.212  17.412  53.6450  0.00  0.00     0.000 O
ATOM     26  HD  SGN C   2     157.398  17.645  53.4640  0.00  0.00     0.000 HD
BRANCH 19 28
ATOM     26   N  SGN C   2     156.817  15.539  55.4720  0.00  0.00     0.000 N
ATOM     28  HD  SGN C   2     157.261  15.128  54.8530  0.00  0.00     0.000 HD
ATOM     28   O  SGN C   2     157.425  15.864  57.8700  0.00  0.00     0.000 OA
ATOM     29   S  SGN C   2     157.785  16.385  56.4380  0.00  0.00     0.000 S
ATOM     30   O  SGN C   2     159.114  16.010  56.1420  0.00  0.00     0.000 OA
ATOM     31   O  SGN C   2     157.403  17.751  56.3430  0.00  0.00     0.000 OA
ENDBRANCH 19 28
BRANCH 22 32
ATOM     32   C  SGN C   2     154.863  16.232  50.1880  0.00  0.00     0.000 C
ATOM     33   S  SGN C   2     153.350  14.579  48.9150  0.00  0.00     0.000 S
ATOM     34   O  SGN C   2     154.198  13.456  49.2270  0.00  0.00     0.000 OA
ATOM     35   O  SGN C   2     151.936  14.269  48.9560  0.00  0.00     0.000 OA
ATOM     36   O  SGN C   2     153.745  15.304  47.7300  0.00  0.00     0.000 OA
ATOM     37   O  SGN C   2     153.582  15.595  50.1250  0.00  0.00     0.000 O
ENDBRANCH 22 32
BRANCH 18 38
ATOM     38  O4  IDS C   3     153.699  16.488  54.1420  0.00  0.00     0.000 O
BRANCH 38 42
ATOM     39  C1  IDS C   3     151.160  18.769  54.8300  0.00  0.00     0.000 C
ATOM     40  C2  IDS C   3     152.384  18.646  55.7510  0.00  0.00     0.000 C
ATOM     41  C3  IDS C   3     152.613  17.195  56.1760  0.00  0.00     0.000 C
ATOM     42  C4  IDS C   3     152.560  16.256  54.9780  0.00  0.00     0.000 C
ATOM     43  C5  IDS C   3     151.271  16.498  54.1840  0.00  0.00     0.000 C
ATOM     44  O5  IDS C   3     151.239  17.856  53.7480  0.00  0.00     0.000 O
ATOM     45   O  IDS C   3     151.617  16.818  57.1280  0.00  0.00     0.000 O
ATOM     47  HD  IDS C   3     150.751  16.819  57.1410  0.00  0.00     0.000 HD
BRANCH 40 47
ATOM     47   O  IDS C   3     153.609  19.103  55.0530  0.00  0.00     0.000 O
ATOM     48   S  IDS C   3     154.540  20.216  55.7250  0.00  0.00     0.000 S
ATOM     49   O  IDS C   3     153.862  21.478  55.5190  0.00  0.00     0.000 OA
ATOM     50   O  IDS C   3     155.797  20.140  55.0140  0.00  0.00     0.000 OA
ATOM     51   O  IDS C   3     154.653  19.865  57.1160  0.00  0.00     0.000 OA
ENDBRANCH 40 47
BRANCH 43 52
ATOM     52   C  IDS C   3     151.136  15.579  52.9910  0.00  0.00     0.000 C
ATOM     53   O  IDS C   3     150.750  16.017  51.9320  0.00  0.00     0.000 OA
ATOM     54   O  IDS C   3     151.415  14.412  53.1020  0.00  0.00     0.000 OA
ENDBRANCH 43 52
BRANCH 39 55
ATOM     55  O4  SGN C   4     149.920  18.978  55.2740  0.00  0.00     0.000 O
BRANCH 55 59
ATOM     56  C1  SGN C   4     147.185  19.137  58.4360  0.00  0.00     0.000 C
ATOM     57  C2  SGN C   4     148.656  19.423  58.7840  0.00  0.00     0.000 C
ATOM     58  C3  SGN C   4     149.462  19.722  57.5230  0.00  0.00     0.000 C
ATOM     59  C4  SGN C   4     149.248  18.634  56.4780  0.00  0.00     0.000 C
ATOM     60  C5  SGN C   4     147.750  18.492  56.2160  0.00  0.00     0.000 C
ATOM     61  O5  SGN C   4     147.109  18.119  57.4520  0.00  0.00     0.000 O
ATOM     62   O  SGN C   4     150.839  19.835  57.8550  0.00  0.00     0.000 O
ATOM     64  HD  SGN C   4     150.423  20.074  58.5760  0.00  0.00     0.000 HD
BRANCH 57 66
ATOM     64   N  SGN C   4     148.252  19.257  60.1900  0.00  0.00     0.000 N
ATOM     66  HD  SGN C   4     148.654  19.116  60.9440  0.00  0.00     0.000 HD
ATOM     66   S  SGN C   4     148.896  20.166  61.3320  0.00  0.00     0.000 S
ATOM     67   O  SGN C   4     148.361  19.734  62.5710  0.00  0.00     0.000 OA
ATOM     68   O  SGN C   4     150.305  20.146  61.1350  0.00  0.00     0.000 OA
ATOM     69   O  SGN C   4     148.366  21.600  61.0090  0.00  0.00     0.000 OA
ENDBRANCH 57 66
BRANCH 60 70
ATOM     70   C  SGN C   4     147.408  17.441  55.1820  0.00  0.00     0.000 C
ATOM     71   O  SGN C   4     145.615  17.981  51.9260  0.00  0.00     0.000 OA
ATOM     72   O  SGN C   4     147.993  17.703  52.2720  0.00  0.00     0.000 OA
ATOM     73   O  SGN C   4     146.540  17.991  54.1720  0.00  0.00     0.000 O
ATOM     74   S  SGN C   4     146.658  17.359  52.7080  0.00  0.00     0.000 S
ATOM     75   O  SGN C   4     146.464  15.936  52.9030  0.00  0.00     0.000 OA
ENDBRANCH 60 70
BRANCH 56 76
ATOM     76  O4  IDS C   5     146.056  19.866  58.3550  0.00  0.00     0.000 O
BRANCH 76 80
ATOM     77  C1  IDS C   5     142.464  21.801  58.2720  0.00  0.00     0.000 C
ATOM     78  C2  IDS C   5     142.382  20.330  58.6790  0.00  0.00     0.000 C
ATOM     79  C3  IDS C   5     143.752  19.837  59.1020  0.00  0.00     0.000 C
ATOM     80  C4  IDS C   5     144.694  19.855  57.9010  0.00  0.00     0.000 C
ATOM     81  C5  IDS C   5     144.405  21.097  57.0460  0.00  0.00     0.000 C
ATOM     82  O5  IDS C   5     143.786  22.118  57.8360  0.00  0.00     0.000 O
BRANCH 78 83
ATOM     83   O  IDS C   5     141.449  20.152  59.8160  0.00  0.00     0.000 O
ATOM     84   S  IDS C   5     140.568  18.826  59.9180  0.00  0.00     0.000 S
ATOM     85   O  IDS C   5     139.969  18.648  58.6220  0.00  0.00     0.000 OA
ATOM     86   O  IDS C   5     141.500  17.778  60.2610  0.00  0.00     0.000 OA
ATOM     87   O  IDS C   5     139.604  19.077  60.9610  0.00  0.00     0.000 OA
ENDBRANCH 78 83
BRANCH 81 88
ATOM     88   C  IDS C   5     145.638  21.703  56.4020  0.00  0.00     0.000 C
ATOM     89   O  IDS C   5     146.055  21.254  55.3680  0.00  0.00     0.000 OA
ATOM     90   O  IDS C   5     146.195  22.636  56.9340  0.00  0.00     0.000 OA
ENDBRANCH 81 88
ENDBRANCH 76 80
ENDBRANCH 56 76
ENDBRANCH 55 59
ENDBRANCH 39 55
ENDBRANCH 38 42
ENDBRANCH 18 38
ENDBRANCH 17 21
ENDBRANCH 1 17
TORSDOF 18
ENDMDL
MODEL 3
REMARK VINA RESULT:      -8.4     19.594     24.572
ROOT
ATOM      1  C1  IDS C   1     143.606  35.396  45.5310  0.00  0.00     0.000 C
ATOM      2  C2  IDS C   1     142.864  34.658  44.4130  0.00  0.00     0.000 C
ATOM      3  C3  IDS C   1     141.552  35.355  44.0840  0.00  0.00     0.000 C
ATOM      4  C4  IDS C   1     140.660  35.428  45.3160  0.00  0.00     0.000 C
ATOM      5  C5  IDS C   1     141.500  35.726  46.5540  0.00  0.00     0.000 C
ATOM      6  O5  IDS C   1     142.740  36.322  46.1730  0.00  0.00     0.000 O
ATOM      7   O  IDS C   1     140.878  34.649  43.0320  0.00  0.00     0.000 O
ATOM      9  HD  IDS C   1     141.474  34.351  42.4790  0.00  0.00     0.000 HD
ENDROOT
BRANCH 2 9
ATOM      9   O  IDS C   1     143.674  34.626  43.1740  0.00  0.00     0.000 O
ATOM     10   S  IDS C   1     144.166  33.224  42.5950  0.00  0.00     0.000 S
ATOM     11   O  IDS C   1     144.908  33.529  41.3930  0.00  0.00     0.000 OA
ATOM     12   O  IDS C   1     144.990  32.641  43.6340  0.00  0.00     0.000 OA
ATOM     13   O  IDS C   1     142.964  32.461  42.3340  0.00  0.00     0.000 OA
ENDBRANCH 2 9
BRANCH 5 14
ATOM     14   C  IDS C   1     140.790  36.662  47.5160  0.00  0.00     0.000 C
ATOM     15   O  IDS C   1     139.763  36.308  48.0400  0.00  0.00     0.000 OA
ATOM     16   O  IDS C   1     141.263  37.762  47.7490  0.00  0.00     0.000 OA
ENDBRANCH 5 14
BRANCH 1 17
ATOM     17  O4  SGN C   2     144.923  35.621  45.5040  0.00  0.00     0.000 O
BRANCH 17 21
ATOM     18  C1  SGN C   2     148.216  37.941  44.3670  0.00  0.00     0.000 C
ATOM     19  C2  SGN C   2     146.838  38.432  43.9060  0.00  0.00     0.000 C
ATOM     20  C3  SGN C   2     145.741  37.750  44.7320  0.00  0.00     0.000 C
ATOM     21  C4  SGN C   2     145.909  36.236  44.6790  0.00  0.00     0.000 C
ATOM     22  C5  SGN C   2     147.310  35.873  45.1630  0.00  0.00     0.000 C
ATOM     23  O5  SGN C   2     148.298  36.531  44.3380  0.00  0.00     0.000 O
ATOM     24   O  SGN C   2     144.465  38.136  44.2500  0.00  0.00     0.000 O
ATOM     26  HD  SGN C   2     145.066  37.953  44.8460  0.00  0.00     0.000 HD
BRANCH 19 28
ATOM     26   N  SGN C   2     147.119  39.841  43.5980  0.00  0.00     0.000 N
ATOM     28  HD  SGN C   2     147.861  39.437  43.4090  0.00  0.00     0.000 HD
ATOM     28   O  SGN C   2     146.301  42.056  42.7920  0.00  0.00     0.000 OA
ATOM     29   S  SGN C   2     146.498  40.579  42.3110  0.00  0.00     0.000 S
ATOM     30   O  SGN C   2     147.481  40.562  41.2960  0.00  0.00     0.000 OA
ATOM     31   O  SGN C   2     145.220  40.009  42.0610  0.00  0.00     0.000 OA
ENDBRANCH 19 28
BRANCH 22 32
ATOM     32   C  SGN C   2     147.602  34.394  45.0960  0.00  0.00     0.000 C
ATOM     33   S  SGN C   2     147.519  32.330  46.6380  0.00  0.00     0.000 S
ATOM     34   O  SGN C   2     148.731  32.706  47.3210  0.00  0.00     0.000 OA
ATOM     35   O  SGN C   2     146.513  31.763  47.5110  0.00  0.00     0.000 OA
ATOM     36   O  SGN C   2     147.735  31.562  45.4340  0.00  0.00     0.000 OA
ATOM     37   O  SGN C   2     146.899  33.716  46.1450  0.00  0.00     0.000 O
ENDBRANCH 22 32
BRANCH 18 38
ATOM     38  O4  IDS C   3     148.942  38.286  45.4320  0.00  0.00     0.000 O
BRANCH 38 42
ATOM     39  C1  IDS C   3     150.353  39.874  48.1920  0.00  0.00     0.000 C
ATOM     40  C2  IDS C   3     150.188  40.611  46.8530  0.00  0.00     0.000 C
ATOM     41  C3  IDS C   3     150.793  39.808  45.7020  0.00  0.00     0.000 C
ATOM     42  C4  IDS C   3     150.338  38.355  45.7440  0.00  0.00     0.000 C
ATOM     43  C5  IDS C   3     150.592  37.772  47.1390  0.00  0.00     0.000 C
ATOM     44  O5  IDS C   3     149.878  38.541  48.1050  0.00  0.00     0.000 O
ATOM     45   O  IDS C   3     152.219  39.868  45.7810  0.00  0.00     0.000 O
ATOM     47  HD  IDS C   3     152.807  39.682  46.3880  0.00  0.00     0.000 HD
BRANCH 40 47
ATOM     47   O  IDS C   3     148.753  40.816  46.5450  0.00  0.00     0.000 O
ATOM     48   S  IDS C   3     148.155  42.298  46.4910  0.00  0.00     0.000 S
ATOM     49   O  IDS C   3     147.995  42.713  47.8680  0.00  0.00     0.000 OA
ATOM     50   O  IDS C   3     146.890  42.173  45.8000  0.00  0.00     0.000 OA
ATOM     51   O  IDS C   3     149.114  43.098  45.7770  0.00  0.00     0.000 OA
ENDBRANCH 40 47
BRANCH 43 52
ATOM     52   C  IDS C   3     150.188  36.318  47.2490  0.00  0.00     0.000 C
ATOM     53   O  IDS C   3     149.414  35.971  48.1110  0.00  0.00     0.000 OA
ATOM     54   O  IDS C   3     150.640  35.513  46.4750  0.00  0.00     0.000 OA
ENDBRANCH 43 52
BRANCH 39 55
ATOM     55  O4  SGN C   4     151.411  40.022  48.9900  0.00  0.00     0.000 O
BRANCH 55 59
ATOM     56  C1  SGN C   4     153.264  40.101  52.7400  0.00  0.00     0.000 C
ATOM     57  C2  SGN C   4     152.927  38.713  52.1690  0.00  0.00     0.000 C
ATOM     58  C3  SGN C   4     152.634  38.799  50.6740  0.00  0.00     0.000 C
ATOM     59  C4  SGN C   4     151.597  39.880  50.3920  0.00  0.00     0.000 C
ATOM     60  C5  SGN C   4     152.087  41.198  50.9870  0.00  0.00     0.000 C
ATOM     61  O5  SGN C   4     152.239  41.023  52.4100  0.00  0.00     0.000 O
ATOM     62   O  SGN C   4     152.182  37.536  50.2040  0.00  0.00     0.000 O
ATOM     64  HD  SGN C   4     152.692  37.347  50.8770  0.00  0.00     0.000 HD
BRANCH 57 66
ATOM     64   N  SGN C   4     152.889  37.996  53.4540  0.00  0.00     0.000 N
ATOM     66  HD  SGN C   4     152.812  37.171  53.7080  0.00  0.00     0.000 HD
ATOM     66   S  SGN C   4     153.890  36.786  53.7380  0.00  0.00     0.000 S
ATOM     67   O  SGN C   4     153.573  36.264  55.0180  0.00  0.00     0.000 OA
ATOM     68   O  SGN C   4     153.842  35.931  52.6030  0.00  0.00     0.000 OA
ATOM     69   O  SGN C   4     155.293  37.471  53.7910  0.00  0.00     0.000 OA
ENDBRANCH 57 66
BRANCH 60 70
ATOM     70   C  SGN C   4     151.142  42.359  50.7630  0.00  0.00     0.000 C
ATOM     71   O  SGN C   4     147.537  42.565  51.7980  0.00  0.00     0.000 OA
ATOM     72   O  SGN C   4     149.445  43.572  52.8910  0.00  0.00     0.000 OA
ATOM     73   O  SGN C   4     149.794  41.987  51.1110  0.00  0.00     0.000 O
ATOM     74   S  SGN C   4     148.845  43.159  51.6430  0.00  0.00     0.000 S
ATOM     75   O  SGN C   4     148.899  44.176  50.6120  0.00  0.00     0.000 OA
ENDBRANCH 60 70
BRANCH 56 76
ATOM     76  O4  IDS C   5     154.391  40.805  52.9550  0.00  0.00     0.000 O
BRANCH 76 80
ATOM     77  C1  IDS C   5     155.776  43.152  49.9160  0.00  0.00     0.000 C
ATOM     78  C2  IDS C   5     156.502  41.815  50.0670  0.00  0.00     0.000 C
ATOM     79  C3  IDS C   5     155.660  40.863  50.8930  0.00  0.00     0.000 C
ATOM     80  C4  IDS C   5     155.533  41.397  52.3160  0.00  0.00     0.000 C
ATOM     81  C5  IDS C   5     155.392  42.925  52.2760  0.00  0.00     0.000 C
ATOM     82  O5  IDS C   5     154.879  43.349  51.0090  0.00  0.00     0.000 O
BRANCH 78 83
ATOM     83   O  IDS C   5     156.744  41.198  48.7420  0.00  0.00     0.000 O
ATOM     84   S  IDS C   5     158.217  40.737  48.3390  0.00  0.00     0.000 S
ATOM     85   O  IDS C   5     159.077  41.848  48.6440  0.00  0.00     0.000 OA
ATOM     86   O  IDS C   5     158.483  39.572  49.1500  0.00  0.00     0.000 OA
ATOM     87   O  IDS C   5     158.159  40.431  46.9300  0.00  0.00     0.000 OA
ENDBRANCH 78 83
BRANCH 81 88
ATOM     88   C  IDS C   5     154.480  43.488  53.3500  0.00  0.00     0.000 C
ATOM     89   O  IDS C   5     153.429  43.985  53.0440  0.00  0.00     0.000 OA
ATOM     90   O  IDS C   5     154.817  43.433  54.5110  0.00  0.00     0.000 OA
ENDBRANCH 81 88
ENDBRANCH 76 80
ENDBRANCH 56 76
ENDBRANCH 55 59
ENDBRANCH 39 55
ENDBRANCH 38 42
ENDBRANCH 18 38
ENDBRANCH 17 21
ENDBRANCH 1 17
TORSDOF 18
ENDMDL
MODEL 4
REMARK VINA RESULT:      -7.8     20.112     25.042
ROOT
ATOM      1  C1  IDS C   1     143.114  35.047  45.5870  0.00  0.00     0.000 C
ATOM      2  C2  IDS C   1     142.263  34.152  44.6820  0.00  0.00     0.000 C
ATOM      3  C3  IDS C   1     140.924  34.806  44.3780  0.00  0.00     0.000 C
ATOM      4  C4  IDS C   1     140.160  35.089  45.6650  0.00  0.00     0.000 C
ATOM      5  C5  IDS C   1     141.121  35.569  46.7480  0.00  0.00     0.000 C
ATOM      6  O5  IDS C   1     142.316  36.078  46.1550  0.00  0.00     0.000 O
ATOM      7   O  IDS C   1     140.148  33.952  43.5260  0.00  0.00     0.000 O
ATOM      9  HD  IDS C   1     140.685  33.560  42.9710  0.00  0.00     0.000 HD
ENDROOT
BRANCH 2 9
ATOM      9   O  IDS C   1     142.944  33.910  43.3900  0.00  0.00     0.000 O
ATOM     10   S  IDS C   1     143.425  32.434  43.0220  0.00  0.00     0.000 S
ATOM     11   O  IDS C   1     144.030  32.529  41.7120  0.00  0.00     0.000 OA
ATOM     12   O  IDS C   1     144.371  32.064  44.0550  0.00  0.00     0.000 OA
ATOM     13   O  IDS C   1     142.232  31.617  43.0310  0.00  0.00     0.000 OA
ENDBRANCH 2 9
BRANCH 5 14
ATOM     14   C  IDS C   1     140.511  36.658  47.6140  0.00  0.00     0.000 C
ATOM     15   O  IDS C   1     139.539  36.410  48.2840  0.00  0.00     0.000 OA
ATOM     16   O  IDS C   1     141.007  37.773  47.6220  0.00  0.00     0.000 OA
ENDBRANCH 5 14
BRANCH 1 17
ATOM     17  O4  SGN C   2     144.421  35.246  45.3930  0.00  0.00     0.000 O
BRANCH 17 21
ATOM     18  C1  SGN C   2     147.416  37.712  43.8210  0.00  0.00     0.000 C
ATOM     19  C2  SGN C   2     145.979  38.010  43.3780  0.00  0.00     0.000 C
ATOM     20  C3  SGN C   2     144.989  37.333  44.3350  0.00  0.00     0.000 C
ATOM     21  C4  SGN C   2     145.306  35.846  44.4520  0.00  0.00     0.000 C
ATOM     22  C5  SGN C   2     146.755  35.680  44.9010  0.00  0.00     0.000 C
ATOM     23  O5  SGN C   2     147.638  36.323  43.9540  0.00  0.00     0.000 O
ATOM     24   O  SGN C   2     143.662  37.534  43.8780  0.00  0.00     0.000 O
ATOM     26  HD  SGN C   2     144.302  37.483  44.4590  0.00  0.00     0.000 HD
BRANCH 19 28
ATOM     26   N  SGN C   2     146.108  39.384  42.8740  0.00  0.00     0.000 N
ATOM     28  HD  SGN C   2     146.866  39.018  42.6700  0.00  0.00     0.000 HD
ATOM     28   O  SGN C   2     145.036  41.404  41.8760  0.00  0.00     0.000 OA
ATOM     29   S  SGN C   2     145.324  39.896  41.5660  0.00  0.00     0.000 S
ATOM     30   O  SGN C   2     146.220  39.822  40.4770  0.00  0.00     0.000 OA
ATOM     31   O  SGN C   2     144.086  39.201  41.5060  0.00  0.00     0.000 OA
ENDBRANCH 19 28
BRANCH 22 32
ATOM     32   C  SGN C   2     147.191  34.238  44.9930  0.00  0.00     0.000 C
ATOM     33   S  SGN C   2     147.409  32.389  46.7750  0.00  0.00     0.000 S
ATOM     34   O  SGN C   2     148.615  32.961  47.3200  0.00  0.00     0.000 OA
ATOM     35   O  SGN C   2     146.519  31.846  47.7800  0.00  0.00     0.000 OA
ATOM     36   O  SGN C   2     147.631  31.497  45.6620  0.00  0.00     0.000 OA
ATOM     37   O  SGN C   2     146.624  33.637  46.1640  0.00  0.00     0.000 O
ENDBRANCH 22 32
BRANCH 18 38
ATOM     38  O4  IDS C   3     148.146  38.251  44.8000  0.00  0.00     0.000 O
BRANCH 38 42
ATOM     39  C1  IDS C   3     149.462  40.151  47.4050  0.00  0.00     0.000 C
ATOM     40  C2  IDS C   3     149.042  40.808  46.0810  0.00  0.00     0.000 C
ATOM     41  C3  IDS C   3     149.687  40.105  44.8860  0.00  0.00     0.000 C
ATOM     42  C4  IDS C   3     149.524  38.594  44.9830  0.00  0.00     0.000 C
ATOM     43  C5  IDS C   3     150.007  38.106  46.3540  0.00  0.00     0.000 C
ATOM     44  O5  IDS C   3     149.245  38.751  47.3740  0.00  0.00     0.000 O
ATOM     45   O  IDS C   3     151.075  40.438  44.8350  0.00  0.00     0.000 O
ATOM     47  HD  IDS C   3     151.739  40.383  45.3880  0.00  0.00     0.000 HD
BRANCH 40 47
ATOM     47   O  IDS C   3     147.572  40.727  45.9030  0.00  0.00     0.000 O
ATOM     48   S  IDS C   3     146.781  41.956  45.2530  0.00  0.00     0.000 S
ATOM     49   O  IDS C   3     146.674  42.955  46.2940  0.00  0.00     0.000 OA
ATOM     50   O  IDS C   3     145.494  41.419  44.8680  0.00  0.00     0.000 OA
ATOM     51   O  IDS C   3     147.568  42.399  44.1330  0.00  0.00     0.000 OA
ENDBRANCH 40 47
BRANCH 43 52
ATOM     52   C  IDS C   3     149.901  36.606  46.5130  0.00  0.00     0.000 C
ATOM     53   O  IDS C   3     149.426  36.138  47.5220  0.00  0.00     0.000 OA
ATOM     54   O  IDS C   3     150.292  35.883  45.6320  0.00  0.00     0.000 OA
ENDBRANCH 43 52
BRANCH 39 55
ATOM     55  O4  SGN C   4     150.537  40.519  48.1030  0.00  0.00     0.000 O
BRANCH 55 59
ATOM     56  C1  SGN C   4     152.609  40.920  51.7160  0.00  0.00     0.000 C
ATOM     57  C2  SGN C   4     152.946  39.685  50.8630  0.00  0.00     0.000 C
ATOM     58  C3  SGN C   4     152.438  39.858  49.4340  0.00  0.00     0.000 C
ATOM     59  C4  SGN C   4     150.968  40.259  49.4320  0.00  0.00     0.000 C
ATOM     60  C5  SGN C   4     150.799  41.513  50.2880  0.00  0.00     0.000 C
ATOM     61  O5  SGN C   4     151.221  41.203  51.6310  0.00  0.00     0.000 O
ATOM     62   O  SGN C   4     152.630  38.649  48.7120  0.00  0.00     0.000 O
ATOM     64  HD  SGN C   4     153.256  38.645  49.3100  0.00  0.00     0.000 HD
BRANCH 57 66
ATOM     64   N  SGN C   4     153.488  38.914  51.9940  0.00  0.00     0.000 N
ATOM     66  HD  SGN C   4     153.851  38.135  52.1030  0.00  0.00     0.000 HD
ATOM     66   S  SGN C   4     154.969  38.321  51.9360  0.00  0.00     0.000 S
ATOM     67   O  SGN C   4     155.179  37.585  53.1290  0.00  0.00     0.000 OA
ATOM     68   O  SGN C   4     155.106  37.668  50.6800  0.00  0.00     0.000 OA
ATOM     69   O  SGN C   4     155.878  39.591  51.9420  0.00  0.00     0.000 OA
ENDBRANCH 57 66
BRANCH 60 70
ATOM     70   C  SGN C   4     149.375  42.019  50.3560  0.00  0.00     0.000 C
ATOM     71   O  SGN C   4     146.620  40.713  52.5510  0.00  0.00     0.000 OA
ATOM     72   O  SGN C   4     147.959  42.699  52.8890  0.00  0.00     0.000 OA
ATOM     73   O  SGN C   4     148.564  41.137  51.1570  0.00  0.00     0.000 O
ATOM     74   S  SGN C   4     147.338  41.806  51.9360  0.00  0.00     0.000 S
ATOM     75   O  SGN C   4     146.578  42.493  50.9120  0.00  0.00     0.000 OA
ENDBRANCH 60 70
BRANCH 56 76
ATOM     76  O4  IDS C   5     153.238  42.064  52.0440  0.00  0.00     0.000 O
BRANCH 76 80
ATOM     77  C1  IDS C   5     152.967  45.255  49.5140  0.00  0.00     0.000 C
ATOM     78  C2  IDS C   5     154.253  44.441  49.3720  0.00  0.00     0.000 C
ATOM     79  C3  IDS C   5     154.070  43.076  50.0070  0.00  0.00     0.000 C
ATOM     80  C4  IDS C   5     153.876  43.235  51.5120  0.00  0.00     0.000 C
ATOM     81  C5  IDS C   5     153.023  44.482  51.7870  0.00  0.00     0.000 C
ATOM     82  O5  IDS C   5     152.223  44.804  50.6450  0.00  0.00     0.000 O
BRANCH 78 83
ATOM     83   O  IDS C   5     154.597  44.251  47.9440  0.00  0.00     0.000 O
ATOM     84   S  IDS C   5     156.038  44.684  47.4110  0.00  0.00     0.000 S
ATOM     85   O  IDS C   5     156.258  46.017  47.9050  0.00  0.00     0.000 OA
ATOM     86   O  IDS C   5     156.953  43.714  47.9660  0.00  0.00     0.000 OA
ATOM     87   O  IDS C   5     155.959  44.615  45.9730  0.00  0.00     0.000 OA
ENDBRANCH 78 83
BRANCH 81 88
ATOM     88   C  IDS C   5     152.089  44.339  52.9750  0.00  0.00     0.000 C
ATOM     89   O  IDS C   5     152.538  44.317  54.0900  0.00  0.00     0.000 OA
ATOM     90   O  IDS C   5     150.897  44.250  52.7920  0.00  0.00     0.000 OA
ENDBRANCH 81 88
ENDBRANCH 76 80
ENDBRANCH 56 76
ENDBRANCH 55 59
ENDBRANCH 39 55
ENDBRANCH 38 42
ENDBRANCH 18 38
ENDBRANCH 17 21
ENDBRANCH 1 17
TORSDOF 18
ENDMDL
MODEL 5
REMARK VINA RESULT:      -7.7     20.614     24.564
ROOT
ATOM      1  C1  IDS C   1     153.452  42.756  53.9380  0.00  0.00     0.000 C
ATOM      2  C2  IDS C   1     152.957  43.809  54.9340  0.00  0.00     0.000 C
ATOM      3  C3  IDS C   1     154.118  44.635  55.4680  0.00  0.00     0.000 C
ATOM      4  C4  IDS C   1     155.144  43.741  56.1500  0.00  0.00     0.000 C
ATOM      5  C5  IDS C   1     155.307  42.441  55.3690  0.00  0.00     0.000 C
ATOM      6  O5  IDS C   1     154.864  42.618  54.0240  0.00  0.00     0.000 O
ATOM      7   O  IDS C   1     153.630  45.615  56.3940  0.00  0.00     0.000 O
ATOM      9  HD  IDS C   1     152.862  45.900  56.1110  0.00  0.00     0.000 HD
ENDROOT
BRANCH 2 9
ATOM      9   O  IDS C   1     152.006  44.741  54.2870  0.00  0.00     0.000 O
ATOM     10   S  IDS C   1     150.587  45.008  54.9640  0.00  0.00     0.000 S
ATOM     11   O  IDS C   1     149.913  45.959  54.1090  0.00  0.00     0.000 OA
ATOM     12   O  IDS C   1     149.927  43.719  55.0060  0.00  0.00     0.000 OA
ATOM     13   O  IDS C   1     150.871  45.539  56.2790  0.00  0.00     0.000 OA
ENDBRANCH 2 9
BRANCH 5 14
ATOM     14   C  IDS C   1     156.750  41.966  55.3420  0.00  0.00     0.000 C
ATOM     15   O  IDS C   1     157.525  42.463  54.5620  0.00  0.00     0.000 OA
ATOM     16   O  IDS C   1     157.112  41.086  56.1060  0.00  0.00     0.000 OA
ENDBRANCH 5 14
BRANCH 1 17
ATOM     17  O4  SGN C   2     152.824  42.490  52.7890  0.00  0.00     0.000 O
BRANCH 17 21
ATOM     18  C1  SGN C   2     152.185  42.796  48.6630  0.00  0.00     0.000 C
ATOM     19  C2  SGN C   2     153.533  43.307  49.1890  0.00  0.00     0.000 C
ATOM     20  C3  SGN C   2     153.785  42.751  50.5960  0.00  0.00     0.000 C
ATOM     21  C4  SGN C   2     152.604  43.069  51.5060  0.00  0.00     0.000 C
ATOM     22  C5  SGN C   2     151.329  42.510  50.8800  0.00  0.00     0.000 C
ATOM     23  O5  SGN C   2     151.138  43.081  49.5660  0.00  0.00     0.000 O
ATOM     24   O  SGN C   2     154.987  43.290  51.1190  0.00  0.00     0.000 O
ATOM     26  HD  SGN C   2     154.399  42.677  50.9520  0.00  0.00     0.000 HD
BRANCH 19 28
ATOM     26   N  SGN C   2     154.413  43.156  48.0220  0.00  0.00     0.000 N
ATOM     28  HD  SGN C   2     153.617  43.066  47.6930  0.00  0.00     0.000 HD
ATOM     28   O  SGN C   2     156.524  43.770  46.8440  0.00  0.00     0.000 OA
ATOM     29   S  SGN C   2     155.190  44.402  47.3660  0.00  0.00     0.000 S
ATOM     30   O  SGN C   2     154.433  44.839  46.2560  0.00  0.00     0.000 OA
ATOM     31   O  SGN C   2     155.498  45.316  48.4100  0.00  0.00     0.000 OA
ENDBRANCH 19 28
BRANCH 22 32
ATOM     32   C  SGN C   2     150.085  42.821  51.6760  0.00  0.00     0.000 C
ATOM     33   S  SGN C   2     147.630  42.052  51.8160  0.00  0.00     0.000 S
ATOM     34   O  SGN C   2     147.259  42.791  50.6350  0.00  0.00     0.000 OA
ATOM     35   O  SGN C   2     146.982  40.761  51.9200  0.00  0.00     0.000 OA
ATOM     36   O  SGN C   2     147.574  42.823  53.0350  0.00  0.00     0.000 OA
ATOM     37   O  SGN C   2     149.176  41.717  51.6010  0.00  0.00     0.000 O
ENDBRANCH 22 32
BRANCH 18 38
ATOM     38  O4  IDS C   3     151.855  41.611  48.1460  0.00  0.00     0.000 O
BRANCH 38 42
ATOM     39  C1  IDS C   3     150.765  38.878  46.2830  0.00  0.00     0.000 C
ATOM     40  C2  IDS C   3     150.192  39.163  47.6810  0.00  0.00     0.000 C
ATOM     41  C3  IDS C   3     151.307  39.332  48.7120  0.00  0.00     0.000 C
ATOM     42  C4  IDS C   3     152.384  40.282  48.2080  0.00  0.00     0.000 C
ATOM     43  C5  IDS C   3     152.856  39.841  46.8170  0.00  0.00     0.000 C
ATOM     44  O5  IDS C   3     151.743  39.840  45.9250  0.00  0.00     0.000 O
ATOM     45   O  IDS C   3     151.884  38.056  48.9980  0.00  0.00     0.000 O
ATOM     47  HD  IDS C   3     152.244  37.427  48.5230  0.00  0.00     0.000 HD
BRANCH 40 47
ATOM     47   O  IDS C   3     149.400  40.416  47.6720  0.00  0.00     0.000 O
ATOM     48   S  IDS C   3     148.152  40.562  46.6840  0.00  0.00     0.000 S
ATOM     49   O  IDS C   3     148.710  40.820  45.3740  0.00  0.00     0.000 OA
ATOM     50   O  IDS C   3     147.393  41.684  47.1920  0.00  0.00     0.000 OA
ATOM     51   O  IDS C   3     147.434  39.317  46.7490  0.00  0.00     0.000 OA
ENDBRANCH 40 47
BRANCH 43 52
ATOM     52   C  IDS C   3     153.951  40.726  46.2620  0.00  0.00     0.000 C
ATOM     53   O  IDS C   3     153.692  41.539  45.4050  0.00  0.00     0.000 OA
ATOM     54   O  IDS C   3     155.076  40.616  46.6780  0.00  0.00     0.000 OA
ENDBRANCH 43 52
BRANCH 39 55
ATOM     55  O4  SGN C   4     151.018  37.652  45.8250  0.00  0.00     0.000 O
BRANCH 55 59
ATOM     56  C1  SGN C   4     147.601  35.521  44.6880  0.00  0.00     0.000 C
ATOM     57  C2  SGN C   4     148.545  34.826  45.6850  0.00  0.00     0.000 C
ATOM     58  C3  SGN C   4     149.509  35.832  46.3090  0.00  0.00     0.000 C
ATOM     59  C4  SGN C   4     150.205  36.651  45.2280  0.00  0.00     0.000 C
ATOM     60  C5  SGN C   4     149.143  37.302  44.3450  0.00  0.00     0.000 C
ATOM     61  O5  SGN C   4     148.356  36.257  43.7390  0.00  0.00     0.000 O
ATOM     62   O  SGN C   4     150.461  35.145  47.1090  0.00  0.00     0.000 O
ATOM     64  HD  SGN C   4     149.758  34.640  47.1280  0.00  0.00     0.000 HD
BRANCH 57 66
ATOM     64   N  SGN C   4     147.416  34.100  46.2890  0.00  0.00     0.000 N
ATOM     66  HD  SGN C   4     146.932  33.413  46.0810  0.00  0.00     0.000 HD
ATOM     66   S  SGN C   4     147.500  32.524  46.5280  0.00  0.00     0.000 S
ATOM     67   O  SGN C   4     146.253  32.108  47.0590  0.00  0.00     0.000 OA
ATOM     68   O  SGN C   4     147.974  31.944  45.3190  0.00  0.00     0.000 OA
ATOM     69   O  SGN C   4     148.606  32.374  47.6220  0.00  0.00     0.000 OA
ENDBRANCH 57 66
BRANCH 60 70
ATOM     70   C  SGN C   4     149.712  38.155  43.2330  0.00  0.00     0.000 C
ATOM     71   O  SGN C   4     152.706  37.379  41.1010  0.00  0.00     0.000 OA
ATOM     72   O  SGN C   4     150.373  37.137  40.5110  0.00  0.00     0.000 OA
ATOM     73   O  SGN C   4     150.979  37.629  42.7900  0.00  0.00     0.000 O
ATOM     74   S  SGN C   4     151.361  37.882  41.2590  0.00  0.00     0.000 S
ATOM     75   O  SGN C   4     151.257  39.317  41.0830  0.00  0.00     0.000 OA
ENDBRANCH 60 70
BRANCH 56 76
ATOM     76  O4  IDS C   5     146.375  36.072  44.7480  0.00  0.00     0.000 O
BRANCH 76 80
ATOM     77  C1  IDS C   5     142.598  37.599  44.5060  0.00  0.00     0.000 C
ATOM     78  C2  IDS C   5     142.779  36.522  45.5740  0.00  0.00     0.000 C
ATOM     79  C3  IDS C   5     144.253  36.345  45.8820  0.00  0.00     0.000 C
ATOM     80  C4  IDS C   5     144.970  35.795  44.6530  0.00  0.00     0.000 C
ATOM     81  C5  IDS C   5     144.381  36.440  43.3900  0.00  0.00     0.000 C
ATOM     82  O5  IDS C   5     143.775  37.698  43.7040  0.00  0.00     0.000 O
BRANCH 78 83
ATOM     83   O  IDS C   5     142.081  36.902  46.8250  0.00  0.00     0.000 O
ATOM     84   S  IDS C   5     140.685  36.222  47.1910  0.00  0.00     0.000 S
ATOM     85   O  IDS C   5     139.876  36.316  46.0060  0.00  0.00     0.000 OA
ATOM     86   O  IDS C   5     141.009  34.862  47.5520  0.00  0.00     0.000 OA
ATOM     87   O  IDS C   5     140.161  36.981  48.3000  0.00  0.00     0.000 OA
ENDBRANCH 78 83
BRANCH 81 88
ATOM     88   C  IDS C   5     145.399  36.685  42.2910  0.00  0.00     0.000 C
ATOM     89   O  IDS C   5     145.795  35.765  41.6270  0.00  0.00     0.000 OA
ATOM     90   O  IDS C   5     145.805  37.806  42.0890  0.00  0.00     0.000 OA
ENDBRANCH 81 88
ENDBRANCH 76 80
ENDBRANCH 56 76
ENDBRANCH 55 59
ENDBRANCH 39 55
ENDBRANCH 38 42
ENDBRANCH 18 38
ENDBRANCH 17 21
ENDBRANCH 1 17
TORSDOF 18
ENDMDL
MODEL 6
REMARK VINA RESULT:      -6.6     22.416     26.620
ROOT
ATOM      1  C1  IDS C   1     152.496  45.025  54.3640  0.00  0.00     0.000 C
ATOM      2  C2  IDS C   1     153.149  44.735  55.7180  0.00  0.00     0.000 C
ATOM      3  C3  IDS C   1     152.306  45.295  56.8550  0.00  0.00     0.000 C
ATOM      4  C4  IDS C   1     152.121  46.798  56.6970  0.00  0.00     0.000 C
ATOM      5  C5  IDS C   1     151.916  47.149  55.2270  0.00  0.00     0.000 C
ATOM      6  O5  IDS C   1     151.471  46.000  54.5060  0.00  0.00     0.000 O
ATOM      7   O  IDS C   1     152.935  45.007  58.1120  0.00  0.00     0.000 O
ATOM      9  HD  IDS C   1     153.303  44.225  58.0600  0.00  0.00     0.000 HD
ENDROOT
BRANCH 2 9
ATOM      9   O  IDS C   1     153.283  43.277  55.9380  0.00  0.00     0.000 O
ATOM     10   S  IDS C   1     154.706  42.671  56.3270  0.00  0.00     0.000 S
ATOM     11   O  IDS C   1     154.501  41.248  56.4830  0.00  0.00     0.000 OA
ATOM     12   O  IDS C   1     155.584  42.997  55.2220  0.00  0.00     0.000 OA
ATOM     13   O  IDS C   1     155.087  43.321  57.5610  0.00  0.00     0.000 OA
ENDBRANCH 2 9
BRANCH 5 14
ATOM     14   C  IDS C   1     150.897  48.260  55.0400  0.00  0.00     0.000 C
ATOM     15   O  IDS C   1     151.278  49.386  54.8350  0.00  0.00     0.000 OA
ATOM     16   O  IDS C   1     149.706  48.005  55.1000  0.00  0.00     0.000 OA
ENDBRANCH 5 14
BRANCH 1 17
ATOM     17  O4  SGN C   2     152.426  44.122  53.3820  0.00  0.00     0.000 O
BRANCH 17 21
ATOM     18  C1  SGN C   2     150.568  41.273  50.9410  0.00  0.00     0.000 C
ATOM     19  C2  SGN C   2     149.645  42.248  51.6830  0.00  0.00     0.000 C
ATOM     20  C3  SGN C   2     150.453  43.457  52.1720  0.00  0.00     0.000 C
ATOM     21  C4  SGN C   2     151.651  42.991  52.9910  0.00  0.00     0.000 C
ATOM     22  C5  SGN C   2     152.490  42.036  52.1480  0.00  0.00     0.000 C
ATOM     23  O5  SGN C   2     151.680  40.912  51.7320  0.00  0.00     0.000 O
ATOM     24   O  SGN C   2     149.621  44.317  52.9330  0.00  0.00     0.000 O
ATOM     26  HD  SGN C   2     150.229  44.111  52.3510  0.00  0.00     0.000 HD
BRANCH 19 28
ATOM     26   N  SGN C   2     148.379  42.069  50.9600  0.00  0.00     0.000 N
ATOM     28  HD  SGN C   2     148.688  41.264  51.0360  0.00  0.00     0.000 HD
ATOM     28   O  SGN C   2     146.031  42.803  50.5490  0.00  0.00     0.000 OA
ATOM     29   S  SGN C   2     146.949  42.228  51.6790  0.00  0.00     0.000 S
ATOM     30   O  SGN C   2     146.496  40.933  52.0150  0.00  0.00     0.000 OA
ATOM     31   O  SGN C   2     147.085  43.211  52.6970  0.00  0.00     0.000 OA
ENDBRANCH 19 28
BRANCH 22 32
ATOM     32   C  SGN C   2     153.676  41.468  52.8880  0.00  0.00     0.000 C
ATOM     33   S  SGN C   2     154.791  39.181  53.2990  0.00  0.00     0.000 S
ATOM     34   O  SGN C   2     153.793  38.790  54.2620  0.00  0.00     0.000 OA
ATOM     35   O  SGN C   2     155.222  38.100  52.4370  0.00  0.00     0.000 OA
ATOM     36   O  SGN C   2     155.884  39.940  53.8590  0.00  0.00     0.000 OA
ATOM     37   O  SGN C   2     154.028  40.196  52.3310  0.00  0.00     0.000 O
ENDBRANCH 22 32
BRANCH 18 38
ATOM     38  O4  IDS C   3     151.056  41.324  49.6990  0.00  0.00     0.000 O
BRANCH 38 42
ATOM     39  C1  IDS C   3     151.949  40.830  46.3700  0.00  0.00     0.000 C
ATOM     40  C2  IDS C   3     153.017  41.067  47.4500  0.00  0.00     0.000 C
ATOM     41  C3  IDS C   3     152.712  42.326  48.2610  0.00  0.00     0.000 C
ATOM     42  C4  IDS C   3     151.260  42.348  48.7190  0.00  0.00     0.000 C
ATOM     43  C5  IDS C   3     150.334  42.116  47.5190  0.00  0.00     0.000 C
ATOM     44  O5  IDS C   3     150.645  40.857  46.9260  0.00  0.00     0.000 O
ATOM     45   O  IDS C   3     152.984  43.480  47.4640  0.00  0.00     0.000 O
ATOM     47  HD  IDS C   3     152.724  43.763  46.6890  0.00  0.00     0.000 HD
BRANCH 40 47
ATOM     47   O  IDS C   3     153.062  39.927  48.3960  0.00  0.00     0.000 O
ATOM     48   S  IDS C   3     153.874  38.605  48.0100  0.00  0.00     0.000 S
ATOM     49   O  IDS C   3     153.039  37.886  47.0720  0.00  0.00     0.000 OA
ATOM     50   O  IDS C   3     154.049  37.889  49.2550  0.00  0.00     0.000 OA
ATOM     51   O  IDS C   3     155.115  39.043  47.4310  0.00  0.00     0.000 OA
ENDBRANCH 40 47
BRANCH 43 52
ATOM     52   C  IDS C   3     148.869  42.153  47.8950  0.00  0.00     0.000 C
ATOM     53   O  IDS C   3     148.336  43.210  48.1410  0.00  0.00     0.000 OA
ATOM     54   O  IDS C   3     148.240  41.126  47.9460  0.00  0.00     0.000 OA
ENDBRANCH 43 52
BRANCH 39 55
ATOM     55  O4  SGN C   4     152.023  41.328  45.1360  0.00  0.00     0.000 O
BRANCH 55 59
ATOM     56  C1  SGN C   4     149.265  39.966  42.3000  0.00  0.00     0.000 C
ATOM     57  C2  SGN C   4     150.418  39.010  42.6520  0.00  0.00     0.000 C
ATOM     58  C3  SGN C   4     151.102  39.441  43.9460  0.00  0.00     0.000 C
ATOM     59  C4  SGN C   4     151.484  40.916  43.8880  0.00  0.00     0.000 C
ATOM     60  C5  SGN C   4     150.235  41.733  43.5650  0.00  0.00     0.000 C
ATOM     61  O5  SGN C   4     149.732  41.305  42.2840  0.00  0.00     0.000 O
ATOM     62   O  SGN C   4     152.251  38.634  44.1680  0.00  0.00     0.000 O
ATOM     64  HD  SGN C   4     151.716  38.128  43.7130  0.00  0.00     0.000 HD
BRANCH 57 66
ATOM     64   N  SGN C   4     149.558  37.854  42.3520  0.00  0.00     0.000 N
ATOM     66  HD  SGN C   4     149.288  37.444  41.6390  0.00  0.00     0.000 HD
ATOM     66   S  SGN C   4     150.096  36.656  41.4450  0.00  0.00     0.000 S
ATOM     67   O  SGN C   4     149.032  35.733  41.2870  0.00  0.00     0.000 OA
ATOM     68   O  SGN C   4     150.691  37.241  40.2930  0.00  0.00     0.000 OA
ATOM     69   O  SGN C   4     151.220  36.008  42.3150  0.00  0.00     0.000 OA
ENDBRANCH 57 66
BRANCH 60 70
ATOM     70   C  SGN C   4     150.483  43.224  43.4890  0.00  0.00     0.000 C
ATOM     71   O  SGN C   4     150.896  45.592  46.3740  0.00  0.00     0.000 OA
ATOM     72   O  SGN C   4     152.634  44.642  44.9870  0.00  0.00     0.000 OA
ATOM     73   O  SGN C   4     150.377  43.821  44.7960  0.00  0.00     0.000 O
ATOM     74   S  SGN C   4     151.272  45.119  45.0620  0.00  0.00     0.000 S
ATOM     75   O  SGN C   4     150.922  46.036  43.9950  0.00  0.00     0.000 OA
ENDBRANCH 60 70
BRANCH 56 76
ATOM     76  O4  IDS C   5     147.939  40.000  42.5330  0.00  0.00     0.000 O
BRANCH 76 80
ATOM     77  C1  IDS C   5     143.961  40.210  43.4210  0.00  0.00     0.000 C
ATOM     78  C2  IDS C   5     144.584  41.535  42.9810  0.00  0.00     0.000 C
ATOM     79  C3  IDS C   5     145.897  41.275  42.2700  0.00  0.00     0.000 C
ATOM     80  C4  IDS C   5     146.902  40.683  43.2530  0.00  0.00     0.000 C
ATOM     81  C5  IDS C   5     146.178  39.713  44.1990  0.00  0.00     0.000 C
ATOM     82  O5  IDS C   5     144.978  39.223  43.5930  0.00  0.00     0.000 O
BRANCH 78 83
ATOM     83   O  IDS C   5     143.682  42.254  42.0510  0.00  0.00     0.000 O
ATOM     84   S  IDS C   5     143.246  43.755  42.3710  0.00  0.00     0.000 S
ATOM     85   O  IDS C   5     142.813  43.758  43.7420  0.00  0.00     0.000 OA
ATOM     86   O  IDS C   5     144.432  44.549  42.1490  0.00  0.00     0.000 OA
ATOM     87   O  IDS C   5     142.189  44.062  41.4390  0.00  0.00     0.000 OA
ENDBRANCH 78 83
BRANCH 81 88
ATOM     88   C  IDS C   5     147.011  38.511  44.6030  0.00  0.00     0.000 C
ATOM     89   O  IDS C   5     146.888  37.471  44.0120  0.00  0.00     0.000 OA
ATOM     90   O  IDS C   5     147.796  38.606  45.5190  0.00  0.00     0.000 OA
ENDBRANCH 81 88
ENDBRANCH 76 80
ENDBRANCH 56 76
ENDBRANCH 55 59
ENDBRANCH 39 55
ENDBRANCH 38 42
ENDBRANCH 18 38
ENDBRANCH 17 21
ENDBRANCH 1 17
TORSDOF 18
ENDMDL
MODEL 7
REMARK VINA RESULT:      -5.0     22.945     27.924
ROOT
ATOM      1  C1  IDS C   1     158.545  49.196  49.6690  0.00  0.00     0.000 C
ATOM      2  C2  IDS C   1     158.982  50.501  50.3420  0.00  0.00     0.000 C
ATOM      3  C3  IDS C   1     158.363  51.702  49.6420  0.00  0.00     0.000 C
ATOM      4  C4  IDS C   1     158.765  51.735  48.1740  0.00  0.00     0.000 C
ATOM      5  C5  IDS C   1     158.771  50.321  47.6020  0.00  0.00     0.000 C
ATOM      6  O5  IDS C   1     157.958  49.463  48.4030  0.00  0.00     0.000 O
ATOM      7   O  IDS C   1     158.782  52.911  50.2920  0.00  0.00     0.000 O
ATOM      9  HD  IDS C   1     158.831  52.759  51.1430  0.00  0.00     0.000 HD
ENDROOT
BRANCH 2 9
ATOM      9   O  IDS C   1     158.547  50.535  51.7570  0.00  0.00     0.000 O
ATOM     10   S  IDS C   1     159.622  50.818  52.9000  0.00  0.00     0.000 S
ATOM     11   O  IDS C   1     158.889  50.801  54.1460  0.00  0.00     0.000 OA
ATOM     12   O  IDS C   1     160.590  49.745  52.7990  0.00  0.00     0.000 OA
ATOM     13   O  IDS C   1     160.186  52.116  52.5990  0.00  0.00     0.000 OA
ENDBRANCH 2 9
BRANCH 5 14
ATOM     14   C  IDS C   1     158.254  50.279  46.1740  0.00  0.00     0.000 C
ATOM     15   O  IDS C   1     158.861  50.858  45.3060  0.00  0.00     0.000 OA
ATOM     16   O  IDS C   1     157.233  49.664  45.9170  0.00  0.00     0.000 OA
ENDBRANCH 5 14
BRANCH 1 17
ATOM     17  O4  SGN C   2     158.183  48.109  50.3560  0.00  0.00     0.000 O
BRANCH 17 21
ATOM     18  C1  SGN C   2     155.483  45.338  51.9560  0.00  0.00     0.000 C
ATOM     19  C2  SGN C   2     154.966  46.219  50.8130  0.00  0.00     0.000 C
ATOM     20  C3  SGN C   2     156.148  46.853  50.0690  0.00  0.00     0.000 C
ATOM     21  C4  SGN C   2     157.056  47.583  51.0530  0.00  0.00     0.000 C
ATOM     22  C5  SGN C   2     157.507  46.605  52.1340  0.00  0.00     0.000 C
ATOM     23  O5  SGN C   2     156.352  46.055  52.8080  0.00  0.00     0.000 O
ATOM     24   O  SGN C   2     155.671  47.736  49.0680  0.00  0.00     0.000 O
ATOM     26  HD  SGN C   2     156.178  47.122  49.4090  0.00  0.00     0.000 HD
BRANCH 19 28
ATOM     26   N  SGN C   2     153.816  45.437  50.3370  0.00  0.00     0.000 N
ATOM     28  HD  SGN C   2     153.866  45.239  51.1790  0.00  0.00     0.000 HD
ATOM     28   O  SGN C   2     151.862  45.229  48.8000  0.00  0.00     0.000 OA
ATOM     29   S  SGN C   2     152.407  46.118  49.9680  0.00  0.00     0.000 S
ATOM     30   O  SGN C   2     151.557  45.968  51.0860  0.00  0.00     0.000 OA
ATOM     31   O  SGN C   2     152.677  47.419  49.4600  0.00  0.00     0.000 OA
ENDBRANCH 19 28
BRANCH 22 32
ATOM     32   C  SGN C   2     158.368  47.244  53.1960  0.00  0.00     0.000 C
ATOM     33   S  SGN C   2     158.641  47.194  55.7590  0.00  0.00     0.000 S
ATOM     34   O  SGN C   2     157.480  48.024  55.9670  0.00  0.00     0.000 OA
ATOM     35   O  SGN C   2     158.782  46.136  56.7380  0.00  0.00     0.000 OA
ATOM     36   O  SGN C   2     159.860  47.933  55.5310  0.00  0.00     0.000 OA
ATOM     37   O  SGN C   2     158.344  46.441  54.3830  0.00  0.00     0.000 O
ENDBRANCH 22 32
BRANCH 18 38
ATOM     38  O4  IDS C   3     155.999  44.107  51.9300  0.00  0.00     0.000 O
BRANCH 38 42
ATOM     39  C1  IDS C   3     156.747  40.710  51.7660  0.00  0.00     0.000 C
ATOM     40  C2  IDS C   3     156.923  41.497  53.0740  0.00  0.00     0.000 C
ATOM     41  C3  IDS C   3     157.767  42.753  52.8550  0.00  0.00     0.000 C
ATOM     42  C4  IDS C   3     157.281  43.538  51.6440  0.00  0.00     0.000 C
ATOM     43  C5  IDS C   3     157.181  42.609  50.4280  0.00  0.00     0.000 C
ATOM     44  O5  IDS C   3     156.275  41.548  50.7240  0.00  0.00     0.000 O
ATOM     45   O  IDS C   3     159.133  42.378  52.6700  0.00  0.00     0.000 O
ATOM     47  HD  IDS C   3     159.554  41.846  52.1320  0.00  0.00     0.000 HD
BRANCH 40 47
ATOM     47   O  IDS C   3     155.607  41.932  53.6010  0.00  0.00     0.000 O
ATOM     48   S  IDS C   3     155.013  41.249  54.9190  0.00  0.00     0.000 S
ATOM     49   O  IDS C   3     154.503  39.960  54.5030  0.00  0.00     0.000 OA
ATOM     50   O  IDS C   3     153.966  42.139  55.3700  0.00  0.00     0.000 OA
ATOM     51   O  IDS C   3     156.105  41.142  55.8500  0.00  0.00     0.000 OA
ENDBRANCH 40 47
BRANCH 43 52
ATOM     52   C  IDS C   3     156.730  43.328  49.1760  0.00  0.00     0.000 C
ATOM     53   O  IDS C   3     155.570  43.278  48.8380  0.00  0.00     0.000 OA
ATOM     54   O  IDS C   3     157.530  43.948  48.5220  0.00  0.00     0.000 OA
ENDBRANCH 43 52
BRANCH 39 55
ATOM     55  O4  SGN C   4     157.586  39.757  51.3590  0.00  0.00     0.000 O
BRANCH 55 59
ATOM     56  C1  SGN C   4     158.609  36.438  49.0260  0.00  0.00     0.000 C
ATOM     57  C2  SGN C   4     158.528  37.791  48.2980  0.00  0.00     0.000 C
ATOM     58  C3  SGN C   4     158.543  38.945  49.2970  0.00  0.00     0.000 C
ATOM     59  C4  SGN C   4     157.491  38.732  50.3800  0.00  0.00     0.000 C
ATOM     60  C5  SGN C   4     157.723  37.369  51.0290  0.00  0.00     0.000 C
ATOM     61  O5  SGN C   4     157.593  36.356  50.0120  0.00  0.00     0.000 O
ATOM     62   O  SGN C   4     158.317  40.170  48.6130  0.00  0.00     0.000 O
ATOM     64  HD  SGN C   4     158.693  39.659  48.0240  0.00  0.00     0.000 HD
BRANCH 57 66
ATOM     64   N  SGN C   4     159.381  38.259  47.1940  0.00  0.00     0.000 N
ATOM     66  HD  SGN C   4     159.954  37.902  46.6520  0.00  0.00     0.000 HD
ATOM     66   S  SGN C   4     159.320  37.552  45.7650  0.00  0.00     0.000 S
ATOM     67   O  SGN C   4     160.288  38.176  44.9400  0.00  0.00     0.000 OA
ATOM     68   O  SGN C   4     159.394  36.150  45.9920  0.00  0.00     0.000 OA
ATOM     69   O  SGN C   4     157.890  37.898  45.2400  0.00  0.00     0.000 OA
ENDBRANCH 57 66
BRANCH 60 70
ATOM     70   C  SGN C   4     156.741  37.044  52.1330  0.00  0.00     0.000 C
ATOM     71   O  SGN C   4     155.615  33.628  53.2170  0.00  0.00     0.000 OA
ATOM     72   O  SGN C   4     157.248  35.052  54.2910  0.00  0.00     0.000 OA
ATOM     73   O  SGN C   4     156.405  35.643  52.1130  0.00  0.00     0.000 O
ATOM     74   S  SGN C   4     156.029  34.979  53.5180  0.00  0.00     0.000 S
ATOM     75   O  SGN C   4     154.961  35.806  54.0450  0.00  0.00     0.000 OA
ENDBRANCH 60 70
BRANCH 56 76
ATOM     76  O4  IDS C   5     159.597  35.599  49.3890  0.00  0.00     0.000 O
BRANCH 76 80
ATOM     77  C1  IDS C   5     161.965  36.038  52.6840  0.00  0.00     0.000 C
ATOM     78  C2  IDS C   5     162.473  36.761  51.4370  0.00  0.00     0.000 C
ATOM     79  C3  IDS C   5     161.346  36.909  50.4330  0.00  0.00     0.000 C
ATOM     80  C4  IDS C   5     160.923  35.530  49.9350  0.00  0.00     0.000 C
ATOM     81  C5  IDS C   5     160.971  34.531  51.1000  0.00  0.00     0.000 C
ATOM     82  O5  IDS C   5     160.848  35.213  52.3520  0.00  0.00     0.000 O
BRANCH 78 83
ATOM     83   O  IDS C   5     162.972  38.113  51.7830  0.00  0.00     0.000 O
ATOM     84   S  IDS C   5     164.541  38.401  51.7890  0.00  0.00     0.000 S
ATOM     85   O  IDS C   5     165.136  37.334  52.5480  0.00  0.00     0.000 OA
ATOM     86   O  IDS C   5     164.933  38.395  50.3990  0.00  0.00     0.000 OA
ATOM     87   O  IDS C   5     164.698  39.695  52.4060  0.00  0.00     0.000 OA
ENDBRANCH 78 83
BRANCH 81 88
ATOM     88   C  IDS C   5     159.885  33.472  51.0480  0.00  0.00     0.000 C
ATOM     89   O  IDS C   5     159.957  32.580  50.2450  0.00  0.00     0.000 OA
ATOM     90   O  IDS C   5     158.954  33.530  51.8180  0.00  0.00     0.000 OA
ENDBRANCH 81 88
ENDBRANCH 76 80
ENDBRANCH 56 76
ENDBRANCH 55 59
ENDBRANCH 39 55
ENDBRANCH 38 42
ENDBRANCH 18 38
ENDBRANCH 17 21
ENDBRANCH 1 17
TORSDOF 18
ENDMDL
MODEL 8
REMARK VINA RESULT:      -3.8     24.238     29.078
ROOT
ATOM      1  C1  IDS C   1     157.693  51.497  51.2220  0.00  0.00     0.000 C
ATOM      2  C2  IDS C   1     158.524  52.672  51.7450  0.00  0.00     0.000 C
ATOM      3  C3  IDS C   1     157.656  53.908  51.9280  0.00  0.00     0.000 C
ATOM      4  C4  IDS C   1     156.999  54.303  50.6130  0.00  0.00     0.000 C
ATOM      5  C5  IDS C   1     156.562  53.057  49.8500  0.00  0.00     0.000 C
ATOM      6  O5  IDS C   1     156.433  51.953  50.7470  0.00  0.00     0.000 O
ATOM      7   O  IDS C   1     158.454  54.992  52.4230  0.00  0.00     0.000 O
ATOM      9  HD  IDS C   1     159.041  54.670  52.9720  0.00  0.00     0.000 HD
ENDROOT
BRANCH 2 9
ATOM      9   O  IDS C   1     159.124  52.349  53.0590  0.00  0.00     0.000 O
ATOM     10   S  IDS C   1     160.700  52.490  53.2570  0.00  0.00     0.000 S
ATOM     11   O  IDS C   1     160.962  52.121  54.6300  0.00  0.00     0.000 OA
ATOM     12   O  IDS C   1     161.296  51.577  52.3030  0.00  0.00     0.000 OA
ATOM     13   O  IDS C   1     161.010  53.876  52.9790  0.00  0.00     0.000 OA
ENDBRANCH 2 9
BRANCH 5 14
ATOM     14   C  IDS C   1     155.236  53.256  49.1380  0.00  0.00     0.000 C
ATOM     15   O  IDS C   1     154.903  52.482  48.2730  0.00  0.00     0.000 OA
ATOM     16   O  IDS C   1     154.520  54.196  49.4420  0.00  0.00     0.000 OA
ENDBRANCH 5 14
BRANCH 1 17
ATOM     17  O4  SGN C   2     157.818  50.251  51.6890  0.00  0.00     0.000 O
BRANCH 17 21
ATOM     18  C1  SGN C   2     156.630  46.867  53.8490  0.00  0.00     0.000 C
ATOM     19  C2  SGN C   2     155.544  47.908  53.5500  0.00  0.00     0.000 C
ATOM     20  C3  SGN C   2     156.011  48.839  52.4250  0.00  0.00     0.000 C
ATOM     21  C4  SGN C   2     157.368  49.442  52.7720  0.00  0.00     0.000 C
ATOM     22  C5  SGN C   2     158.360  48.314  53.0420  0.00  0.00     0.000 C
ATOM     23  O5  SGN C   2     157.873  47.482  54.1200  0.00  0.00     0.000 O
ATOM     24   O  SGN C   2     155.046  49.855  52.2070  0.00  0.00     0.000 O
ATOM     26  HD  SGN C   2     155.627  49.251  51.9870  0.00  0.00     0.000 HD
BRANCH 19 28
ATOM     26   N  SGN C   2     154.319  47.135  53.8010  0.00  0.00     0.000 N
ATOM     28  HD  SGN C   2     154.862  46.869  54.4210  0.00  0.00     0.000 HD
ATOM     28   O  SGN C   2     151.829  47.000  53.7450  0.00  0.00     0.000 OA
ATOM     29   S  SGN C   2     152.993  47.804  54.4170  0.00  0.00     0.000 S
ATOM     30   O  SGN C   2     152.986  47.535  55.8040  0.00  0.00     0.000 OA
ATOM     31   O  SGN C   2     152.937  49.150  53.9620  0.00  0.00     0.000 OA
ENDBRANCH 19 28
BRANCH 22 32
ATOM     32   C  SGN C   2     159.726  48.804  53.4530  0.00  0.00     0.000 C
ATOM     33   S  SGN C   2     161.827  47.910  54.6490  0.00  0.00     0.000 S
ATOM     34   O  SGN C   2     161.216  48.016  55.9500  0.00  0.00     0.000 OA
ATOM     35   O  SGN C   2     162.654  46.731  54.4900  0.00  0.00     0.000 OA
ATOM     36   O  SGN C   2     162.465  49.124  54.1960  0.00  0.00     0.000 OA
ATOM     37   O  SGN C   2     160.599  47.686  53.6540  0.00  0.00     0.000 O
ENDBRANCH 22 32
BRANCH 18 38
ATOM     38  O4  IDS C   3     156.957  45.751  53.1940  0.00  0.00     0.000 O
BRANCH 38 42
ATOM     39  C1  IDS C   3     156.843  42.381  52.3230  0.00  0.00     0.000 C
ATOM     40  C2  IDS C   3     156.649  42.829  53.7810  0.00  0.00     0.000 C
ATOM     41  C3  IDS C   3     157.789  43.741  54.2350  0.00  0.00     0.000 C
ATOM     42  C4  IDS C   3     158.058  44.836  53.2130  0.00  0.00     0.000 C
ATOM     43  C5  IDS C   3     158.246  44.215  51.8230  0.00  0.00     0.000 C
ATOM     44  O5  IDS C   3     157.068  43.492  51.4720  0.00  0.00     0.000 O
ATOM     45   O  IDS C   3     158.970  42.960  54.4290  0.00  0.00     0.000 O
ATOM     47  HD  IDS C   3     159.431  42.416  53.9380  0.00  0.00     0.000 HD
BRANCH 40 47
ATOM     47   O  IDS C   3     155.386  43.590  53.9280  0.00  0.00     0.000 O
ATOM     48   S  IDS C   3     154.322  43.159  55.0420  0.00  0.00     0.000 S
ATOM     49   O  IDS C   3     153.645  41.994  54.5150  0.00  0.00     0.000 OA
ATOM     50   O  IDS C   3     153.439  44.296  55.1840  0.00  0.00     0.000 OA
ATOM     51   O  IDS C   3     155.076  42.875  56.2340  0.00  0.00     0.000 OA
ENDBRANCH 40 47
BRANCH 43 52
ATOM     52   C  IDS C   3     158.546  45.245  50.7570  0.00  0.00     0.000 C
ATOM     53   O  IDS C   3     157.772  45.410  49.8420  0.00  0.00     0.000 OA
ATOM     54   O  IDS C   3     159.557  45.898  50.8250  0.00  0.00     0.000 OA
ENDBRANCH 43 52
BRANCH 39 55
ATOM     55  O4  SGN C   4     157.512  41.283  51.9710  0.00  0.00     0.000 O
BRANCH 55 59
ATOM     56  C1  SGN C   4     157.869  37.649  49.9290  0.00  0.00     0.000 C
ATOM     57  C2  SGN C   4     158.204  38.921  49.1320  0.00  0.00     0.000 C
ATOM     58  C3  SGN C   4     158.419  40.107  50.0690  0.00  0.00     0.000 C
ATOM     59  C4  SGN C   4     157.251  40.244  51.0390  0.00  0.00     0.000 C
ATOM     60  C5  SGN C   4     157.065  38.918  51.7740  0.00  0.00     0.000 C
ATOM     61  O5  SGN C   4     156.777  37.896  50.8000  0.00  0.00     0.000 O
ATOM     62   O  SGN C   4     158.579  41.294  49.3050  0.00  0.00     0.000 O
ATOM     64  HD  SGN C   4     158.865  40.663  48.7860  0.00  0.00     0.000 HD
BRANCH 57 66
ATOM     64   N  SGN C   4     158.270  37.972  48.0090  0.00  0.00     0.000 N
ATOM     66  HD  SGN C   4     158.129  38.002  47.1550  0.00  0.00     0.000 HD
ATOM     66   S  SGN C   4     159.143  38.303  46.7160  0.00  0.00     0.000 S
ATOM     67   O  SGN C   4     158.959  37.241  45.7950  0.00  0.00     0.000 OA
ATOM     68   O  SGN C   4     158.820  39.632  46.3240  0.00  0.00     0.000 OA
ATOM     69   O  SGN C   4     160.613  38.281  47.2460  0.00  0.00     0.000 OA
ENDBRANCH 57 66
BRANCH 60 70
ATOM     70   C  SGN C   4     155.933  38.931  52.7790  0.00  0.00     0.000 C
ATOM     71   O  SGN C   4     152.919  36.690  52.8090  0.00  0.00     0.000 OA
ATOM     72   O  SGN C   4     154.906  36.506  54.1750  0.00  0.00     0.000 OA
ATOM     73   O  SGN C   4     154.862  38.071  52.3440  0.00  0.00     0.000 O
ATOM     74   S  SGN C   4     153.985  37.386  53.4920  0.00  0.00     0.000 S
ATOM     75   O  SGN C   4     153.523  38.488  54.3120  0.00  0.00     0.000 OA
ENDBRANCH 60 70
BRANCH 56 76
ATOM     76  O4  IDS C   5     158.572  36.620  50.4390  0.00  0.00     0.000 O
BRANCH 76 80
ATOM     77  C1  IDS C   5     162.114  35.668  52.2290  0.00  0.00     0.000 C
ATOM     78  C2  IDS C   5     162.243  36.150  50.7840  0.00  0.00     0.000 C
ATOM     79  C3  IDS C   5     160.979  36.878  50.3700  0.00  0.00     0.000 C
ATOM     80  C4  IDS C   5     159.809  35.898  50.3490  0.00  0.00     0.000 C
ATOM     81  C5  IDS C   5     159.945  34.918  51.5230  0.00  0.00     0.000 C
ATOM     82  O5  IDS C   5     160.738  35.491  52.5660  0.00  0.00     0.000 O
BRANCH 78 83
ATOM     83   O  IDS C   5     163.387  37.081  50.6430  0.00  0.00     0.000 O
ATOM     84   S  IDS C   5     163.589  38.255  51.7030  0.00  0.00     0.000 S
ATOM     85   O  IDS C   5     162.309  38.900  51.8290  0.00  0.00     0.000 OA
ATOM     86   O  IDS C   5     164.017  37.600  52.9170  0.00  0.00     0.000 OA
ATOM     87   O  IDS C   5     164.607  39.113  51.1470  0.00  0.00     0.000 OA
ENDBRANCH 78 83
BRANCH 81 88
ATOM     88   C  IDS C   5     158.619  34.500  52.1320  0.00  0.00     0.000 C
ATOM     89   O  IDS C   5     157.926  33.698  51.5660  0.00  0.00     0.000 OA
ATOM     90   O  IDS C   5     158.268  34.977  53.1870  0.00  0.00     0.000 OA
ENDBRANCH 81 88
ENDBRANCH 76 80
ENDBRANCH 56 76
ENDBRANCH 55 59
ENDBRANCH 39 55
ENDBRANCH 38 42
ENDBRANCH 18 38
ENDBRANCH 17 21
ENDBRANCH 1 17
TORSDOF 18
ENDMDL
MODEL 9
REMARK VINA RESULT:      -2.3     30.362     33.302
ROOT
ATOM      1  C1  IDS C   1     158.139  53.084  49.8270  0.00  0.00     0.000 C
ATOM      2  C2  IDS C   1     159.430  52.851  49.0380  0.00  0.00     0.000 C
ATOM      3  C3  IDS C   1     160.628  52.771  49.9730  0.00  0.00     0.000 C
ATOM      4  C4  IDS C   1     160.761  54.052  50.7860  0.00  0.00     0.000 C
ATOM      5  C5  IDS C   1     159.381  54.552  51.2030  0.00  0.00     0.000 C
ATOM      6  O5  IDS C   1     158.437  53.482  51.1590  0.00  0.00     0.000 O
ATOM      7   O  IDS C   1     161.824  52.548  49.2120  0.00  0.00     0.000 O
ATOM      9  HD  IDS C   1     161.631  52.023  48.5510  0.00  0.00     0.000 HD
ENDROOT
BRANCH 2 9
ATOM      9   O  IDS C   1     159.366  51.577  48.2860  0.00  0.00     0.000 O
ATOM     10   S  IDS C   1     159.656  51.577  46.7180  0.00  0.00     0.000 S
ATOM     11   O  IDS C   1     159.529  50.201  46.2920  0.00  0.00     0.000 OA
ATOM     12   O  IDS C   1     158.650  52.442  46.1360  0.00  0.00     0.000 OA
ATOM     13   O  IDS C   1     160.999  52.090  46.5650  0.00  0.00     0.000 OA
ENDBRANCH 2 9
BRANCH 5 14
ATOM     14   C  IDS C   1     159.383  55.136  52.6060  0.00  0.00     0.000 C
ATOM     15   O  IDS C   1     158.433  55.777  52.9830  0.00  0.00     0.000 OA
ATOM     16   O  IDS C   1     160.343  54.954  53.3360  0.00  0.00     0.000 OA
ENDBRANCH 5 14
BRANCH 1 17
ATOM     17  O4  SGN C   2     156.998  52.441  49.5620  0.00  0.00     0.000 O
BRANCH 17 21
ATOM     18  C1  SGN C   2     154.011  49.574  50.1800  0.00  0.00     0.000 C
ATOM     19  C2  SGN C   2     154.929  49.876  51.3700  0.00  0.00     0.000 C
ATOM     20  C3  SGN C   2     155.662  51.203  51.1380  0.00  0.00     0.000 C
ATOM     21  C4  SGN C   2     156.379  51.178  49.7930  0.00  0.00     0.000 C
ATOM     22  C5  SGN C   2     155.365  50.874  48.6940  0.00  0.00     0.000 C
ATOM     23  O5  SGN C   2     154.721  49.607  48.9590  0.00  0.00     0.000 O
ATOM     24   O  SGN C   2     156.575  51.442  52.1950  0.00  0.00     0.000 O
ATOM     26  HD  SGN C   2     155.969  51.642  51.6100  0.00  0.00     0.000 HD
BRANCH 19 28
ATOM     26   N  SGN C   2     154.148  49.330  52.4890  0.00  0.00     0.000 N
ATOM     28  HD  SGN C   2     153.992  48.778  51.8400  0.00  0.00     0.000 HD
ATOM     28   O  SGN C   2     153.901  48.959  54.9430  0.00  0.00     0.000 OA
ATOM     29   S  SGN C   2     154.838  48.597  53.7420  0.00  0.00     0.000 S
ATOM     30   O  SGN C   2     154.764  47.205  53.5150  0.00  0.00     0.000 OA
ATOM     31   O  SGN C   2     156.105  49.208  53.9550  0.00  0.00     0.000 OA
ENDBRANCH 19 28
BRANCH 22 32
ATOM     32   C  SGN C   2     155.984  50.769  47.3210  0.00  0.00     0.000 C
ATOM     33   S  SGN C   2     155.902  49.206  45.2730  0.00  0.00     0.000 S
ATOM     34   O  SGN C   2     156.739  48.219  45.9070  0.00  0.00     0.000 OA
ATOM     35   O  SGN C   2     154.832  48.639  44.4790  0.00  0.00     0.000 OA
ATOM     36   O  SGN C   2     156.634  50.247  44.5900  0.00  0.00     0.000 OA
ATOM     37   O  SGN C   2     155.168  49.938  46.4870  0.00  0.00     0.000 O
ENDBRANCH 22 32
BRANCH 18 38
ATOM     38  O4  IDS C   3     152.810  50.068  49.8700  0.00  0.00     0.000 O
BRANCH 38 42
ATOM     39  C1  IDS C   3     149.352  50.476  49.8760  0.00  0.00     0.000 C
ATOM     40  C2  IDS C   3     149.984  49.078  49.9580  0.00  0.00     0.000 C
ATOM     41  C3  IDS C   3     150.997  48.862  48.8340  0.00  0.00     0.000 C
ATOM     42  C4  IDS C   3     151.955  50.041  48.7220  0.00  0.00     0.000 C
ATOM     43  C5  IDS C   3     151.160  51.349  48.6300  0.00  0.00     0.000 C
ATOM     44  O5  IDS C   3     150.346  51.483  49.7940  0.00  0.00     0.000 O
ATOM     45   O  IDS C   3     150.302  48.687  47.5980  0.00  0.00     0.000 O
ATOM     47  HD  IDS C   3     149.716  49.146  47.1550  0.00  0.00     0.000 HD
BRANCH 40 47
ATOM     47   O  IDS C   3     150.703  48.906  51.2430  0.00  0.00     0.000 O
ATOM     48   S  IDS C   3     150.338  47.678  52.2000  0.00  0.00     0.000 S
ATOM     49   O  IDS C   3     149.101  48.040  52.8570  0.00  0.00     0.000 OA
ATOM     50   O  IDS C   3     151.446  47.575  53.1250  0.00  0.00     0.000 OA
ATOM     51   O  IDS C   3     150.202  46.526  51.3500  0.00  0.00     0.000 OA
ENDBRANCH 40 47
BRANCH 43 52
ATOM     52   C  IDS C   3     152.048  52.565  48.4880  0.00  0.00     0.000 C
ATOM     53   O  IDS C   3     152.171  53.334  49.4140  0.00  0.00     0.000 OA
ATOM     54   O  IDS C   3     152.631  52.762  47.4520  0.00  0.00     0.000 OA
ENDBRANCH 43 52
BRANCH 39 55
ATOM     55  O4  SGN C   4     148.246  50.747  49.1820  0.00  0.00     0.000 O
BRANCH 55 59
ATOM     56  C1  SGN C   4     144.760  50.556  51.4870  0.00  0.00     0.000 C
ATOM     57  C2  SGN C   4     144.891  49.527  50.3510  0.00  0.00     0.000 C
ATOM     58  C3  SGN C   4     146.333  49.442  49.8610  0.00  0.00     0.000 C
ATOM     59  C4  SGN C   4     146.873  50.830  49.5360  0.00  0.00     0.000 C
ATOM     60  C5  SGN C   4     146.705  51.722  50.7650  0.00  0.00     0.000 C
ATOM     61  O5  SGN C   4     145.300  51.802  51.0770  0.00  0.00     0.000 O
ATOM     62   O  SGN C   4     146.399  48.599  48.7180  0.00  0.00     0.000 O
ATOM     64  HD  SGN C   4     145.721  48.302  49.1680  0.00  0.00     0.000 HD
BRANCH 57 66
ATOM     64   N  SGN C   4     143.957  48.651  49.6250  0.00  0.00     0.000 N
ATOM     66  HD  SGN C   4     143.730  47.815  49.6570  0.00  0.00     0.000 HD
ATOM     66   S  SGN C   4     142.873  47.787  50.4150  0.00  0.00     0.000 S
ATOM     67   O  SGN C   4     142.172  47.008  49.4600  0.00  0.00     0.000 OA
ATOM     68   O  SGN C   4     143.553  47.139  51.4820  0.00  0.00     0.000 OA
ATOM     69   O  SGN C   4     141.909  48.861  51.0150  0.00  0.00     0.000 OA
ENDBRANCH 57 66
BRANCH 60 70
ATOM     70   C  SGN C   4     147.216  53.133  50.5700  0.00  0.00     0.000 C
ATOM     71   O  SGN C   4     145.167  56.191  49.8260  0.00  0.00     0.000 OA
ATOM     72   O  SGN C   4     146.100  55.524  51.9550  0.00  0.00     0.000 OA
ATOM     73   O  SGN C   4     146.160  53.991  50.0970  0.00  0.00     0.000 O
ATOM     74   S  SGN C   4     146.250  55.531  50.5170  0.00  0.00     0.000 S
ATOM     75   O  SGN C   4     147.563  55.960  50.0760  0.00  0.00     0.000 OA
ENDBRANCH 60 70
BRANCH 56 76
ATOM     76  O4  IDS C   5     144.805  50.515  52.8320  0.00  0.00     0.000 O
BRANCH 76 80
ATOM     77  C1  IDS C   5     145.964  50.976  56.7180  0.00  0.00     0.000 C
ATOM     78  C2  IDS C   5     147.085  50.557  55.7670  0.00  0.00     0.000 C
ATOM     79  C3  IDS C   5     146.677  50.839  54.3350  0.00  0.00     0.000 C
ATOM     80  C4  IDS C   5     145.496  49.950  53.9560  0.00  0.00     0.000 C
ATOM     81  C5  IDS C   5     144.549  49.823  55.1580  0.00  0.00     0.000 C
ATOM     82  O5  IDS C   5     144.708  50.937  56.0420  0.00  0.00     0.000 O
BRANCH 78 83
ATOM     83   O  IDS C   5     148.327  51.311  56.0570  0.00  0.00     0.000 O
ATOM     84   S  IDS C   5     149.597  50.549  56.6500  0.00  0.00     0.000 S
ATOM     85   O  IDS C   5     149.108  49.762  57.7500  0.00  0.00     0.000 OA
ATOM     86   O  IDS C   5     150.102  49.749  55.5600  0.00  0.00     0.000 OA
ATOM     87   O  IDS C   5     150.519  51.583  57.0550  0.00  0.00     0.000 OA
ENDBRANCH 78 83
BRANCH 81 88
ATOM     88   C  IDS C   5     143.081  49.744  54.7800  0.00  0.00     0.000 C
ATOM     89   O  IDS C   5     142.627  48.717  54.3520  0.00  0.00     0.000 OA
ATOM     90   O  IDS C   5     142.375  50.718  54.9140  0.00  0.00     0.000 OA
ENDBRANCH 81 88
ENDBRANCH 76 80
ENDBRANCH 56 76
ENDBRANCH 55 59
ENDBRANCH 39 55
ENDBRANCH 38 42
ENDBRANCH 18 38
ENDBRANCH 17 21
ENDBRANCH 1 17
TORSDOF 18
ENDMDL
MODEL 10
REMARK VINA RESULT:      -2.1     30.228     33.249
ROOT
ATOM      1  C1  IDS C   1     158.408  53.247  49.6970  0.00  0.00     0.000 C
ATOM      2  C2  IDS C   1     159.749  53.090  48.9750  0.00  0.00     0.000 C
ATOM      3  C3  IDS C   1     160.896  53.025  49.9740  0.00  0.00     0.000 C
ATOM      4  C4  IDS C   1     160.932  54.281  50.8330  0.00  0.00     0.000 C
ATOM      5  C5  IDS C   1     159.513  54.714  51.1870  0.00  0.00     0.000 C
ATOM      6  O5  IDS C   1     158.616  53.611  51.0560  0.00  0.00     0.000 O
ATOM      7   O  IDS C   1     162.139  52.873  49.2750  0.00  0.00     0.000 O
ATOM      9  HD  IDS C   1     162.005  52.364  48.5870  0.00  0.00     0.000 HD
ENDROOT
BRANCH 2 9
ATOM      9   O  IDS C   1     159.777  51.841  48.1810  0.00  0.00     0.000 O
ATOM     10   S  IDS C   1     160.165  51.904  46.6360  0.00  0.00     0.000 S
ATOM     11   O  IDS C   1     160.114  50.539  46.1590  0.00  0.00     0.000 OA
ATOM     12   O  IDS C   1     159.168  52.754  46.0180  0.00  0.00     0.000 OA
ATOM     13   O  IDS C   1     161.496  52.466  46.5850  0.00  0.00     0.000 OA
ENDBRANCH 2 9
BRANCH 5 14
ATOM     14   C  IDS C   1     159.414  55.249  52.6050  0.00  0.00     0.000 C
ATOM     15   O  IDS C   1     158.421  55.844  52.9480  0.00  0.00     0.000 OA
ATOM     16   O  IDS C   1     160.337  55.076  53.3830  0.00  0.00     0.000 OA
ENDBRANCH 5 14
BRANCH 1 17
ATOM     17  O4  SGN C   2     157.310  52.570  49.3480  0.00  0.00     0.000 O
BRANCH 17 21
ATOM     18  C1  SGN C   2     154.465  49.512  49.6220  0.00  0.00     0.000 C
ATOM     19  C2  SGN C   2     155.317  49.771  50.8710  0.00  0.00     0.000 C
ATOM     20  C3  SGN C   2     155.984  51.148  50.7680  0.00  0.00     0.000 C
ATOM     21  C4  SGN C   2     156.753  51.263  49.4580  0.00  0.00     0.000 C
ATOM     22  C5  SGN C   2     155.802  50.991  48.2960  0.00  0.00     0.000 C
ATOM     23  O5  SGN C   2     155.219  49.675  48.4390  0.00  0.00     0.000 O
ATOM     24   O  SGN C   2     156.840  51.353  51.8790  0.00  0.00     0.000 O
ATOM     26  HD  SGN C   2     156.247  51.565  51.2850  0.00  0.00     0.000 HD
BRANCH 19 28
ATOM     26   N  SGN C   2     154.518  49.111  51.9120  0.00  0.00     0.000 N
ATOM     28  HD  SGN C   2     154.401  48.610  51.2160  0.00  0.00     0.000 HD
ATOM     28   O  SGN C   2     154.203  48.531  54.3180  0.00  0.00     0.000 OA
ATOM     29   S  SGN C   2     155.190  48.297  53.1250  0.00  0.00     0.000 S
ATOM     30   O  SGN C   2     155.168  46.927  52.7820  0.00  0.00     0.000 OA
ATOM     31   O  SGN C   2     156.429  48.925  53.4320  0.00  0.00     0.000 OA
ENDBRANCH 19 28
BRANCH 22 32
ATOM     32   C  SGN C   2     156.479  51.023  46.9480  0.00  0.00     0.000 C
ATOM     33   S  SGN C   2     156.561  49.622  44.7860  0.00  0.00     0.000 S
ATOM     34   O  SGN C   2     157.423  48.631  45.3800  0.00  0.00     0.000 OA
ATOM     35   O  SGN C   2     155.554  49.065  43.9070  0.00  0.00     0.000 OA
ATOM     36   O  SGN C   2     157.262  50.748  44.2160  0.00  0.00     0.000 OA
ATOM     37   O  SGN C   2     155.741  50.220  46.0190  0.00  0.00     0.000 O
ENDBRANCH 22 32
BRANCH 18 38
ATOM     38  O4  IDS C   3     153.252  49.965  49.2980  0.00  0.00     0.000 O
BRANCH 38 42
ATOM     39  C1  IDS C   3     149.789  50.322  49.2010  0.00  0.00     0.000 C
ATOM     40  C2  IDS C   3     150.440  48.931  49.2630  0.00  0.00     0.000 C
ATOM     41  C3  IDS C   3     151.493  48.764  48.1670  0.00  0.00     0.000 C
ATOM     42  C4  IDS C   3     152.435  49.959  48.1220  0.00  0.00     0.000 C
ATOM     43  C5  IDS C   3     151.624  51.258  48.0420  0.00  0.00     0.000 C
ATOM     44  O5  IDS C   3     150.769  51.345  49.1820  0.00  0.00     0.000 O
ATOM     45   O  IDS C   3     150.841  48.616  46.9040  0.00  0.00     0.000 O
ATOM     47  HD  IDS C   3     150.263  49.079  46.4550  0.00  0.00     0.000 HD
BRANCH 40 47
ATOM     47   O  IDS C   3     151.119  48.731  50.5650  0.00  0.00     0.000 O
ATOM     48   S  IDS C   3     150.718  47.489  51.4890  0.00  0.00     0.000 S
ATOM     49   O  IDS C   3     149.463  47.848  52.1150  0.00  0.00     0.000 OA
ATOM     50   O  IDS C   3     151.796  47.362  52.4450  0.00  0.00     0.000 OA
ATOM     51   O  IDS C   3     150.600  46.353  50.6140  0.00  0.00     0.000 OA
ENDBRANCH 40 47
BRANCH 43 52
ATOM     52   C  IDS C   3     152.497  52.491  47.9660  0.00  0.00     0.000 C
ATOM     53   O  IDS C   3     152.595  53.220  48.9260  0.00  0.00     0.000 OA
ATOM     54   O  IDS C   3     153.091  52.740  46.9480  0.00  0.00     0.000 OA
ENDBRANCH 43 52
BRANCH 39 55
ATOM     55  O4  SGN C   4     148.703  50.597  48.4790  0.00  0.00     0.000 O
BRANCH 55 59
ATOM     56  C1  SGN C   4     145.155  50.414  50.6890  0.00  0.00     0.000 C
ATOM     57  C2  SGN C   4     145.296  49.412  49.5310  0.00  0.00     0.000 C
ATOM     58  C3  SGN C   4     146.749  49.312  49.0750  0.00  0.00     0.000 C
ATOM     59  C4  SGN C   4     147.322  50.697  48.8000  0.00  0.00     0.000 C
ATOM     60  C5  SGN C   4     147.139  51.561  50.0460  0.00  0.00     0.000 C
ATOM     61  O5  SGN C   4     145.728  51.660  50.3240  0.00  0.00     0.000 O
ATOM     62   O  SGN C   4     146.829  48.496  47.9140  0.00  0.00     0.000 O
ATOM     64  HD  SGN C   4     146.134  48.201  48.3390  0.00  0.00     0.000 HD
BRANCH 57 66
ATOM     64   N  SGN C   4     144.484  48.429  48.7950  0.00  0.00     0.000 N
ATOM     66  HD  SGN C   4     144.228  47.611  48.9190  0.00  0.00     0.000 HD
ATOM     66   S  SGN C   4     143.246  47.710  49.4990  0.00  0.00     0.000 S
ATOM     67   O  SGN C   4     142.707  46.785  48.5700  0.00  0.00     0.000 OA
ATOM     68   O  SGN C   4     143.699  47.245  50.7650  0.00  0.00     0.000 OA
ATOM     69   O  SGN C   4     142.224  48.869  49.7280  0.00  0.00     0.000 OA
ENDBRANCH 57 66
BRANCH 60 70
ATOM     70   C  SGN C   4     147.680  52.967  49.8990  0.00  0.00     0.000 C
ATOM     71   O  SGN C   4     145.703  56.086  49.2150  0.00  0.00     0.000 OA
ATOM     72   O  SGN C   4     146.591  55.339  51.3370  0.00  0.00     0.000 OA
ATOM     73   O  SGN C   4     146.649  53.860  49.4360  0.00  0.00     0.000 O
ATOM     74   S  SGN C   4     146.763  55.385  49.9020  0.00  0.00     0.000 S
ATOM     75   O  SGN C   4     148.090  55.799  49.4930  0.00  0.00     0.000 OA
ENDBRANCH 60 70
BRANCH 56 76
ATOM     76  O4  IDS C   5     145.165  50.340  52.0320  0.00  0.00     0.000 O
BRANCH 76 80
ATOM     77  C1  IDS C   5     144.044  49.381  55.8380  0.00  0.00     0.000 C
ATOM     78  C2  IDS C   5     142.912  49.911  54.9580  0.00  0.00     0.000 C
ATOM     79  C3  IDS C   5     143.309  49.816  53.4980  0.00  0.00     0.000 C
ATOM     80  C4  IDS C   5     144.482  50.753  53.2250  0.00  0.00     0.000 C
ATOM     81  C5  IDS C   5     145.439  50.732  54.4260  0.00  0.00     0.000 C
ATOM     82  O5  IDS C   5     145.294  49.514  55.1620  0.00  0.00     0.000 O
BRANCH 78 83
ATOM     83   O  IDS C   5     141.677  49.118  55.1600  0.00  0.00     0.000 O
ATOM     84   S  IDS C   5     140.354  49.833  55.6920  0.00  0.00     0.000 S
ATOM     85   O  IDS C   5     140.756  50.610  56.8330  0.00  0.00     0.000 OA
ATOM     86   O  IDS C   5     139.891  50.641  54.5880  0.00  0.00     0.000 OA
ATOM     87   O  IDS C   5     139.439  48.767  56.0220  0.00  0.00     0.000 OA
ENDBRANCH 78 83
BRANCH 81 88
ATOM     88   C  IDS C   5     146.903  50.868  54.0480  0.00  0.00     0.000 C
ATOM     89   O  IDS C   5     147.322  51.919  53.6440  0.00  0.00     0.000 OA
ATOM     90   O  IDS C   5     147.640  49.915  54.1580  0.00  0.00     0.000 OA
ENDBRANCH 81 88
ENDBRANCH 76 80
ENDBRANCH 56 76
ENDBRANCH 55 59
ENDBRANCH 39 55
ENDBRANCH 38 42
ENDBRANCH 18 38
ENDBRANCH 17 21
ENDBRANCH 1 17
TORSDOF 18
ENDMDL
MODEL 11
REMARK VINA RESULT:      -2.0     90.444     95.672
ROOT
ATOM      1  C1  IDS C   1      99.005  46.706 130.2030  0.00  0.00     0.000 C
ATOM      2  C2  IDS C   1      97.545  46.995 129.8460  0.00  0.00     0.000 C
ATOM      3  C3  IDS C   1      97.434  48.258 129.0050  0.00  0.00     0.000 C
ATOM      4  C4  IDS C   1      98.016  49.452 129.7490  0.00  0.00     0.000 C
ATOM      5  C5  IDS C   1      99.273  49.036 130.5060  0.00  0.00     0.000 C
ATOM      6  O5  IDS C   1      99.816  47.844 129.9380  0.00  0.00     0.000 O
ATOM      7   O  IDS C   1      96.059  48.506 128.6790  0.00  0.00     0.000 O
ATOM      9  HD  IDS C   1      95.669  47.744 128.5470  0.00  0.00     0.000 HD
ENDROOT
BRANCH 2 9
ATOM      9   O  IDS C   1      96.964  45.883 129.0610  0.00  0.00     0.000 O
ATOM     10   S  IDS C   1      95.623  45.183 129.5670  0.00  0.00     0.000 S
ATOM     11   O  IDS C   1      95.316  44.163 128.5890  0.00  0.00     0.000 OA
ATOM     12   O  IDS C   1      95.937  44.637 130.8710  0.00  0.00     0.000 OA
ATOM     13   O  IDS C   1      94.627  46.230 129.6180  0.00  0.00     0.000 OA
ENDBRANCH 2 9
BRANCH 5 14
ATOM     14   C  IDS C   1     100.343  50.114 130.4770  0.00  0.00     0.000 C
ATOM     15   O  IDS C   1     100.068  51.233 130.8330  0.00  0.00     0.000 OA
ATOM     16   O  IDS C   1     101.468  49.840 130.0920  0.00  0.00     0.000 OA
ENDBRANCH 5 14
BRANCH 1 17
ATOM     17  O4  SGN C   2      99.538  45.481 130.1530  0.00  0.00     0.000 O
BRANCH 17 21
ATOM     18  C1  SGN C   2     101.981  42.462 128.5910  0.00  0.00     0.000 C
ATOM     19  C2  SGN C   2     102.284  43.895 128.1360  0.00  0.00     0.000 C
ATOM     20  C3  SGN C   2     101.617  44.895 129.0880  0.00  0.00     0.000 C
ATOM     21  C4  SGN C   2     100.129  44.586 129.2150  0.00  0.00     0.000 C
ATOM     22  C5  SGN C   2      99.958  43.142 129.6770  0.00  0.00     0.000 C
ATOM     23  O5  SGN C   2     100.593  42.249 128.7330  0.00  0.00     0.000 O
ATOM     24   O  SGN C   2     101.823  46.217 128.6210  0.00  0.00     0.000 O
ATOM     26  HD  SGN C   2     101.771  45.582 129.2070  0.00  0.00     0.000 HD
BRANCH 19 28
ATOM     26   N  SGN C   2     103.662  43.760 127.6420  0.00  0.00     0.000 N
ATOM     28  HD  SGN C   2     103.304  42.990 127.4690  0.00  0.00     0.000 HD
ATOM     28   O  SGN C   2     105.675  44.810 126.6100  0.00  0.00     0.000 OA
ATOM     29   S  SGN C   2     104.172  44.494 126.3060  0.00  0.00     0.000 S
ATOM     30   O  SGN C   2     104.111  43.554 125.2540  0.00  0.00     0.000 OA
ATOM     31   O  SGN C   2     103.464  45.723 126.1930  0.00  0.00     0.000 OA
ENDBRANCH 19 28
BRANCH 22 32
ATOM     32   C  SGN C   2      98.515  42.714 129.7790  0.00  0.00     0.000 C
ATOM     33   S  SGN C   2      97.127  40.543 129.7100  0.00  0.00     0.000 S
ATOM     34   O  SGN C   2      97.227  40.443 128.2750  0.00  0.00     0.000 OA
ATOM     35   O  SGN C   2      97.217  39.266 130.3880  0.00  0.00     0.000 OA
ATOM     36   O  SGN C   2      96.030  41.362 130.1690  0.00  0.00     0.000 OA
ATOM     37   O  SGN C   2      98.447  41.330 130.1420  0.00  0.00     0.000 O
ENDBRANCH 22 32
BRANCH 18 38
ATOM     38  O4  IDS C   3     102.522  41.737 129.5730  0.00  0.00     0.000 O
BRANCH 38 42
ATOM     39  C1  IDS C   3     103.679  40.237 132.4950  0.00  0.00     0.000 C
ATOM     40  C2  IDS C   3     104.446  41.400 131.8450  0.00  0.00     0.000 C
ATOM     41  C3  IDS C   3     104.716  41.125 130.3660  0.00  0.00     0.000 C
ATOM     42  C4  IDS C   3     103.455  40.654 129.6540  0.00  0.00     0.000 C
ATOM     43  C5  IDS C   3     102.832  39.483 130.4220  0.00  0.00     0.000 C
ATOM     44  O5  IDS C   3     102.520  39.907 131.7480  0.00  0.00     0.000 O
ATOM     45   O  IDS C   3     105.736  40.132 130.2480  0.00  0.00     0.000 O
ATOM     47  HD  IDS C   3     105.844  39.327 130.5480  0.00  0.00     0.000 HD
BRANCH 40 47
ATOM     47   O  IDS C   3     103.659  42.653 131.9280  0.00  0.00     0.000 O
ATOM     48   S  IDS C   3     103.430  43.356 133.3460  0.00  0.00     0.000 S
ATOM     49   O  IDS C   3     102.405  42.582 134.0120  0.00  0.00     0.000 OA
ATOM     50   O  IDS C   3     102.996  44.701 133.0380  0.00  0.00     0.000 OA
ATOM     51   O  IDS C   3     104.695  43.312 134.0300  0.00  0.00     0.000 OA
ENDBRANCH 40 47
BRANCH 43 52
ATOM     52   C  IDS C   3     101.586  38.942 129.7560  0.00  0.00     0.000 C
ATOM     53   O  IDS C   3     100.572  38.798 130.4000  0.00  0.00     0.000 OA
ATOM     54   O  IDS C   3     101.610  38.658 128.5860  0.00  0.00     0.000 OA
ENDBRANCH 43 52
BRANCH 39 55
ATOM     55  O4  SGN C   4     104.273  39.189 133.0670  0.00  0.00     0.000 O
BRANCH 55 59
ATOM     56  C1  SGN C   4     102.423  37.388 136.3590  0.00  0.00     0.000 C
ATOM     57  C2  SGN C   4     103.085  38.754 136.6050  0.00  0.00     0.000 C
ATOM     58  C3  SGN C   4     103.362  39.467 135.2840  0.00  0.00     0.000 C
ATOM     59  C4  SGN C   4     104.114  38.551 134.3260  0.00  0.00     0.000 C
ATOM     60  C5  SGN C   4     103.320  37.257 134.1590  0.00  0.00     0.000 C
ATOM     61  O5  SGN C   4     103.203  36.628 135.4500  0.00  0.00     0.000 O
ATOM     62   O  SGN C   4     104.104  40.654 135.5310  0.00  0.00     0.000 O
ATOM     64  HD  SGN C   4     103.648  40.529 136.2560  0.00  0.00     0.000 HD
BRANCH 57 66
ATOM     64   N  SGN C   4     103.134  38.512 138.0560  0.00  0.00     0.000 N
ATOM     66  HD  SGN C   4     103.451  38.925 138.7490  0.00  0.00     0.000 HD
ATOM     66   S  SGN C   4     102.595  39.610 139.0810  0.00  0.00     0.000 S
ATOM     67   O  SGN C   4     102.831  39.121 140.3900  0.00  0.00     0.000 OA
ATOM     68   O  SGN C   4     103.156  40.857 138.6890  0.00  0.00     0.000 OA
ATOM     69   O  SGN C   4     101.057  39.646 138.8100  0.00  0.00     0.000 OA
ENDBRANCH 57 66
BRANCH 60 70
ATOM     70   C  SGN C   4     103.965  36.263 133.2170  0.00  0.00     0.000 C
ATOM     71   O  SGN C   4     103.362  35.937 129.5240  0.00  0.00     0.000 OA
ATOM     72   O  SGN C   4     105.238  36.995 130.6240  0.00  0.00     0.000 OA
ATOM     73   O  SGN C   4     103.330  36.308 131.9240  0.00  0.00     0.000 O
ATOM     74   S  SGN C   4     104.247  35.944 130.6660  0.00  0.00     0.000 S
ATOM     75   O  SGN C   4     104.801  34.641 130.9760  0.00  0.00     0.000 OA
ENDBRANCH 60 70
BRANCH 56 76
ATOM     76  O4  IDS C   5     101.160  36.928 136.2940  0.00  0.00     0.000 O
BRANCH 76 80
ATOM     77  C1  IDS C   5      98.801  37.723 133.0590  0.00  0.00     0.000 C
ATOM     78  C2  IDS C   5      98.634  38.701 134.2210  0.00  0.00     0.000 C
ATOM     79  C3  IDS C   5      99.824  38.597 135.1560  0.00  0.00     0.000 C
ATOM     80  C4  IDS C   5      99.840  37.219 135.8100  0.00  0.00     0.000 C
ATOM     81  C5  IDS C   5      99.401  36.164 134.7840  0.00  0.00     0.000 C
ATOM     82  O5  IDS C   5      99.633  36.631 133.4520  0.00  0.00     0.000 O
BRANCH 78 83
ATOM     83   O  IDS C   5      98.550  40.095 133.7250  0.00  0.00     0.000 O
ATOM     84   S  IDS C   5      97.207  40.931 133.9340  0.00  0.00     0.000 S
ATOM     85   O  IDS C   5      96.136  40.076 133.4960  0.00  0.00     0.000 OA
ATOM     86   O  IDS C   5      97.159  41.222 135.3480  0.00  0.00     0.000 OA
ATOM     87   O  IDS C   5      97.356  42.117 133.1270  0.00  0.00     0.000 OA
ENDBRANCH 78 83
BRANCH 81 88
ATOM     88   C  IDS C   5     100.110  34.830 134.9310  0.00  0.00     0.000 C
ATOM     89   O  IDS C   5      99.815  34.091 135.8320  0.00  0.00     0.000 OA
ATOM     90   O  IDS C   5     100.968  34.517 134.1370  0.00  0.00     0.000 OA
ENDBRANCH 81 88
ENDBRANCH 76 80
ENDBRANCH 56 76
ENDBRANCH 55 59
ENDBRANCH 39 55
ENDBRANCH 38 42
ENDBRANCH 18 38
ENDBRANCH 17 21
ENDBRANCH 1 17
TORSDOF 18
ENDMDL
MODEL 12
REMARK VINA RESULT:      -2.0    163.615    169.868
ROOT
ATOM      1  C1  IDS C   1      67.666 156.031  93.8440  0.00  0.00     0.000 C
ATOM      2  C2  IDS C   1      66.744 154.939  94.3940  0.00  0.00     0.000 C
ATOM      3  C3  IDS C   1      66.804 153.692  93.5230  0.00  0.00     0.000 C
ATOM      4  C4  IDS C   1      66.398 154.018  92.0920  0.00  0.00     0.000 C
ATOM      5  C5  IDS C   1      66.963 155.375  91.6840  0.00  0.00     0.000 C
ATOM      6  O5  IDS C   1      68.071 155.717  92.5180  0.00  0.00     0.000 O
ATOM      7   O  IDS C   1      65.936 152.683  94.0600  0.00  0.00     0.000 O
ATOM      9  HD  IDS C   1      65.969 152.729  94.9240  0.00  0.00     0.000 HD
ENDROOT
BRANCH 2 9
ATOM      9   O  IDS C   1      67.151 154.546  95.7620  0.00  0.00     0.000 O
ATOM     10   S  IDS C   1      66.081 154.602  96.9440  0.00  0.00     0.000 S
ATOM     11   O  IDS C   1      66.775 154.152  98.1290  0.00  0.00     0.000 OA
ATOM     12   O  IDS C   1      65.664 155.987  97.0260  0.00  0.00     0.000 OA
ATOM     13   O  IDS C   1      65.010 153.714  96.5490  0.00  0.00     0.000 OA
ENDBRANCH 2 9
BRANCH 5 14
ATOM     14   C  IDS C   1      67.427 155.391  90.2370  0.00  0.00     0.000 C
ATOM     15   O  IDS C   1      66.726 154.905  89.3830  0.00  0.00     0.000 OA
ATOM     16   O  IDS C   1      68.502 155.891  89.9520  0.00  0.00     0.000 OA
ENDBRANCH 5 14
BRANCH 1 17
ATOM     17  O4  SGN C   2      68.454 156.778  94.6220  0.00  0.00     0.000 O
BRANCH 17 21
ATOM     18  C1  SGN C   2      72.109 158.060  96.2120  0.00  0.00     0.000 C
ATOM     19  C2  SGN C   2      72.173 157.233  94.9220  0.00  0.00     0.000 C
ATOM     20  C3  SGN C   2      70.794 157.208  94.2510  0.00  0.00     0.000 C
ATOM     21  C4  SGN C   2      69.738 156.732  95.2410  0.00  0.00     0.000 C
ATOM     22  C5  SGN C   2      69.768 157.632  96.4730  0.00  0.00     0.000 C
ATOM     23  O5  SGN C   2      71.085 157.601  97.0690  0.00  0.00     0.000 O
ATOM     24   O  SGN C   2      70.830 156.373  93.1060  0.00  0.00     0.000 O
ATOM     26  HD  SGN C   2      70.622 157.073  93.5710  0.00  0.00     0.000 HD
BRANCH 19 28
ATOM     26   N  SGN C   2      73.515 157.570  94.4260  0.00  0.00     0.000 N
ATOM     28  HD  SGN C   2      73.600 157.602  95.2870  0.00  0.00     0.000 HD
ATOM     28   O  SGN C   2      75.288 157.281  92.6950  0.00  0.00     0.000 OA
ATOM     29   S  SGN C   2      74.490 156.471  93.7710  0.00  0.00     0.000 S
ATOM     30   O  SGN C   2      75.388 156.047  94.7760  0.00  0.00     0.000 OA
ATOM     31   O  SGN C   2      73.676 155.513  93.1070  0.00  0.00     0.000 OA
ENDBRANCH 19 28
BRANCH 22 32
ATOM     32   C  SGN C   2      68.794 157.210  97.5460  0.00  0.00     0.000 C
ATOM     33   S  SGN C   2      68.502 157.437 100.0960  0.00  0.00     0.000 S
ATOM     34   O  SGN C   2      69.495 156.428 100.3690  0.00  0.00     0.000 OA
ATOM     35   O  SGN C   2      68.538 158.551 101.0200  0.00  0.00     0.000 OA
ATOM     36   O  SGN C   2      67.175 156.913  99.8790  0.00  0.00     0.000 OA
ATOM     37   O  SGN C   2      68.945 158.055  98.6930  0.00  0.00     0.000 O
ENDBRANCH 22 32
BRANCH 18 38
ATOM     38  O4  IDS C   3      72.109 159.384  96.3870  0.00  0.00     0.000 O
BRANCH 38 42
ATOM     39  C1  IDS C   3      71.587 162.822  96.5690  0.00  0.00     0.000 C
ATOM     40  C2  IDS C   3      72.191 162.178  95.3110  0.00  0.00     0.000 C
ATOM     41  C3  IDS C   3      73.388 161.295  95.6620  0.00  0.00     0.000 C
ATOM     42  C4  IDS C   3      73.062 160.361  96.8190  0.00  0.00     0.000 C
ATOM     43  C5  IDS C   3      72.491 161.166  97.9920  0.00  0.00     0.000 C
ATOM     44  O5  IDS C   3      71.314 161.847  97.5620  0.00  0.00     0.000 O
ATOM     45   O  IDS C   3      74.500 162.122  96.0080  0.00  0.00     0.000 O
ATOM     47  HD  IDS C   3      74.637 162.755  96.5830  0.00  0.00     0.000 HD
BRANCH 40 47
ATOM     47   O  IDS C   3      71.189 161.321  94.6330  0.00  0.00     0.000 O
ATOM     48   S  IDS C   3      69.917 161.987  93.9290  0.00  0.00     0.000 S
ATOM     49   O  IDS C   3      69.006 162.332  94.9990  0.00  0.00     0.000 OA
ATOM     50   O  IDS C   3      69.385 160.963  93.0570  0.00  0.00     0.000 OA
ATOM     51   O  IDS C   3      70.403 163.140  93.2180  0.00  0.00     0.000 OA
ENDBRANCH 40 47
BRANCH 43 52
ATOM     52   C  IDS C   3      72.169 160.305  99.1930  0.00  0.00     0.000 C
ATOM     53   O  IDS C   3      73.006 159.553  99.6380  0.00  0.00     0.000 OA
ATOM     54   O  IDS C   3      71.079 160.372  99.7010  0.00  0.00     0.000 OA
ENDBRANCH 43 52
BRANCH 39 55
ATOM     55  O4  SGN C   4      71.979 163.999  97.0570  0.00  0.00     0.000 O
BRANCH 55 59
ATOM     56  C1  SGN C   4      69.154 166.418  98.9730  0.00  0.00     0.000 C
ATOM     57  C2  SGN C   4      69.052 166.323  97.4410  0.00  0.00     0.000 C
ATOM     58  C3  SGN C   4      69.855 165.135  96.9170  0.00  0.00     0.000 C
ATOM     59  C4  SGN C   4      71.276 165.163  97.4670  0.00  0.00     0.000 C
ATOM     60  C5  SGN C   4      71.212 165.223  98.9920  0.00  0.00     0.000 C
ATOM     61  O5  SGN C   4      70.516 166.427  99.3690  0.00  0.00     0.000 O
ATOM     62   O  SGN C   4      69.866 165.158  95.4960  0.00  0.00     0.000 O
ATOM     64  HD  SGN C   4      69.125 165.549  95.7130  0.00  0.00     0.000 HD
BRANCH 57 66
ATOM     64   N  SGN C   4      68.255 167.559  97.3810  0.00  0.00     0.000 N
ATOM     66  HD  SGN C   4      67.922 168.059  96.7580  0.00  0.00     0.000 HD
ATOM     66   S  SGN C   4      66.890 167.605  96.5570  0.00  0.00     0.000 S
ATOM     67   O  SGN C   4      66.390 168.929  96.6350  0.00  0.00     0.000 OA
ATOM     68   O  SGN C   4      67.154 167.032  95.2820  0.00  0.00     0.000 OA
ATOM     69   O  SGN C   4      65.944 166.647  97.3500  0.00  0.00     0.000 OA
ENDBRANCH 57 66
BRANCH 60 70
ATOM     70   C  SGN C   4      72.570 165.245  99.6600  0.00  0.00     0.000 C
ATOM     71   O  SGN C   4      74.536 162.284 100.8740  0.00  0.00     0.000 OA
ATOM     72   O  SGN C   4      74.871 163.542  98.8350  0.00  0.00     0.000 OA
ATOM     73   O  SGN C   4      72.904 163.939 100.1680  0.00  0.00     0.000 O
ATOM     74   S  SGN C   4      74.459 163.571 100.2200  0.00  0.00     0.000 S
ATOM     75   O  SGN C   4      75.069 164.643 100.9810  0.00  0.00     0.000 OA
ENDBRANCH 60 70
BRANCH 56 76
ATOM     76  O4  IDS C   5      68.431 165.967 100.0150  0.00  0.00     0.000 O
BRANCH 76 80
ATOM     77  C1  IDS C   5      68.478 162.025 101.0730  0.00  0.00     0.000 C
ATOM     78  C2  IDS C   5      67.337 162.416 100.1350  0.00  0.00     0.000 C
ATOM     79  C3  IDS C   5      67.652 163.740  99.4660  0.00  0.00     0.000 C
ATOM     80  C4  IDS C   5      67.686 164.847 100.5160  0.00  0.00     0.000 C
ATOM     81  C5  IDS C   5      68.328 164.308 101.8020  0.00  0.00     0.000 C
ATOM     82  O5  IDS C   5      69.175 163.192 101.5120  0.00  0.00     0.000 O
BRANCH 78 83
ATOM     83   O  IDS C   5      67.152 161.392  99.0800  0.00  0.00     0.000 O
ATOM     84   S  IDS C   5      65.805 160.538  99.0330  0.00  0.00     0.000 S
ATOM     85   O  IDS C   5      65.592 160.060 100.3720  0.00  0.00     0.000 OA
ATOM     86   O  IDS C   5      64.786 161.462  98.5910  0.00  0.00     0.000 OA
ATOM     87   O  IDS C   5      66.046 159.481  98.0810  0.00  0.00     0.000 OA
ENDBRANCH 78 83
BRANCH 81 88
ATOM     88   C  IDS C   5      69.163 165.332 102.5500  0.00  0.00     0.000 C
ATOM     89   O  IDS C   5      70.362 165.268 102.5150  0.00  0.00     0.000 OA
ATOM     90   O  IDS C   5      68.614 166.209 103.1760  0.00  0.00     0.000 OA
ENDBRANCH 81 88
ENDBRANCH 76 80
ENDBRANCH 56 76
ENDBRANCH 55 59
ENDBRANCH 39 55
ENDBRANCH 38 42
ENDBRANCH 18 38
ENDBRANCH 17 21
ENDBRANCH 1 17
TORSDOF 18
ENDMDL
MODEL 13
REMARK VINA RESULT:      -2.0    107.419    115.157
ROOT
ATOM      1  C1  IDS C   1     112.134  53.730 159.6410  0.00  0.00     0.000 C
ATOM      2  C2  IDS C   1     111.771  52.535 160.5280  0.00  0.00     0.000 C
ATOM      3  C3  IDS C   1     112.295  52.734 161.9420  0.00  0.00     0.000 C
ATOM      4  C4  IDS C   1     113.807  52.913 161.9350  0.00  0.00     0.000 C
ATOM      5  C5  IDS C   1     114.228  53.762 160.7400  0.00  0.00     0.000 C
ATOM      6  O5  IDS C   1     113.121  54.534 160.2730  0.00  0.00     0.000 O
ATOM      7   O  IDS C   1     111.939  51.606 162.7540  0.00  0.00     0.000 O
ATOM      9  HD  IDS C   1     111.153  51.334 162.5120  0.00  0.00     0.000 HD
ENDROOT
BRANCH 2 9
ATOM      9   O  IDS C   1     110.302  52.371 160.6140  0.00  0.00     0.000 O
ATOM     10   S  IDS C   1     109.647  50.968 160.2330  0.00  0.00     0.000 S
ATOM     11   O  IDS C   1     108.224  51.128 160.4330  0.00  0.00     0.000 OA
ATOM     12   O  IDS C   1     110.000  50.738 158.8460  0.00  0.00     0.000 OA
ATOM     13   O  IDS C   1     110.235  50.000 161.1320  0.00  0.00     0.000 OA
ENDBRANCH 2 9
BRANCH 5 14
ATOM     14   C  IDS C   1     115.366  54.709 161.0820  0.00  0.00     0.000 C
ATOM     15   O  IDS C   1     116.356  54.277 161.6190  0.00  0.00     0.000 OA
ATOM     16   O  IDS C   1     115.268  55.894 160.8140  0.00  0.00     0.000 OA
ENDBRANCH 5 14
BRANCH 1 17
ATOM     17  O4  SGN C   2     111.278  54.281 158.7760  0.00  0.00     0.000 O
BRANCH 17 21
ATOM     18  C1  SGN C   2     108.704  57.261 157.3550  0.00  0.00     0.000 C
ATOM     19  C2  SGN C   2     109.685  57.671 158.4600  0.00  0.00     0.000 C
ATOM     20  C3  SGN C   2     110.810  56.634 158.5670  0.00  0.00     0.000 C
ATOM     21  C4  SGN C   2     110.223  55.239 158.7450  0.00  0.00     0.000 C
ATOM     22  C5  SGN C   2     109.272  54.947 157.5880  0.00  0.00     0.000 C
ATOM     23  O5  SGN C   2     108.228  55.946 157.5490  0.00  0.00     0.000 O
ATOM     24   O  SGN C   2     111.670  56.965 159.6450  0.00  0.00     0.000 O
ATOM     26  HD  SGN C   2     111.464  56.700 158.8460  0.00  0.00     0.000 HD
BRANCH 19 28
ATOM     26   N  SGN C   2     109.691  59.134 158.3180  0.00  0.00     0.000 N
ATOM     28  HD  SGN C   2     108.886  58.908 158.0930  0.00  0.00     0.000 HD
ATOM     28   O  SGN C   2     110.527  61.353 159.0920  0.00  0.00     0.000 OA
ATOM     29   S  SGN C   2     109.699  60.120 159.5880  0.00  0.00     0.000 S
ATOM     30   O  SGN C   2     108.367  60.533 159.8150  0.00  0.00     0.000 OA
ATOM     31   O  SGN C   2     110.422  59.477 160.6300  0.00  0.00     0.000 OA
ENDBRANCH 19 28
BRANCH 22 32
ATOM     32   C  SGN C   2     108.589  53.606 157.6980  0.00  0.00     0.000 C
ATOM     33   S  SGN C   2     106.440  52.452 156.8670  0.00  0.00     0.000 S
ATOM     34   O  SGN C   2     105.617  53.136 157.8320  0.00  0.00     0.000 OA
ATOM     35   O  SGN C   2     105.812  52.302 155.5710  0.00  0.00     0.000 OA
ATOM     36   O  SGN C   2     107.037  51.233 157.3610  0.00  0.00     0.000 OA
ATOM     37   O  SGN C   2     107.663  53.447 156.6170  0.00  0.00     0.000 O
ENDBRANCH 22 32
BRANCH 18 38
ATOM     38  O4  IDS C   3     108.803  57.378 156.0290  0.00  0.00     0.000 O
BRANCH 38 42
ATOM     39  C1  IDS C   3     109.496  57.287 152.6170  0.00  0.00     0.000 C
ATOM     40  C2  IDS C   3     110.284  58.209 153.5610  0.00  0.00     0.000 C
ATOM     41  C3  IDS C   3     109.345  59.073 154.4010  0.00  0.00     0.000 C
ATOM     42  C4  IDS C   3     108.240  58.235 155.0290  0.00  0.00     0.000 C
ATOM     43  C5  IDS C   3     107.547  57.394 153.9490  0.00  0.00     0.000 C
ATOM     44  O5  IDS C   3     108.513  56.550 153.3250  0.00  0.00     0.000 O
ATOM     45   O  IDS C   3     108.770  60.088 153.5760  0.00  0.00     0.000 O
ATOM     47  HD  IDS C   3     108.320  60.093 152.8360  0.00  0.00     0.000 HD
BRANCH 40 47
ATOM     47   O  IDS C   3     111.112  57.411 154.4970  0.00  0.00     0.000 O
ATOM     48   S  IDS C   3     112.371  56.594 153.9470  0.00  0.00     0.000 S
ATOM     49   O  IDS C   3     111.830  55.415 153.3050  0.00  0.00     0.000 OA
ATOM     50   O  IDS C   3     113.158  56.274 155.1180  0.00  0.00     0.000 OA
ATOM     51   O  IDS C   3     113.052  57.466 153.0280  0.00  0.00     0.000 OA
ENDBRANCH 40 47
BRANCH 43 52
ATOM     52   C  IDS C   3     106.416  56.554 154.4970  0.00  0.00     0.000 C
ATOM     53   O  IDS C   3     106.368  55.371 154.2480  0.00  0.00     0.000 OA
ATOM     54   O  IDS C   3     105.566  57.067 155.1800  0.00  0.00     0.000 OA
ENDBRANCH 43 52
BRANCH 39 55
ATOM     55  O4  SGN C   4     109.132  57.631 151.3820  0.00  0.00     0.000 O
BRANCH 55 59
ATOM     56  C1  SGN C   4     108.957  54.661 148.4410  0.00  0.00     0.000 C
ATOM     57  C2  SGN C   4     110.360  55.111 148.8800  0.00  0.00     0.000 C
ATOM     58  C3  SGN C   4     110.295  55.880 150.1970  0.00  0.00     0.000 C
ATOM     59  C4  SGN C   4     109.257  56.993 150.1190  0.00  0.00     0.000 C
ATOM     60  C5  SGN C   4     107.917  56.387 149.7060  0.00  0.00     0.000 C
ATOM     61  O5  SGN C   4     108.077  55.773 148.4120  0.00  0.00     0.000 O
ATOM     62   O  SGN C   4     111.578  56.410 150.5030  0.00  0.00     0.000 O
ATOM     64  HD  SGN C   4     111.742  55.701 150.0340  0.00  0.00     0.000 HD
BRANCH 57 66
ATOM     64   N  SGN C   4     110.961  54.569 147.6510  0.00  0.00     0.000 N
ATOM     66  HD  SGN C   4     111.749  54.557 147.2920  0.00  0.00     0.000 HD
ATOM     66   S  SGN C   4     112.238  53.615 147.7240  0.00  0.00     0.000 S
ATOM     67   O  SGN C   4     112.617  53.310 146.3920  0.00  0.00     0.000 OA
ATOM     68   O  SGN C   4     113.176  54.241 148.5910  0.00  0.00     0.000 OA
ATOM     69   O  SGN C   4     111.698  52.324 148.4180  0.00  0.00     0.000 OA
ENDBRANCH 57 66
BRANCH 60 70
ATOM     70   C  SGN C   4     106.796  57.398 149.6020  0.00  0.00     0.000 C
ATOM     71   O  SGN C   4     104.385  58.380 152.3100  0.00  0.00     0.000 OA
ATOM     72   O  SGN C   4     106.336  59.597 151.5610  0.00  0.00     0.000 OA
ATOM     73   O  SGN C   4     105.962  57.350 150.7760  0.00  0.00     0.000 O
ATOM     74   S  SGN C   4     105.248  58.716 151.2010  0.00  0.00     0.000 S
ATOM     75   O  SGN C   4     104.528  59.141 150.0180  0.00  0.00     0.000 OA
ENDBRANCH 60 70
BRANCH 56 76
ATOM     76  O4  IDS C   5     108.208  53.554 148.6010  0.00  0.00     0.000 O
BRANCH 76 80
ATOM     77  C1  IDS C   5     106.453  52.705 152.1860  0.00  0.00     0.000 C
ATOM     78  C2  IDS C   5     107.812  52.039 151.9720  0.00  0.00     0.000 C
ATOM     79  C3  IDS C   5     108.558  52.742 150.8550  0.00  0.00     0.000 C
ATOM     80  C4  IDS C   5     107.816  52.540 149.5380  0.00  0.00     0.000 C
ATOM     81  C5  IDS C   5     106.303  52.601 149.7920  0.00  0.00     0.000 C
ATOM     82  O5  IDS C   5     106.023  53.342 150.9830  0.00  0.00     0.000 O
BRANCH 78 83
ATOM     83   O  IDS C   5     108.632  52.114 153.2040  0.00  0.00     0.000 O
ATOM     84   S  IDS C   5     109.042  50.774 153.9660  0.00  0.00     0.000 S
ATOM     85   O  IDS C   5     107.830  50.010 154.1020  0.00  0.00     0.000 OA
ATOM     86   O  IDS C   5     110.020  50.139 153.1150  0.00  0.00     0.000 OA
ATOM     87   O  IDS C   5     109.594  51.197 155.2300  0.00  0.00     0.000 OA
ENDBRANCH 78 83
BRANCH 81 88
ATOM     88   C  IDS C   5     105.513  53.236 148.6620  0.00  0.00     0.000 C
ATOM     89   O  IDS C   5     105.328  52.624 147.6440  0.00  0.00     0.000 OA
ATOM     90   O  IDS C   5     105.074  54.355 148.7940  0.00  0.00     0.000 OA
ENDBRANCH 81 88
ENDBRANCH 76 80
ENDBRANCH 56 76
ENDBRANCH 55 59
ENDBRANCH 39 55
ENDBRANCH 38 42
ENDBRANCH 18 38
ENDBRANCH 17 21
ENDBRANCH 1 17
TORSDOF 18
ENDMDL
MODEL 14
REMARK VINA RESULT:      -2.0    153.389    157.314
ROOT
ATOM      1  C1  IDS C   1     126.584 157.623 127.8680  0.00  0.00     0.000 C
ATOM      2  C2  IDS C   1     125.398 157.275 126.9630  0.00  0.00     0.000 C
ATOM      3  C3  IDS C   1     125.165 158.371 125.9340  0.00  0.00     0.000 C
ATOM      4  C4  IDS C   1     124.899 159.704 126.6190  0.00  0.00     0.000 C
ATOM      5  C5  IDS C   1     125.802 159.854 127.8390  0.00  0.00     0.000 C
ATOM      6  O5  IDS C   1     126.934 158.993 127.7210  0.00  0.00     0.000 O
ATOM      7   O  IDS C   1     124.054 158.021 125.0960  0.00  0.00     0.000 O
ATOM      9  HD  IDS C   1     124.071 157.165 124.9650  0.00  0.00     0.000 HD
ENDROOT
BRANCH 2 9
ATOM      9   O  IDS C   1     125.650 156.016 126.2250  0.00  0.00     0.000 O
ATOM     10   S  IDS C   1     124.593 154.826 126.3230  0.00  0.00     0.000 S
ATOM     11   O  IDS C   1     125.115 153.764 125.4920  0.00  0.00     0.000 OA
ATOM     12   O  IDS C   1     124.536 154.470 127.7250  0.00  0.00     0.000 OA
ATOM     13   O  IDS C   1     123.346 155.365 125.8270  0.00  0.00     0.000 OA
ENDBRANCH 2 9
BRANCH 5 14
ATOM     14   C  IDS C   1     126.298 161.280 128.0130  0.00  0.00     0.000 C
ATOM     15   O  IDS C   1     125.948 162.130 127.2310  0.00  0.00     0.000 OA
ATOM     16   O  IDS C   1     127.046 161.552 128.9370  0.00  0.00     0.000 OA
ENDBRANCH 5 14
BRANCH 1 17
ATOM     17  O4  SGN C   2     127.512 156.731 128.2250  0.00  0.00     0.000 O
BRANCH 17 21
ATOM     18  C1  SGN C   2     131.318 154.987 128.1920  0.00  0.00     0.000 C
ATOM     19  C2  SGN C   2     131.211 156.412 127.6340  0.00  0.00     0.000 C
ATOM     20  C3  SGN C   2     129.896 157.052 128.0950  0.00  0.00     0.000 C
ATOM     21  C4  SGN C   2     128.719 156.154 127.7320  0.00  0.00     0.000 C
ATOM     22  C5  SGN C   2     128.938 154.774 128.3450  0.00  0.00     0.000 C
ATOM     23  O5  SGN C   2     130.182 154.216 127.8620  0.00  0.00     0.000 O
ATOM     24   O  SGN C   2     129.754 158.336 127.5100  0.00  0.00     0.000 O
ATOM     26  HD  SGN C   2     129.717 157.742 128.1400  0.00  0.00     0.000 HD
BRANCH 19 28
ATOM     26   N  SGN C   2     132.610 156.856 127.6970  0.00  0.00     0.000 N
ATOM     28  HD  SGN C   2     132.670 156.006 127.5420  0.00  0.00     0.000 HD
ATOM     28   O  SGN C   2     134.306 158.639 127.2900  0.00  0.00     0.000 OA
ATOM     29   S  SGN C   2     133.289 157.725 126.5270  0.00  0.00     0.000 S
ATOM     30   O  SGN C   2     134.012 156.835 125.7020  0.00  0.00     0.000 OA
ATOM     31   O  SGN C   2     132.278 158.547 125.9580  0.00  0.00     0.000 OA
ENDBRANCH 19 28
BRANCH 22 32
ATOM     32   C  SGN C   2     127.853 153.785 127.9970  0.00  0.00     0.000 C
ATOM     33   S  SGN C   2     127.530 151.232 127.8520  0.00  0.00     0.000 S
ATOM     34   O  SGN C   2     128.241 151.145 126.6000  0.00  0.00     0.000 OA
ATOM     35   O  SGN C   2     127.798 150.129 128.7500  0.00  0.00     0.000 OA
ATOM     36   O  SGN C   2     126.124 151.530 127.7110  0.00  0.00     0.000 OA
ATOM     37   O  SGN C   2     128.160 152.510 128.5730  0.00  0.00     0.000 O
ENDBRANCH 22 32
BRANCH 18 38
ATOM     38  O4  IDS C   3     131.654 154.563 129.4130  0.00  0.00     0.000 O
BRANCH 38 42
ATOM     39  C1  IDS C   3     132.027 153.714 132.7700  0.00  0.00     0.000 C
ATOM     40  C2  IDS C   3     132.484 155.084 132.2430  0.00  0.00     0.000 C
ATOM     41  C3  IDS C   3     133.403 154.932 131.0310  0.00  0.00     0.000 C
ATOM     42  C4  IDS C   3     132.812 153.970 130.0100  0.00  0.00     0.000 C
ATOM     43  C5  IDS C   3     132.431 152.653 130.6970  0.00  0.00     0.000 C
ATOM     44  O5  IDS C   3     131.482 152.922 131.7280  0.00  0.00     0.000 O
ATOM     45   O  IDS C   3     134.679 154.456 131.4610  0.00  0.00     0.000 O
ATOM     47  HD  IDS C   3     134.956 153.773 131.9160  0.00  0.00     0.000 HD
BRANCH 40 47
ATOM     47   O  IDS C   3     131.318 155.894 131.8190  0.00  0.00     0.000 O
ATOM     48   S  IDS C   3     130.299 156.457 132.9160  0.00  0.00     0.000 S
ATOM     49   O  IDS C   3     129.471 155.334 133.3020  0.00  0.00     0.000 OA
ATOM     50   O  IDS C   3     129.547 157.492 132.2410  0.00  0.00     0.000 OA
ATOM     51   O  IDS C   3     131.102 156.956 134.0000  0.00  0.00     0.000 OA
ENDBRANCH 40 47
BRANCH 43 52
ATOM     52   C  IDS C   3     131.861 151.634 129.7350  0.00  0.00     0.000 C
ATOM     53   O  IDS C   3     132.458 151.364 128.7190  0.00  0.00     0.000 OA
ATOM     54   O  IDS C   3     130.813 151.095 129.9880  0.00  0.00     0.000 OA
ENDBRANCH 43 52
BRANCH 39 55
ATOM     55  O4  SGN C   4     132.694 153.017 133.6900  0.00  0.00     0.000 O
BRANCH 55 59
ATOM     56  C1  SGN C   4     130.525 150.659 136.3820  0.00  0.00     0.000 C
ATOM     57  C2  SGN C   4     130.465 152.181 136.5970  0.00  0.00     0.000 C
ATOM     58  C3  SGN C   4     130.949 152.924 135.3550  0.00  0.00     0.000 C
ATOM     59  C4  SGN C   4     132.304 152.391 134.9040  0.00  0.00     0.000 C
ATOM     60  C5  SGN C   4     132.196 150.881 134.7010  0.00  0.00     0.000 C
ATOM     61  O5  SGN C   4     131.825 150.281 135.9580  0.00  0.00     0.000 O
ATOM     62   O  SGN C   4     131.024 154.316 135.6310  0.00  0.00     0.000 O
ATOM     64  HD  SGN C   4     130.402 154.023 136.1580  0.00  0.00     0.000 HD
BRANCH 57 66
ATOM     64   N  SGN C   4     130.026 152.008 137.9920  0.00  0.00     0.000 N
ATOM     66  HD  SGN C   4     129.860 152.528 138.6640  0.00  0.00     0.000 HD
ATOM     66   S  SGN C   4     128.752 152.793 138.5450  0.00  0.00     0.000 S
ATOM     67   O  SGN C   4     128.619 152.473 139.9190  0.00  0.00     0.000 OA
ATOM     68   O  SGN C   4     128.899 154.153 138.1550  0.00  0.00     0.000 OA
ATOM     69   O  SGN C   4     127.559 152.171 137.7500  0.00  0.00     0.000 OA
ENDBRANCH 57 66
BRANCH 60 70
ATOM     70   C  SGN C   4     133.483 150.233 134.2420  0.00  0.00     0.000 C
ATOM     71   O  SGN C   4     134.579 149.658 130.6950  0.00  0.00     0.000 OA
ATOM     72   O  SGN C   4     135.312 151.402 132.2000  0.00  0.00     0.000 OA
ATOM     73   O  SGN C   4     133.453 150.002 132.8200  0.00  0.00     0.000 O
ATOM     74   S  SGN C   4     134.860 150.037 132.0610  0.00  0.00     0.000 S
ATOM     75   O  SGN C   4     135.686 149.080 132.7680  0.00  0.00     0.000 OA
ENDBRANCH 60 70
BRANCH 56 76
ATOM     76  O4  IDS C   5     129.667 149.713 135.9580  0.00  0.00     0.000 O
BRANCH 76 80
ATOM     77  C1  IDS C   5     128.698 149.396 132.0060  0.00  0.00     0.000 C
ATOM     78  C2  IDS C   5     127.720 150.229 132.8340  0.00  0.00     0.000 C
ATOM     79  C3  IDS C   5     128.375 150.648 134.1350  0.00  0.00     0.000 C
ATOM     80  C4  IDS C   5     128.652 149.414 134.9880  0.00  0.00     0.000 C
ATOM     81  C5  IDS C   5     129.100 148.258 134.0820  0.00  0.00     0.000 C
ATOM     82  O5  IDS C   5     129.649 148.762 132.8610  0.00  0.00     0.000 O
BRANCH 78 83
ATOM     83   O  IDS C   5     127.317 151.450 132.0980  0.00  0.00     0.000 O
ATOM     84   S  IDS C   5     125.789 151.664 131.6940  0.00  0.00     0.000 S
ATOM     85   O  IDS C   5     125.365 150.433 131.0830  0.00  0.00     0.000 OA
ATOM     86   O  IDS C   5     125.106 151.947 132.9340  0.00  0.00     0.000 OA
ATOM     87   O  IDS C   5     125.778 152.784 130.7850  0.00  0.00     0.000 OA
ENDBRANCH 78 83
BRANCH 81 88
ATOM     88   C  IDS C   5     130.140 147.349 134.7110  0.00  0.00     0.000 C
ATOM     89   O  IDS C   5     129.816 146.572 135.5680  0.00  0.00     0.000 OA
ATOM     90   O  IDS C   5     131.291 147.412 134.3430  0.00  0.00     0.000 OA
ENDBRANCH 81 88
ENDBRANCH 76 80
ENDBRANCH 56 76
ENDBRANCH 55 59
ENDBRANCH 39 55
ENDBRANCH 38 42
ENDBRANCH 18 38
ENDBRANCH 17 21
ENDBRANCH 1 17
TORSDOF 18
ENDMDL
MODEL 15
REMARK VINA RESULT:      -2.0    166.175    173.074
ROOT
ATOM      1  C1  IDS C   1      33.410 150.804  42.7640  0.00  0.00     0.000 C
ATOM      2  C2  IDS C   1      32.241 151.260  41.8870  0.00  0.00     0.000 C
ATOM      3  C3  IDS C   1      32.257 152.771  41.7070  0.00  0.00     0.000 C
ATOM      4  C4  IDS C   1      32.177 153.473  43.0560  0.00  0.00     0.000 C
ATOM      5  C5  IDS C   1      33.017 152.724  44.0860  0.00  0.00     0.000 C
ATOM      6  O5  IDS C   1      33.994 151.916  43.4300  0.00  0.00     0.000 O
ATOM      7   O  IDS C   1      31.156 153.173  40.8790  0.00  0.00     0.000 O
ATOM      9  HD  IDS C   1      31.038 152.567  40.2720  0.00  0.00     0.000 HD
ENDROOT
BRANCH 2 9
ATOM      9   O  IDS C   1      32.323 150.649  40.5400  0.00  0.00     0.000 O
ATOM     10   S  IDS C   1      31.078 149.828  39.9750  0.00  0.00     0.000 S
ATOM     11   O  IDS C   1      31.464 149.382  38.6550  0.00  0.00     0.000 OA
ATOM     12   O  IDS C   1      30.878 148.735  40.9040  0.00  0.00     0.000 OA
ATOM     13   O  IDS C   1      29.970 150.758  39.9510  0.00  0.00     0.000 OA
ENDBRANCH 2 9
BRANCH 5 14
ATOM     14   C  IDS C   1      33.733 153.668  45.0370  0.00  0.00     0.000 C
ATOM     15   O  IDS C   1      33.509 154.853  44.9780  0.00  0.00     0.000 OA
ATOM     16   O  IDS C   1      34.528 153.223  45.8470  0.00  0.00     0.000 OA
ENDBRANCH 5 14
BRANCH 1 17
ATOM     17  O4  SGN C   2      34.153 149.729  42.4850  0.00  0.00     0.000 O
BRANCH 17 21
ATOM     18  C1  SGN C   2      37.605 147.711  41.2460  0.00  0.00     0.000 C
ATOM     19  C2  SGN C   2      37.774 149.185  41.6350  0.00  0.00     0.000 C
ATOM     20  C3  SGN C   2      36.559 149.649  42.4490  0.00  0.00     0.000 C
ATOM     21  C4  SGN C   2      35.273 149.352  41.6880  0.00  0.00     0.000 C
ATOM     22  C5  SGN C   2      35.218 147.862  41.3640  0.00  0.00     0.000 C
ATOM     23  O5  SGN C   2      36.378 147.489  40.5840  0.00  0.00     0.000 O
ATOM     24   O  SGN C   2      36.672 151.033  42.7360  0.00  0.00     0.000 O
ATOM     26  HD  SGN C   2      36.497 150.200  42.8990  0.00  0.00     0.000 HD
BRANCH 19 28
ATOM     26   N  SGN C   2      39.221 149.259  41.8780  0.00  0.00     0.000 N
ATOM     28  HD  SGN C   2      39.147 148.665  41.2510  0.00  0.00     0.000 HD
ATOM     28   O  SGN C   2      41.215 150.619  42.5080  0.00  0.00     0.000 OA
ATOM     29   S  SGN C   2      40.108 150.515  41.4060  0.00  0.00     0.000 S
ATOM     30   O  SGN C   2      40.720 150.167  40.1810  0.00  0.00     0.000 OA
ATOM     31   O  SGN C   2      39.287 151.674  41.4770  0.00  0.00     0.000 OA
ENDBRANCH 19 28
BRANCH 22 32
ATOM     32   C  SGN C   2      34.006 147.469  40.5560  0.00  0.00     0.000 C
ATOM     33   S  SGN C   2      33.280 145.606  38.9290  0.00  0.00     0.000 S
ATOM     34   O  SGN C   2      34.029 146.175  37.8360  0.00  0.00     0.000 OA
ATOM     35   O  SGN C   2      33.321 144.159  38.9700  0.00  0.00     0.000 OA
ATOM     36   O  SGN C   2      31.950 146.149  39.0780  0.00  0.00     0.000 OA
ATOM     37   O  SGN C   2      34.072 146.075  40.2340  0.00  0.00     0.000 O
ENDBRANCH 22 32
BRANCH 18 38
ATOM     38  O4  IDS C   3      37.789 146.603  41.9670  0.00  0.00     0.000 O
BRANCH 38 42
ATOM     39  C1  IDS C   3      37.805 143.898  44.1610  0.00  0.00     0.000 C
ATOM     40  C2  IDS C   3      38.521 145.211  44.5170  0.00  0.00     0.000 C
ATOM     41  C3  IDS C   3      39.473 145.641  43.4010  0.00  0.00     0.000 C
ATOM     42  C4  IDS C   3      38.790 145.582  42.0420  0.00  0.00     0.000 C
ATOM     43  C5  IDS C   3      38.148 144.204  41.8430  0.00  0.00     0.000 C
ATOM     44  O5  IDS C   3      37.198 143.977  42.8820  0.00  0.00     0.000 O
ATOM     45   O  IDS C   3      40.620 144.790  43.4030  0.00  0.00     0.000 O
ATOM     47  HD  IDS C   3      40.747 143.935  43.3550  0.00  0.00     0.000 HD
BRANCH 40 47
ATOM     47   O  IDS C   3      37.538 146.303  44.7100  0.00  0.00     0.000 O
ATOM     48   S  IDS C   3      36.562 146.280  45.9760  0.00  0.00     0.000 S
ATOM     49   O  IDS C   3      35.533 145.311  45.6670  0.00  0.00     0.000 OA
ATOM     50   O  IDS C   3      36.041 147.626  46.0800  0.00  0.00     0.000 OA
ATOM     51   O  IDS C   3      37.368 145.897  47.1050  0.00  0.00     0.000 OA
ENDBRANCH 40 47
BRANCH 43 52
ATOM     52   C  IDS C   3      37.473 144.061  40.4970  0.00  0.00     0.000 C
ATOM     53   O  IDS C   3      36.334 143.659  40.4330  0.00  0.00     0.000 OA
ATOM     54   O  IDS C   3      38.074 144.349  39.4930  0.00  0.00     0.000 OA
ENDBRANCH 43 52
BRANCH 39 55
ATOM     55  O4  SGN C   4      38.284 142.690  44.4600  0.00  0.00     0.000 O
BRANCH 55 59
ATOM     56  C1  SGN C   4      35.580 139.622  45.3420  0.00  0.00     0.000 C
ATOM     57  C2  SGN C   4      35.765 140.706  46.4180  0.00  0.00     0.000 C
ATOM     58  C3  SGN C   4      36.447 141.940  45.8320  0.00  0.00     0.000 C
ATOM     59  C4  SGN C   4      37.718 141.549  45.0870  0.00  0.00     0.000 C
ATOM     60  C5  SGN C   4      37.368 140.497  44.0370  0.00  0.00     0.000 C
ATOM     61  O5  SGN C   4      36.821 139.347  44.7120  0.00  0.00     0.000 O
ATOM     62   O  SGN C   4      36.739 142.861  46.8740  0.00  0.00     0.000 O
ATOM     64  HD  SGN C   4      36.045 142.428  47.1570  0.00  0.00     0.000 HD
BRANCH 57 66
ATOM     64   N  SGN C   4      35.214 139.823  47.4580  0.00  0.00     0.000 N
ATOM     66  HD  SGN C   4      35.096 139.864  48.3150  0.00  0.00     0.000 HD
ATOM     66   S  SGN C   4      34.060 140.338  48.4330  0.00  0.00     0.000 S
ATOM     67   O  SGN C   4      33.786 139.297  49.3550  0.00  0.00     0.000 OA
ATOM     68   O  SGN C   4      34.464 141.613  48.9180  0.00  0.00     0.000 OA
ATOM     69   O  SGN C   4      32.833 140.529  47.4860  0.00  0.00     0.000 OA
ENDBRANCH 57 66
BRANCH 60 70
ATOM     70   C  SGN C   4      38.553 140.032  43.2190  0.00  0.00     0.000 C
ATOM     71   O  SGN C   4      39.741 141.461  39.9550  0.00  0.00     0.000 OA
ATOM     72   O  SGN C   4      40.668 141.842  42.1560  0.00  0.00     0.000 OA
ATOM     73   O  SGN C   4      38.567 140.684  41.9340  0.00  0.00     0.000 O
ATOM     74   S  SGN C   4      40.002 140.917  41.2680  0.00  0.00     0.000 S
ATOM     75   O  SGN C   4      40.614 139.604  41.2380  0.00  0.00     0.000 OA
ENDBRANCH 60 70
BRANCH 56 76
ATOM     76  O4  IDS C   5      34.603 139.276  44.4840  0.00  0.00     0.000 O
BRANCH 76 80
ATOM     77  C1  IDS C   5      33.826 141.528  41.1690  0.00  0.00     0.000 C
ATOM     78  C2  IDS C   5      32.960 141.866  42.3830  0.00  0.00     0.000 C
ATOM     79  C3  IDS C   5      33.601 141.314  43.6410  0.00  0.00     0.000 C
ATOM     80  C4  IDS C   5      33.609 139.789  43.5840  0.00  0.00     0.000 C
ATOM     81  C5  IDS C   5      33.902 139.336  42.1460  0.00  0.00     0.000 C
ATOM     82  O5  IDS C   5      34.601 140.358  41.4300  0.00  0.00     0.000 O
BRANCH 78 83
ATOM     83   O  IDS C   5      32.819 143.333  42.5340  0.00  0.00     0.000 O
ATOM     84   S  IDS C   5      31.384 144.012  42.3750  0.00  0.00     0.000 S
ATOM     85   O  IDS C   5      30.828 143.482  41.1590  0.00  0.00     0.000 OA
ATOM     86   O  IDS C   5      30.648 143.620  43.5540  0.00  0.00     0.000 OA
ATOM     87   O  IDS C   5      31.629 145.432  42.3180  0.00  0.00     0.000 OA
ENDBRANCH 78 83
BRANCH 81 88
ATOM     88   C  IDS C   5      34.730 138.067  42.0570  0.00  0.00     0.000 C
ATOM     89   O  IDS C   5      34.225 137.004  42.3000  0.00  0.00     0.000 OA
ATOM     90   O  IDS C   5      35.896 138.134  41.7420  0.00  0.00     0.000 OA
ENDBRANCH 81 88
ENDBRANCH 76 80
ENDBRANCH 56 76
ENDBRANCH 55 59
ENDBRANCH 39 55
ENDBRANCH 38 42
ENDBRANCH 18 38
ENDBRANCH 17 21
ENDBRANCH 1 17
TORSDOF 18
ENDMDL
MODEL 16
REMARK VINA RESULT:      -2.0    142.001    147.378
ROOT
ATOM      1  C1  IDS C   1      92.677  57.757 179.8840  0.00  0.00     0.000 C
ATOM      2  C2  IDS C   1      91.953  57.822 178.5360  0.00  0.00     0.000 C
ATOM      3  C3  IDS C   1      92.739  58.661 177.5400  0.00  0.00     0.000 C
ATOM      4  C4  IDS C   1      92.942  60.074 178.0700  0.00  0.00     0.000 C
ATOM      5  C5  IDS C   1      93.226  60.036 179.5680  0.00  0.00     0.000 C
ATOM      6  O5  IDS C   1      93.700  58.743 179.9450  0.00  0.00     0.000 O
ATOM      7   O  IDS C   1      92.044  58.704 176.2860  0.00  0.00     0.000 O
ATOM      9  HD  IDS C   1      91.673  57.932 176.1540  0.00  0.00     0.000 HD
ENDROOT
BRANCH 2 9
ATOM      9   O  IDS C   1      91.797  56.469 177.9560  0.00  0.00     0.000 O
ATOM     10   S  IDS C   1      90.341  55.942 177.5760  0.00  0.00     0.000 S
ATOM     11   O  IDS C   1      90.530  54.617 177.0290  0.00  0.00     0.000 OA
ATOM     12   O  IDS C   1      89.592  55.939 178.8160  0.00  0.00     0.000 OA
ATOM     13   O  IDS C   1      89.822  56.880 176.6060  0.00  0.00     0.000 OA
ENDBRANCH 2 9
BRANCH 5 14
ATOM     14   C  IDS C   1      94.261  61.068 179.9820  0.00  0.00     0.000 C
ATOM     15   O  IDS C   1      95.208  60.725 180.6470  0.00  0.00     0.000 OA
ATOM     16   O  IDS C   1      94.126  62.231 179.6420  0.00  0.00     0.000 OA
ENDBRANCH 5 14
BRANCH 1 17
ATOM     17  O4  SGN C   2      92.792  56.632 180.5950  0.00  0.00     0.000 O
BRANCH 17 21
ATOM     18  C1  SGN C   2      94.922  53.493 182.3650  0.00  0.00     0.000 C
ATOM     19  C2  SGN C   2      95.748  54.674 181.8410  0.00  0.00     0.000 C
ATOM     20  C3  SGN C   2      94.838  55.889 181.6250  0.00  0.00     0.000 C
ATOM     21  C4  SGN C   2      93.662  55.511 180.7320  0.00  0.00     0.000 C
ATOM     22  C5  SGN C   2      92.919  54.334 181.3580  0.00  0.00     0.000 C
ATOM     23  O5  SGN C   2      93.823  53.217 181.5210  0.00  0.00     0.000 O
ATOM     24   O  SGN C   2      95.583  56.955 181.0590  0.00  0.00     0.000 O
ATOM     26  HD  SGN C   2      95.006  56.582 181.5870  0.00  0.00     0.000 HD
BRANCH 19 28
ATOM     26   N  SGN C   2      97.009  54.496 182.5750  0.00  0.00     0.000 N
ATOM     28  HD  SGN C   2      96.719  53.688 182.4640  0.00  0.00     0.000 HD
ATOM     28   O  SGN C   2      99.333  55.268 183.0480  0.00  0.00     0.000 OA
ATOM     29   S  SGN C   2      98.444  54.716 181.8840  0.00  0.00     0.000 S
ATOM     30   O  SGN C   2      98.932  53.445 181.5060  0.00  0.00     0.000 OA
ATOM     31   O  SGN C   2      98.298  55.733 180.9010  0.00  0.00     0.000 OA
ENDBRANCH 19 28
BRANCH 22 32
ATOM     32   C  SGN C   2      91.765  53.841 180.5200  0.00  0.00     0.000 C
ATOM     33   S  SGN C   2      89.695  52.327 180.7720  0.00  0.00     0.000 S
ATOM     34   O  SGN C   2      90.481  51.122 180.6940  0.00  0.00     0.000 OA
ATOM     35   O  SGN C   2      88.610  52.252 181.7300  0.00  0.00     0.000 OA
ATOM     36   O  SGN C   2      89.293  52.852 179.4890  0.00  0.00     0.000 OA
ATOM     37   O  SGN C   2      90.698  53.413 181.3750  0.00  0.00     0.000 O
ENDBRANCH 22 32
BRANCH 18 38
ATOM     38  O4  IDS C   3      94.459  53.241 183.5920  0.00  0.00     0.000 O
BRANCH 38 42
ATOM     39  C1  IDS C   3      93.409  53.316 186.9110  0.00  0.00     0.000 C
ATOM     40  C2  IDS C   3      94.834  53.739 186.5220  0.00  0.00     0.000 C
ATOM     41  C3  IDS C   3      95.519  52.664 185.6800  0.00  0.00     0.000 C
ATOM     42  C4  IDS C   3      94.615  52.189 184.5510  0.00  0.00     0.000 C
ATOM     43  C5  IDS C   3      93.246  51.789 185.1150  0.00  0.00     0.000 C
ATOM     44  O5  IDS C   3      92.666  52.914 185.7730  0.00  0.00     0.000 O
ATOM     45   O  IDS C   3      95.868  51.559 186.5160  0.00  0.00     0.000 O
ATOM     47  HD  IDS C   3      95.434  51.040 187.0560  0.00  0.00     0.000 HD
BRANCH 40 47
ATOM     47   O  IDS C   3      94.806  54.984 185.7170  0.00  0.00     0.000 O
ATOM     48   S  IDS C   3      94.377  56.364 186.4020  0.00  0.00     0.000 S
ATOM     49   O  IDS C   3      92.935  56.319 186.5170  0.00  0.00     0.000 OA
ATOM     50   O  IDS C   3      94.827  57.396 185.4930  0.00  0.00     0.000 OA
ATOM     51   O  IDS C   3      95.037  56.407 187.6790  0.00  0.00     0.000 OA
ENDBRANCH 40 47
BRANCH 43 52
ATOM     52   C  IDS C   3      92.300  51.278 184.0510  0.00  0.00     0.000 C
ATOM     53   O  IDS C   3      92.702  50.515 183.2030  0.00  0.00     0.000 OA
ATOM     54   O  IDS C   3      91.150  51.635 184.0540  0.00  0.00     0.000 OA
ENDBRANCH 43 52
BRANCH 39 55
ATOM     55  O4  SGN C   4      93.117  52.633 188.0180  0.00  0.00     0.000 O
BRANCH 55 59
ATOM     56  C1  SGN C   4      89.442  53.335 189.8900  0.00  0.00     0.000 C
ATOM     57  C2  SGN C   4      90.512  54.428 190.0460  0.00  0.00     0.000 C
ATOM     58  C3  SGN C   4      91.626  54.246 189.0180  0.00  0.00     0.000 C
ATOM     59  C4  SGN C   4      92.157  52.817 189.0490  0.00  0.00     0.000 C
ATOM     60  C5  SGN C   4      90.988  51.855 188.8490  0.00  0.00     0.000 C
ATOM     61  O5  SGN C   4      90.049  52.053 189.9250  0.00  0.00     0.000 O
ATOM     62   O  SGN C   4      92.670  55.174 189.2780  0.00  0.00     0.000 O
ATOM     64  HD  SGN C   4      91.956  55.562 189.5770  0.00  0.00     0.000 HD
BRANCH 57 66
ATOM     64   N  SGN C   4      89.802  54.986 191.2080  0.00  0.00     0.000 N
ATOM     66  HD  SGN C   4      89.950  55.608 191.7920  0.00  0.00     0.000 HD
ATOM     66   S  SGN C   4      89.517  56.553 191.3100  0.00  0.00     0.000 S
ATOM     67   O  SGN C   4      88.880  56.788 192.5540  0.00  0.00     0.000 OA
ATOM     68   O  SGN C   4      90.738  57.218 191.0120  0.00  0.00     0.000 OA
ATOM     69   O  SGN C   4      88.505  56.822 190.1500  0.00  0.00     0.000 OA
ENDBRANCH 57 66
BRANCH 60 70
ATOM     70   C  SGN C   4      91.390  50.396 188.8500  0.00  0.00     0.000 C
ATOM     71   O  SGN C   4      92.334  48.313 185.8710  0.00  0.00     0.000 OA
ATOM     72   O  SGN C   4      93.817  49.327 187.4900  0.00  0.00     0.000 OA
ATOM     73   O  SGN C   4      91.475  49.894 187.5020  0.00  0.00     0.000 O
ATOM     74   S  SGN C   4      92.529  48.719 187.2430  0.00  0.00     0.000 S
ATOM     75   O  SGN C   4      92.181  47.692 188.2050  0.00  0.00     0.000 OA
ENDBRANCH 60 70
BRANCH 56 76
ATOM     76  O4  IDS C   5      88.278  53.216 189.2250  0.00  0.00     0.000 O
BRANCH 76 80
ATOM     77  C1  IDS C   5      88.149  52.340 185.2400  0.00  0.00     0.000 C
ATOM     78  C2  IDS C   5      88.134  53.834 185.5620  0.00  0.00     0.000 C
ATOM     79  C3  IDS C   5      88.620  54.059 186.9810  0.00  0.00     0.000 C
ATOM     80  C4  IDS C   5      87.630  53.442 187.9640  0.00  0.00     0.000 C
ATOM     81  C5  IDS C   5      87.100  52.120 187.3890  0.00  0.00     0.000 C
ATOM     82  O5  IDS C   5      88.024  51.578 186.4410  0.00  0.00     0.000 O
BRANCH 78 83
ATOM     83   O  IDS C   5      89.023  54.578 184.6390  0.00  0.00     0.000 O
ATOM     84   S  IDS C   5      88.409  55.684 183.6670  0.00  0.00     0.000 S
ATOM     85   O  IDS C   5      87.273  55.069 183.0350  0.00  0.00     0.000 OA
ATOM     86   O  IDS C   5      88.051  56.787 184.5280  0.00  0.00     0.000 OA
ATOM     87   O  IDS C   5      89.463  56.020 182.7420  0.00  0.00     0.000 OA
ENDBRANCH 78 83
BRANCH 81 88
ATOM     88   C  IDS C   5      86.840  51.053 188.4370  0.00  0.00     0.000 C
ATOM     89   O  IDS C   5      87.619  50.148 188.5760  0.00  0.00     0.000 OA
ATOM     90   O  IDS C   5      85.849  51.121 189.1270  0.00  0.00     0.000 OA
ENDBRANCH 81 88
ENDBRANCH 76 80
ENDBRANCH 56 76
ENDBRANCH 55 59
ENDBRANCH 39 55
ENDBRANCH 38 42
ENDBRANCH 18 38
ENDBRANCH 17 21
ENDBRANCH 1 17
TORSDOF 18
ENDMDL
MODEL 17
REMARK VINA RESULT:      -2.0    115.204    123.465
ROOT
ATOM      1  C1  IDS C   1     102.317  52.996 155.9230  0.00  0.00     0.000 C
ATOM      2  C2  IDS C   1     103.833  53.209 155.9120  0.00  0.00     0.000 C
ATOM      3  C3  IDS C   1     104.389  53.072 154.5020  0.00  0.00     0.000 C
ATOM      4  C4  IDS C   1     104.071  51.697 153.9310  0.00  0.00     0.000 C
ATOM      5  C5  IDS C   1     102.665  51.272 154.3420  0.00  0.00     0.000 C
ATOM      6  O5  IDS C   1     101.889  52.418 154.6960  0.00  0.00     0.000 O
ATOM      7   O  IDS C   1     105.808  53.280 154.5180  0.00  0.00     0.000 O
ATOM      9  HD  IDS C   1     105.987  53.895 155.1010  0.00  0.00     0.000 HD
ENDROOT
BRANCH 2 9
ATOM      9   O  IDS C   1     104.178  54.565 156.3980  0.00  0.00     0.000 O
ATOM     10   S  IDS C   1     105.175  54.725 157.6320  0.00  0.00     0.000 S
ATOM     11   O  IDS C   1     105.316  56.148 157.8470  0.00  0.00     0.000 OA
ATOM     12   O  IDS C   1     104.535  54.047 158.7410  0.00  0.00     0.000 OA
ATOM     13   O  IDS C   1     106.412  54.094 157.2250  0.00  0.00     0.000 OA
ENDBRANCH 2 9
BRANCH 5 14
ATOM     14   C  IDS C   1     101.944  50.528 153.2310  0.00  0.00     0.000 C
ATOM     15   O  IDS C   1     102.510  49.635 152.6500  0.00  0.00     0.000 OA
ATOM     16   O  IDS C   1     100.802  50.838 152.9360  0.00  0.00     0.000 OA
ENDBRANCH 5 14
BRANCH 1 17
ATOM     17  O4  SGN C   2     101.479  53.763 156.6260  0.00  0.00     0.000 O
BRANCH 17 21
ATOM     18  C1  SGN C   2      98.363  56.526 157.0550  0.00  0.00     0.000 C
ATOM     19  C2  SGN C   2      98.566  55.932 155.6560  0.00  0.00     0.000 C
ATOM     20  C3  SGN C   2      99.425  54.665 155.7490  0.00  0.00     0.000 C
ATOM     21  C4  SGN C   2     100.723  54.964 156.4900  0.00  0.00     0.000 C
ATOM     22  C5  SGN C   2     100.391  55.542 157.8630  0.00  0.00     0.000 C
ATOM     23  O5  SGN C   2      99.596  56.741 157.7090  0.00  0.00     0.000 O
ATOM     24   O  SGN C   2      99.687  54.163 154.4490  0.00  0.00     0.000 O
ATOM     26  HD  SGN C   2      99.485  54.121 155.2900  0.00  0.00     0.000 HD
BRANCH 19 28
ATOM     26   N  SGN C   2      97.265  56.205 155.0310  0.00  0.00     0.000 N
ATOM     28  HD  SGN C   2      97.374  56.868 155.5770  0.00  0.00     0.000 HD
ATOM     28   O  SGN C   2      95.785  56.064 153.0280  0.00  0.00     0.000 OA
ATOM     29   S  SGN C   2      97.131  56.704 153.5080  0.00  0.00     0.000 S
ATOM     30   O  SGN C   2      96.980  58.109 153.5330  0.00  0.00     0.000 OA
ATOM     31   O  SGN C   2      98.198  56.125 152.7690  0.00  0.00     0.000 OA
ENDBRANCH 19 28
BRANCH 22 32
ATOM     32   C  SGN C   2     101.613  55.929 158.6600  0.00  0.00     0.000 C
ATOM     33   S  SGN C   2     102.234  56.514 161.0920  0.00  0.00     0.000 S
ATOM     34   O  SGN C   2     101.678  57.840 160.9880  0.00  0.00     0.000 OA
ATOM     35   O  SGN C   2     101.995  55.883 162.3740  0.00  0.00     0.000 OA
ATOM     36   O  SGN C   2     103.604  56.413 160.6480  0.00  0.00     0.000 OA
ATOM     37   O  SGN C   2     101.390  55.650 160.0480  0.00  0.00     0.000 O
ENDBRANCH 22 32
BRANCH 18 38
ATOM     38  O4  IDS C   3      97.536  56.157 158.0360  0.00  0.00     0.000 O
BRANCH 38 42
ATOM     39  C1  IDS C   3      95.302  54.556 160.1740  0.00  0.00     0.000 C
ATOM     40  C2  IDS C   3      94.955  54.786 158.6950  0.00  0.00     0.000 C
ATOM     41  C3  IDS C   3      95.142  56.252 158.3050  0.00  0.00     0.000 C
ATOM     42  C4  IDS C   3      96.487  56.782 158.7820  0.00  0.00     0.000 C
ATOM     43  C5  IDS C   3      96.660  56.487 160.2770  0.00  0.00     0.000 C
ATOM     44  O5  IDS C   3      96.582  55.078 160.4870  0.00  0.00     0.000 O
ATOM     45   O  IDS C   3      94.087  57.030 158.8730  0.00  0.00     0.000 O
ATOM     47  HD  IDS C   3      93.777  57.150 159.6730  0.00  0.00     0.000 HD
BRANCH 40 47
ATOM     47   O  IDS C   3      95.839  53.977 157.8220  0.00  0.00     0.000 O
ATOM     48   S  IDS C   3      95.703  52.384 157.8090  0.00  0.00     0.000 S
ATOM     49   O  IDS C   3      96.351  51.921 159.0170  0.00  0.00     0.000 OA
ATOM     50   O  IDS C   3      96.392  51.953 156.6120  0.00  0.00     0.000 OA
ATOM     51   O  IDS C   3      94.294  52.096 157.7860  0.00  0.00     0.000 OA
ENDBRANCH 40 47
BRANCH 43 52
ATOM     52   C  IDS C   3      97.966  57.012 160.8300  0.00  0.00     0.000 C
ATOM     53   O  IDS C   3      98.649  56.306 161.5370  0.00  0.00     0.000 OA
ATOM     54   O  IDS C   3      98.321  58.132 160.5630  0.00  0.00     0.000 OA
ENDBRANCH 43 52
BRANCH 39 55
ATOM     55  O4  SGN C   4      94.416  54.661 161.1650  0.00  0.00     0.000 O
BRANCH 55 59
ATOM     56  C1  SGN C   4      94.857  52.186 164.5100  0.00  0.00     0.000 C
ATOM     57  C2  SGN C   4      94.341  51.518 163.2240  0.00  0.00     0.000 C
ATOM     58  C3  SGN C   4      94.599  52.408 162.0100  0.00  0.00     0.000 C
ATOM     59  C4  SGN C   4      94.077  53.818 162.2580  0.00  0.00     0.000 C
ATOM     60  C5  SGN C   4      94.702  54.355 163.5430  0.00  0.00     0.000 C
ATOM     61  O5  SGN C   4      94.315  53.491 164.6300  0.00  0.00     0.000 O
ATOM     62   O  SGN C   4      93.983  51.839 160.8630  0.00  0.00     0.000 O
ATOM     64  HD  SGN C   4      94.162  51.161 161.3720  0.00  0.00     0.000 HD
BRANCH 57 66
ATOM     64   N  SGN C   4      93.794  50.382 163.9830  0.00  0.00     0.000 N
ATOM     66  HD  SGN C   4      93.333  49.672 163.8010  0.00  0.00     0.000 HD
ATOM     66   S  SGN C   4      94.123  48.882 163.5490  0.00  0.00     0.000 S
ATOM     67   O  SGN C   4      93.413  48.021 164.4230  0.00  0.00     0.000 OA
ATOM     68   O  SGN C   4      93.897  48.796 162.1470  0.00  0.00     0.000 OA
ATOM     69   O  SGN C   4      95.656  48.746 163.8180  0.00  0.00     0.000 OA
ENDBRANCH 57 66
BRANCH 60 70
ATOM     70   C  SGN C   4      94.266  55.761 163.8940  0.00  0.00     0.000 C
ATOM     71   O  SGN C   4      95.960  58.962 162.8980  0.00  0.00     0.000 OA
ATOM     72   O  SGN C   4      93.986  57.971 161.9140  0.00  0.00     0.000 OA
ATOM     73   O  SGN C   4      95.277  56.714 163.5120  0.00  0.00     0.000 O
ATOM     74   S  SGN C   4      94.767  58.175 163.1120  0.00  0.00     0.000 S
ATOM     75   O  SGN C   4      93.980  58.616 164.2460  0.00  0.00     0.000 OA
ENDBRANCH 60 70
BRANCH 56 76
ATOM     76  O4  IDS C   5      96.002  52.154 165.2170  0.00  0.00     0.000 O
BRANCH 76 80
ATOM     77  C1  IDS C   5      99.251  54.356 164.0970  0.00  0.00     0.000 C
ATOM     78  C2  IDS C   5      99.243  52.922 163.5670  0.00  0.00     0.000 C
ATOM     79  C3  IDS C   5      97.842  52.349 163.6550  0.00  0.00     0.000 C
ATOM     80  C4  IDS C   5      97.432  52.223 165.1190  0.00  0.00     0.000 C
ATOM     81  C5  IDS C   5      97.965  53.432 165.9020  0.00  0.00     0.000 C
ATOM     82  O5  IDS C   5      98.183  54.542 165.0260  0.00  0.00     0.000 O
BRANCH 78 83
ATOM     83   O  IDS C   5      99.677  52.884 162.1510  0.00  0.00     0.000 O
ATOM     84   S  IDS C   5     100.986  52.068 161.7450  0.00  0.00     0.000 S
ATOM     85   O  IDS C   5     102.009  52.473 162.6710  0.00  0.00     0.000 OA
ATOM     86   O  IDS C   5     100.620  50.677 161.8760  0.00  0.00     0.000 OA
ATOM     87   O  IDS C   5     101.271  52.441 160.3810  0.00  0.00     0.000 OA
ENDBRANCH 78 83
BRANCH 81 88
ATOM     88   C  IDS C   5      97.044  53.900 167.0140  0.00  0.00     0.000 C
ATOM     89   O  IDS C   5      96.360  54.875 166.8540  0.00  0.00     0.000 OA
ATOM     90   O  IDS C   5      97.004  53.287 168.0560  0.00  0.00     0.000 OA
ENDBRANCH 81 88
ENDBRANCH 76 80
ENDBRANCH 56 76
ENDBRANCH 55 59
ENDBRANCH 39 55
ENDBRANCH 38 42
ENDBRANCH 18 38
ENDBRANCH 17 21
ENDBRANCH 1 17
TORSDOF 18
ENDMDL
MODEL 18
REMARK VINA RESULT:      -2.0    128.405    135.456
ROOT
ATOM      1  C1  IDS C   1     127.373 130.590 114.7580  0.00  0.00     0.000 C
ATOM      2  C2  IDS C   1     127.930 129.254 115.2590  0.00  0.00     0.000 C
ATOM      3  C3  IDS C   1     127.949 128.222 114.1410  0.00  0.00     0.000 C
ATOM      4  C4  IDS C   1     126.548 128.006 113.5860  0.00  0.00     0.000 C
ATOM      5  C5  IDS C   1     125.804 129.335 113.5110  0.00  0.00     0.000 C
ATOM      6  O5  IDS C   1     126.734 130.418 113.5000  0.00  0.00     0.000 O
ATOM      7   O  IDS C   1     128.478 126.983 114.6340  0.00  0.00     0.000 O
ATOM      9  HD  IDS C   1     129.107 127.162 115.2020  0.00  0.00     0.000 HD
ENDROOT
BRANCH 2 9
ATOM      9   O  IDS C   1     129.319 129.412 115.7450  0.00  0.00     0.000 O
ATOM     10   S  IDS C   1     129.684 128.969 117.2330  0.00  0.00     0.000 S
ATOM     11   O  IDS C   1     131.097 129.233 117.3910  0.00  0.00     0.000 OA
ATOM     12   O  IDS C   1     128.857 129.787 118.0970  0.00  0.00     0.000 OA
ATOM     13   O  IDS C   1     129.365 127.561 117.3160  0.00  0.00     0.000 OA
ENDBRANCH 2 9
BRANCH 5 14
ATOM     14   C  IDS C   1     124.933 129.435 112.2700  0.00  0.00     0.000 C
ATOM     15   O  IDS C   1     124.220 128.509 111.9690  0.00  0.00     0.000 OA
ATOM     16   O  IDS C   1     124.963 130.446 111.5890  0.00  0.00     0.000 OA
ENDBRANCH 5 14
BRANCH 1 17
ATOM     17  O4  SGN C   2     127.914 131.769 115.0760  0.00  0.00     0.000 O
BRANCH 17 21
ATOM     18  C1  SGN C   2     129.891 135.360 114.2250  0.00  0.00     0.000 C
ATOM     19  C2  SGN C   2     129.387 134.552 113.0230  0.00  0.00     0.000 C
ATOM     20  C3  SGN C   2     128.345 133.526 113.4860  0.00  0.00     0.000 C
ATOM     21  C4  SGN C   2     128.915 132.671 114.6130  0.00  0.00     0.000 C
ATOM     22  C5  SGN C   2     129.376 133.584 115.7460  0.00  0.00     0.000 C
ATOM     23  O5  SGN C   2     130.366 134.515 115.2520  0.00  0.00     0.000 O
ATOM     24   O  SGN C   2     127.942 132.720 112.3920  0.00  0.00     0.000 O
ATOM     26  HD  SGN C   2     127.838 133.192 113.1110  0.00  0.00     0.000 HD
BRANCH 19 28
ATOM     26   N  SGN C   2     129.373 135.575 111.9690  0.00  0.00     0.000 N
ATOM     28  HD  SGN C   2     130.034 135.811 112.4760  0.00  0.00     0.000 HD
ATOM     28   O  SGN C   2     128.939 136.186 109.5890  0.00  0.00     0.000 OA
ATOM     29   S  SGN C   2     129.855 135.267 110.4660  0.00  0.00     0.000 S
ATOM     30   O  SGN C   2     131.190 135.715 110.3470  0.00  0.00     0.000 OA
ATOM     31   O  SGN C   2     129.541 133.910 110.1820  0.00  0.00     0.000 OA
ENDBRANCH 19 28
BRANCH 22 32
ATOM     32   C  SGN C   2     130.013 132.838 116.8930  0.00  0.00     0.000 C
ATOM     33   S  SGN C   2     130.642 133.246 119.3590  0.00  0.00     0.000 S
ATOM     34   O  SGN C   2     131.802 134.026 119.0050  0.00  0.00     0.000 OA
ATOM     35   O  SGN C   2     129.928 133.756 120.5110  0.00  0.00     0.000 OA
ATOM     36   O  SGN C   2     130.884 131.824 119.4160  0.00  0.00     0.000 OA
ATOM     37   O  SGN C   2     129.641 133.452 118.1330  0.00  0.00     0.000 O
ENDBRANCH 22 32
BRANCH 18 38
ATOM     38  O4  IDS C   3     129.325 136.377 114.8780  0.00  0.00     0.000 O
BRANCH 38 42
ATOM     39  C1  IDS C   3     127.220 138.798 116.2340  0.00  0.00     0.000 C
ATOM     40  C2  IDS C   3     127.361 138.634 114.7120  0.00  0.00     0.000 C
ATOM     41  C3  IDS C   3     128.829 138.662 114.2870  0.00  0.00     0.000 C
ATOM     42  C4  IDS C   3     129.672 137.738 115.1560  0.00  0.00     0.000 C
ATOM     43  C5  IDS C   3     129.425 138.050 116.6370  0.00  0.00     0.000 C
ATOM     44  O5  IDS C   3     128.039 137.871 116.9270  0.00  0.00     0.000 O
ATOM     45   O  IDS C   3     129.323 139.999 114.3830  0.00  0.00     0.000 O
ATOM     47  HD  IDS C   3     129.362 140.594 115.0120  0.00  0.00     0.000 HD
BRANCH 40 47
ATOM     47   O  IDS C   3     126.796 137.335 114.2740  0.00  0.00     0.000 O
ATOM     48   S  IDS C   3     125.217 137.091 114.3430  0.00  0.00     0.000 S
ATOM     49   O  IDS C   3     124.914 136.836 115.7350  0.00  0.00     0.000 OA
ATOM     50   O  IDS C   3     124.973 135.938 113.5040  0.00  0.00     0.000 OA
ATOM     51   O  IDS C   3     124.598 138.292 113.8490  0.00  0.00     0.000 OA
ENDBRANCH 40 47
BRANCH 43 52
ATOM     52   C  IDS C   3     130.253 137.187 117.5630  0.00  0.00     0.000 C
ATOM     53   O  IDS C   3     129.740 136.680 118.5340  0.00  0.00     0.000 OA
ATOM     54   O  IDS C   3     131.420 137.007 117.3270  0.00  0.00     0.000 OA
ENDBRANCH 43 52
BRANCH 39 55
ATOM     55  O4  SGN C   4     127.102 139.978 116.8420  0.00  0.00     0.000 O
BRANCH 55 59
ATOM     56  C1  SGN C   4     124.784 140.220 120.3160  0.00  0.00     0.000 C
ATOM     57  C2  SGN C   4     124.020 140.069 118.9890  0.00  0.00     0.000 C
ATOM     58  C3  SGN C   4     124.955 139.601 117.8770  0.00  0.00     0.000 C
ATOM     59  C4  SGN C   4     126.194 140.487 117.8090  0.00  0.00     0.000 C
ATOM     60  C5  SGN C   4     126.857 140.510 119.1840  0.00  0.00     0.000 C
ATOM     61  O5  SGN C   4     125.916 141.054 120.1310  0.00  0.00     0.000 O
ATOM     62   O  SGN C   4     124.261 139.612 116.6370  0.00  0.00     0.000 O
ATOM     64  HD  SGN C   4     123.644 139.478 117.2290  0.00  0.00     0.000 HD
BRANCH 57 66
ATOM     64   N  SGN C   4     122.779 140.577 119.5960  0.00  0.00     0.000 N
ATOM     66  HD  SGN C   4     121.979 140.763 119.3210  0.00  0.00     0.000 HD
ATOM     66   S  SGN C   4     121.408 139.777 119.4300  0.00  0.00     0.000 S
ATOM     67   O  SGN C   4     120.393 140.537 120.0640  0.00  0.00     0.000 OA
ATOM     68   O  SGN C   4     121.280 139.452 118.0520  0.00  0.00     0.000 OA
ATOM     69   O  SGN C   4     121.648 138.459 120.2350  0.00  0.00     0.000 OA
ENDBRANCH 57 66
BRANCH 60 70
ATOM     70   C  SGN C   4     128.112 141.354 119.2430  0.00  0.00     0.000 C
ATOM     71   O  SGN C   4     131.637 140.198 118.6580  0.00  0.00     0.000 OA
ATOM     72   O  SGN C   4     130.204 141.395 117.1210  0.00  0.00     0.000 OA
ATOM     73   O  SGN C   4     129.285 140.521 119.1690  0.00  0.00     0.000 O
ATOM     74   S  SGN C   4     130.582 141.172 118.4980  0.00  0.00     0.000 S
ATOM     75   O  SGN C   4     130.808 142.396 119.2400  0.00  0.00     0.000 OA
ENDBRANCH 60 70
BRANCH 56 76
ATOM     76  O4  IDS C   5     125.027 139.435 121.3820  0.00  0.00     0.000 O
BRANCH 76 80
ATOM     77  C1  IDS C   5     127.951 136.589 121.3090  0.00  0.00     0.000 C
ATOM     78  C2  IDS C   5     126.562 136.081 120.9250  0.00  0.00     0.000 C
ATOM     79  C3  IDS C   5     125.669 137.250 120.5580  0.00  0.00     0.000 C
ATOM     80  C4  IDS C   5     125.437 138.121 121.7890  0.00  0.00     0.000 C
ATOM     81  C5  IDS C   5     126.731 138.195 122.6120  0.00  0.00     0.000 C
ATOM     82  O5  IDS C   5     127.868 137.932 121.7850  0.00  0.00     0.000 O
BRANCH 78 83
ATOM     83   O  IDS C   5     126.641 135.168 119.7610  0.00  0.00     0.000 O
ATOM     84   S  IDS C   5     126.082 133.679 119.8810  0.00  0.00     0.000 S
ATOM     85   O  IDS C   5     126.639 133.145 121.0950  0.00  0.00     0.000 OA
ATOM     86   O  IDS C   5     124.646 133.816 119.9270  0.00  0.00     0.000 OA
ATOM     87   O  IDS C   5     126.538 132.994 118.6960  0.00  0.00     0.000 OA
ENDBRANCH 78 83
BRANCH 81 88
ATOM     88   C  IDS C   5     126.956 139.535 123.2880  0.00  0.00     0.000 C
ATOM     89   O  IDS C   5     126.338 139.817 124.2800  0.00  0.00     0.000 OA
ATOM     90   O  IDS C   5     127.758 140.312 122.8230  0.00  0.00     0.000 OA
ENDBRANCH 81 88
ENDBRANCH 76 80
ENDBRANCH 56 76
ENDBRANCH 55 59
ENDBRANCH 39 55
ENDBRANCH 38 42
ENDBRANCH 18 38
ENDBRANCH 17 21
ENDBRANCH 1 17
TORSDOF 18
ENDMDL
MODEL 19
REMARK VINA RESULT:      -2.0    115.036    120.951
ROOT
ATOM      1  C1  IDS C   1     133.484 122.036 116.6680  0.00  0.00     0.000 C
ATOM      2  C2  IDS C   1     133.337 122.140 115.1470  0.00  0.00     0.000 C
ATOM      3  C3  IDS C   1     132.710 123.470 114.7550  0.00  0.00     0.000 C
ATOM      4  C4  IDS C   1     131.343 123.632 115.4040  0.00  0.00     0.000 C
ATOM      5  C5  IDS C   1     131.372 123.088 116.8290  0.00  0.00     0.000 C
ATOM      6  O5  IDS C   1     132.715 123.045 117.3110  0.00  0.00     0.000 O
ATOM      7   O  IDS C   1     132.587 123.546 113.3270  0.00  0.00     0.000 O
ATOM      9  HD  IDS C   1     133.276 123.159 112.9740  0.00  0.00     0.000 HD
ENDROOT
BRANCH 2 9
ATOM      9   O  IDS C   1     134.657 122.055 114.4830  0.00  0.00     0.000 O
ATOM     10   S  IDS C   1     134.901 120.947 113.3630  0.00  0.00     0.000 S
ATOM     11   O  IDS C   1     136.261 121.134 112.9090  0.00  0.00     0.000 OA
ATOM     12   O  IDS C   1     134.697 119.674 114.0240  0.00  0.00     0.000 OA
ATOM     13   O  IDS C   1     133.923 121.208 112.3300  0.00  0.00     0.000 OA
ENDBRANCH 2 9
BRANCH 5 14
ATOM     14   C  IDS C   1     130.545 123.933 117.7820  0.00  0.00     0.000 C
ATOM     15   O  IDS C   1     130.372 125.103 117.5420  0.00  0.00     0.000 OA
ATOM     16   O  IDS C   1     130.065 123.424 118.7820  0.00  0.00     0.000 OA
ENDBRANCH 5 14
BRANCH 1 17
ATOM     17  O4  SGN C   2     134.579 121.552 117.2620  0.00  0.00     0.000 O
BRANCH 17 21
ATOM     18  C1  SGN C   2     138.026 121.824 119.6220  0.00  0.00     0.000 C
ATOM     19  C2  SGN C   2     137.061 123.015 119.6750  0.00  0.00     0.000 C
ATOM     20  C3  SGN C   2     135.692 122.600 119.1220  0.00  0.00     0.000 C
ATOM     21  C4  SGN C   2     135.850 121.992 117.7330  0.00  0.00     0.000 C
ATOM     22  C5  SGN C   2     136.824 120.820 117.8100  0.00  0.00     0.000 C
ATOM     23  O5  SGN C   2     138.097 121.276 118.3220  0.00  0.00     0.000 O
ATOM     24   O  SGN C   2     134.825 123.722 119.0900  0.00  0.00     0.000 O
ATOM     26  HD  SGN C   2     135.051 122.897 119.2260  0.00  0.00     0.000 HD
BRANCH 19 28
ATOM     26   N  SGN C   2     137.468 123.664 120.9290  0.00  0.00     0.000 N
ATOM     28  HD  SGN C   2     138.202 123.315 120.6310  0.00  0.00     0.000 HD
ATOM     28   O  SGN C   2     137.180 125.528 122.5620  0.00  0.00     0.000 OA
ATOM     29   S  SGN C   2     137.582 125.261 121.0720  0.00  0.00     0.000 S
ATOM     30   O  SGN C   2     138.941 125.607 120.9020  0.00  0.00     0.000 OA
ATOM     31   O  SGN C   2     136.598 125.842 120.2260  0.00  0.00     0.000 OA
ENDBRANCH 19 28
BRANCH 22 32
ATOM     32   C  SGN C   2     137.096 120.180 116.4710  0.00  0.00     0.000 C
ATOM     33   S  SGN C   2     138.182 118.039 115.5320  0.00  0.00     0.000 S
ATOM     34   O  SGN C   2     139.516 118.537 115.7510  0.00  0.00     0.000 OA
ATOM     35   O  SGN C   2     138.035 116.626 115.8140  0.00  0.00     0.000 OA
ATOM     36   O  SGN C   2     137.605 118.435 114.2690  0.00  0.00     0.000 OA
ATOM     37   O  SGN C   2     137.301 118.772 116.6430  0.00  0.00     0.000 O
ENDBRANCH 22 32
BRANCH 18 38
ATOM     38  O4  IDS C   3     138.132 120.764 120.4270  0.00  0.00     0.000 O
BRANCH 38 42
ATOM     39  C1  IDS C   3     137.719 118.207 122.7550  0.00  0.00     0.000 C
ATOM     40  C2  IDS C   3     137.603 119.683 123.1700  0.00  0.00     0.000 C
ATOM     41  C3  IDS C   3     138.826 120.481 122.7190  0.00  0.00     0.000 C
ATOM     42  C4  IDS C   3     139.155 120.206 121.2580  0.00  0.00     0.000 C
ATOM     43  C5  IDS C   3     139.252 118.693 121.0230  0.00  0.00     0.000 C
ATOM     44  O5  IDS C   3     138.010 118.086 121.3720  0.00  0.00     0.000 O
ATOM     45   O  IDS C   3     139.945 120.137 123.5380  0.00  0.00     0.000 O
ATOM     47  HD  IDS C   3     140.346 119.399 123.7480  0.00  0.00     0.000 HD
BRANCH 40 47
ATOM     47   O  IDS C   3     136.411 120.306 122.5490  0.00  0.00     0.000 O
ATOM     48   S  IDS C   3     134.947 119.868 123.0220  0.00  0.00     0.000 S
ATOM     49   O  IDS C   3     134.694 118.588 122.3970  0.00  0.00     0.000 OA
ATOM     50   O  IDS C   3     134.064 120.906 122.5360  0.00  0.00     0.000 OA
ATOM     51   O  IDS C   3     134.990 119.789 124.4580  0.00  0.00     0.000 OA
ENDBRANCH 40 47
BRANCH 43 52
ATOM     52   C  IDS C   3     139.605 118.343 119.5950  0.00  0.00     0.000 C
ATOM     53   O  IDS C   3     139.037 117.432 119.0390  0.00  0.00     0.000 OA
ATOM     54   O  IDS C   3     140.453 118.975 119.0170  0.00  0.00     0.000 OA
ENDBRANCH 43 52
BRANCH 39 55
ATOM     55  O4  SGN C   4     138.286 117.269 123.5130  0.00  0.00     0.000 O
BRANCH 55 59
ATOM     56  C1  SGN C   4     136.797 113.364 123.3090  0.00  0.00     0.000 C
ATOM     57  C2  SGN C   4     135.932 114.392 124.0580  0.00  0.00     0.000 C
ATOM     58  C3  SGN C   4     136.372 115.815 123.7260  0.00  0.00     0.000 C
ATOM     59  C4  SGN C   4     137.875 115.973 123.9250  0.00  0.00     0.000 C
ATOM     60  C5  SGN C   4     138.594 114.910 123.0970  0.00  0.00     0.000 C
ATOM     61  O5  SGN C   4     138.171 113.613 123.5600  0.00  0.00     0.000 O
ATOM     62   O  SGN C   4     135.659 116.736 124.5410  0.00  0.00     0.000 O
ATOM     64  HD  SGN C   4     135.126 116.058 124.4620  0.00  0.00     0.000 HD
BRANCH 57 66
ATOM     64   N  SGN C   4     135.199 113.323 124.7550  0.00  0.00     0.000 N
ATOM     66  HD  SGN C   4     134.589 113.279 125.3680  0.00  0.00     0.000 HD
ATOM     66   S  SGN C   4     133.604 113.317 124.7840  0.00  0.00     0.000 S
ATOM     67   O  SGN C   4     133.197 112.212 125.5730  0.00  0.00     0.000 OA
ATOM     68   O  SGN C   4     133.190 114.627 125.1500  0.00  0.00     0.000 OA
ATOM     69   O  SGN C   4     133.207 113.065 123.2940  0.00  0.00     0.000 OA
ENDBRANCH 57 66
BRANCH 60 70
ATOM     70   C  SGN C   4     140.102 114.970 123.2040  0.00  0.00     0.000 C
ATOM     71   O  SGN C   4     142.448 116.881 120.9780  0.00  0.00     0.000 OA
ATOM     72   O  SGN C   4     141.684 117.495 123.1890  0.00  0.00     0.000 OA
ATOM     73   O  SGN C   4     140.664 115.631 122.0540  0.00  0.00     0.000 O
ATOM     74   S  SGN C   4     142.034 116.424 122.2850  0.00  0.00     0.000 S
ATOM     75   O  SGN C   4     142.933 115.447 122.8670  0.00  0.00     0.000 OA
ENDBRANCH 60 70
BRANCH 56 76
ATOM     76  O4  IDS C   5     136.710 112.703 122.1400  0.00  0.00     0.000 O
BRANCH 76 80
ATOM     77  C1  IDS C   5     137.680 114.448 118.5800  0.00  0.00     0.000 C
ATOM     78  C2  IDS C   5     136.203 114.559 118.9600  0.00  0.00     0.000 C
ATOM     79  C3  IDS C   5     136.032 114.291 120.4420  0.00  0.00     0.000 C
ATOM     80  C4  IDS C   5     136.401 112.842 120.7450  0.00  0.00     0.000 C
ATOM     81  C5  IDS C   5     137.606 112.434 119.8860  0.00  0.00     0.000 C
ATOM     82  O5  IDS C   5     138.358 113.587 119.4940  0.00  0.00     0.000 O
BRANCH 78 83
ATOM     83   O  IDS C   5     135.688 115.917 118.6660  0.00  0.00     0.000 O
ATOM     84   S  IDS C   5     134.528 116.109 117.5890  0.00  0.00     0.000 S
ATOM     85   O  IDS C   5     134.938 115.365 116.4280  0.00  0.00     0.000 OA
ATOM     86   O  IDS C   5     133.339 115.578 118.2130  0.00  0.00     0.000 OA
ATOM     87   O  IDS C   5     134.445 117.530 117.3530  0.00  0.00     0.000 OA
ENDBRANCH 78 83
BRANCH 81 88
ATOM     88   C  IDS C   5     138.561 111.479 120.5780  0.00  0.00     0.000 C
ATOM     89   O  IDS C   5     139.589 111.893 121.0450  0.00  0.00     0.000 OA
ATOM     90   O  IDS C   5     138.281 110.305 120.6570  0.00  0.00     0.000 OA
ENDBRANCH 81 88
ENDBRANCH 76 80
ENDBRANCH 56 76
ENDBRANCH 55 59
ENDBRANCH 39 55
ENDBRANCH 38 42
ENDBRANCH 18 38
ENDBRANCH 17 21
ENDBRANCH 1 17
TORSDOF 18
ENDMDL
MODEL 20
REMARK VINA RESULT:      -2.0    208.439    214.884
ROOT
ATOM      1  C1  IDS C   1     140.255 190.266 187.0930  0.00  0.00     0.000 C
ATOM      2  C2  IDS C   1     139.772 191.709 187.2630  0.00  0.00     0.000 C
ATOM      3  C3  IDS C   1     138.695 191.796 188.3340  0.00  0.00     0.000 C
ATOM      4  C4  IDS C   1     137.511 190.909 187.9780  0.00  0.00     0.000 C
ATOM      5  C5  IDS C   1     138.002 189.602 187.3630  0.00  0.00     0.000 C
ATOM      6  O5  IDS C   1     139.360 189.365 187.7330  0.00  0.00     0.000 O
ATOM      7   O  IDS C   1     138.263 193.157 188.4770  0.00  0.00     0.000 O
ATOM      9  HD  IDS C   1     138.950 193.673 188.3720  0.00  0.00     0.000 HD
ENDROOT
BRANCH 2 9
ATOM      9   O  IDS C   1     140.886 192.592 187.6760  0.00  0.00     0.000 O
ATOM     10   S  IDS C   1     141.212 193.897 186.8190  0.00  0.00     0.000 S
ATOM     11   O  IDS C   1     142.325 194.539 187.4820  0.00  0.00     0.000 OA
ATOM     12   O  IDS C   1     141.545 193.418 185.4930  0.00  0.00     0.000 OA
ATOM     13   O  IDS C   1     140.007 194.696 186.8430  0.00  0.00     0.000 OA
ENDBRANCH 2 9
BRANCH 5 14
ATOM     14   C  IDS C   1     137.168 188.411 187.8040  0.00  0.00     0.000 C
ATOM     15   O  IDS C   1     137.463 187.305 187.4220  0.00  0.00     0.000 OA
ATOM     16   O  IDS C   1     136.209 188.583 188.5370  0.00  0.00     0.000 OA
ENDBRANCH 5 14
BRANCH 1 17
ATOM     17  O4  SGN C   2     141.544 189.941 186.9570  0.00  0.00     0.000 O
BRANCH 17 21
ATOM     18  C1  SGN C   2     145.213 188.347 188.1900  0.00  0.00     0.000 C
ATOM     19  C2  SGN C   2     143.978 187.932 188.9990  0.00  0.00     0.000 C
ATOM     20  C3  SGN C   2     142.706 188.235 188.1970  0.00  0.00     0.000 C
ATOM     21  C4  SGN C   2     142.698 189.694 187.7560  0.00  0.00     0.000 C
ATOM     22  C5  SGN C   2     143.968 189.981 186.9610  0.00  0.00     0.000 C
ATOM     23  O5  SGN C   2     145.129 189.693 187.7740  0.00  0.00     0.000 O
ATOM     24   O  SGN C   2     141.561 187.934 188.9760  0.00  0.00     0.000 O
ATOM     26  HD  SGN C   2     142.051 187.959 188.2620  0.00  0.00     0.000 HD
BRANCH 19 28
ATOM     26   N  SGN C   2     144.463 186.721 189.6740  0.00  0.00     0.000 N
ATOM     28  HD  SGN C   2     145.170 187.218 189.6090  0.00  0.00     0.000 HD
ATOM     28   O  SGN C   2     144.030 184.827 191.2380  0.00  0.00     0.000 OA
ATOM     29   S  SGN C   2     144.107 186.390 191.2070  0.00  0.00     0.000 S
ATOM     30   O  SGN C   2     145.202 186.805 191.9970  0.00  0.00     0.000 OA
ATOM     31   O  SGN C   2     142.812 186.914 191.4710  0.00  0.00     0.000 OA
ENDBRANCH 19 28
BRANCH 22 32
ATOM     32   C  SGN C   2     144.088 191.421 186.5240  0.00  0.00     0.000 C
ATOM     33   S  SGN C   2     145.930 193.099 185.8650  0.00  0.00     0.000 S
ATOM     34   O  SGN C   2     146.324 193.310 187.2360  0.00  0.00     0.000 OA
ATOM     35   O  SGN C   2     147.042 193.064 184.9390  0.00  0.00     0.000 OA
ATOM     36   O  SGN C   2     144.845 193.946 185.4280  0.00  0.00     0.000 OA
ATOM     37   O  SGN C   2     145.337 191.617 185.8500  0.00  0.00     0.000 O
ENDBRANCH 22 32
BRANCH 18 38
ATOM     38  O4  IDS C   3     145.826 187.731 187.1760  0.00  0.00     0.000 O
BRANCH 38 42
ATOM     39  C1  IDS C   3     146.931 186.242 184.2290  0.00  0.00     0.000 C
ATOM     40  C2  IDS C   3     146.083 185.458 185.2430  0.00  0.00     0.000 C
ATOM     41  C3  IDS C   3     146.683 185.540 186.6460  0.00  0.00     0.000 C
ATOM     42  C4  IDS C   3     147.031 186.977 187.0120  0.00  0.00     0.000 C
ATOM     43  C5  IDS C   3     147.892 187.600 185.9070  0.00  0.00     0.000 C
ATOM     44  O5  IDS C   3     147.170 187.566 184.6770  0.00  0.00     0.000 O
ATOM     45   O  IDS C   3     147.857 184.728 186.7080  0.00  0.00     0.000 O
ATOM     47  HD  IDS C   3     148.595 184.684 186.2570  0.00  0.00     0.000 HD
BRANCH 40 47
ATOM     47   O  IDS C   3     144.710 186.012 185.3120  0.00  0.00     0.000 O
ATOM     48   S  IDS C   3     143.715 185.830 184.0730  0.00  0.00     0.000 S
ATOM     49   O  IDS C   3     144.134 186.798 183.0820  0.00  0.00     0.000 OA
ATOM     50   O  IDS C   3     142.398 186.112 184.5990  0.00  0.00     0.000 OA
ATOM     51   O  IDS C   3     143.868 184.472 183.6250  0.00  0.00     0.000 OA
ENDBRANCH 40 47
BRANCH 43 52
ATOM     52   C  IDS C   3     148.302 189.023 186.2160  0.00  0.00     0.000 C
ATOM     53   O  IDS C   3     148.131 189.892 185.3920  0.00  0.00     0.000 OA
ATOM     54   O  IDS C   3     148.798 189.283 187.2830  0.00  0.00     0.000 OA
ENDBRANCH 43 52
BRANCH 39 55
ATOM     55  O4  SGN C   4     147.944 185.710 183.5440  0.00  0.00     0.000 O
BRANCH 55 59
ATOM     56  C1  SGN C   4     148.678 187.080 179.6600  0.00  0.00     0.000 C
ATOM     57  C2  SGN C   4     147.445 186.180 179.8500  0.00  0.00     0.000 C
ATOM     58  C3  SGN C   4     147.069 186.081 181.3260  0.00  0.00     0.000 C
ATOM     59  C4  SGN C   4     148.282 185.696 182.1640  0.00  0.00     0.000 C
ATOM     60  C5  SGN C   4     149.404 186.696 181.8930  0.00  0.00     0.000 C
ATOM     61  O5  SGN C   4     149.736 186.634 180.4920  0.00  0.00     0.000 O
ATOM     62   O  SGN C   4     146.025 185.131 181.4880  0.00  0.00     0.000 O
ATOM     64  HD  SGN C   4     145.915 185.438 180.6860  0.00  0.00     0.000 HD
BRANCH 57 66
ATOM     64   N  SGN C   4     147.341 186.450 178.4070  0.00  0.00     0.000 N
ATOM     66  HD  SGN C   4     147.187 185.985 177.6930  0.00  0.00     0.000 HD
ATOM     66   S  SGN C   4     146.047 186.002 177.5880  0.00  0.00     0.000 S
ATOM     67   O  SGN C   4     146.266 186.340 176.2290  0.00  0.00     0.000 OA
ATOM     68   O  SGN C   4     145.781 184.650 177.9380  0.00  0.00     0.000 OA
ATOM     69   O  SGN C   4     144.910 186.902 178.1690  0.00  0.00     0.000 OA
ENDBRANCH 57 66
BRANCH 60 70
ATOM     70   C  SGN C   4     150.668 186.424 182.6800  0.00  0.00     0.000 C
ATOM     71   O  SGN C   4     151.576 187.824 186.0450  0.00  0.00     0.000 OA
ATOM     72   O  SGN C   4     150.715 185.620 185.5490  0.00  0.00     0.000 OA
ATOM     73   O  SGN C   4     150.750 187.299 183.8220  0.00  0.00     0.000 O
ATOM     74   S  SGN C   4     151.523 186.731 185.1010  0.00  0.00     0.000 S
ATOM     75   O  SGN C   4     152.824 186.334 184.6030  0.00  0.00     0.000 OA
ENDBRANCH 60 70
BRANCH 56 76
ATOM     76  O4  IDS C   5     148.886 188.384 179.4000  0.00  0.00     0.000 O
BRANCH 76 80
ATOM     77  C1  IDS C   5     148.314 191.200 182.2990  0.00  0.00     0.000 C
ATOM     78  C2  IDS C   5     147.113 190.983 181.3790  0.00  0.00     0.000 C
ATOM     79  C3  IDS C   5     147.253 189.660 180.6530  0.00  0.00     0.000 C
ATOM     80  C4  IDS C   5     148.454 189.716 179.7140  0.00  0.00     0.000 C
ATOM     81  C5  IDS C   5     149.589 190.503 180.3860  0.00  0.00     0.000 C
ATOM     82  O5  IDS C   5     149.444 190.476 181.8100  0.00  0.00     0.000 O
BRANCH 78 83
ATOM     83   O  IDS C   5     145.854 190.959 182.1590  0.00  0.00     0.000 O
ATOM     84   S  IDS C   5     144.751 192.087 181.9190  0.00  0.00     0.000 S
ATOM     85   O  IDS C   5     145.453 193.342 181.9600  0.00  0.00     0.000 OA
ATOM     86   O  IDS C   5     144.186 191.794 180.6230  0.00  0.00     0.000 OA
ATOM     87   O  IDS C   5     143.796 191.933 182.9890  0.00  0.00     0.000 OA
ENDBRANCH 78 83
BRANCH 81 88
ATOM     88   C  IDS C   5     150.977 189.984 180.0580  0.00  0.00     0.000 C
ATOM     89   O  IDS C   5     151.600 189.375 180.8860  0.00  0.00     0.000 OA
ATOM     90   O  IDS C   5     151.448 190.187 178.9620  0.00  0.00     0.000 OA
ENDBRANCH 81 88
ENDBRANCH 76 80
ENDBRANCH 56 76
ENDBRANCH 55 59
ENDBRANCH 39 55
ENDBRANCH 38 42
ENDBRANCH 18 38
ENDBRANCH 17 21
ENDBRANCH 1 17
TORSDOF 18
ENDMDL
MODEL 21
REMARK VINA RESULT:      -2.0    182.719    190.022
ROOT
ATOM      1  C1  IDS C   1      69.028 119.242 185.8610  0.00  0.00     0.000 C
ATOM      2  C2  IDS C   1      70.452 119.502 185.3610  0.00  0.00     0.000 C
ATOM      3  C3  IDS C   1      70.443 119.927 183.9000  0.00  0.00     0.000 C
ATOM      4  C4  IDS C   1      69.794 118.857 183.0330  0.00  0.00     0.000 C
ATOM      5  C5  IDS C   1      68.593 118.255 183.7570  0.00  0.00     0.000 C
ATOM      6  O5  IDS C   1      68.127 119.152 184.7650  0.00  0.00     0.000 O
ATOM      7   O  IDS C   1      71.786 120.168 183.4570  0.00  0.00     0.000 O
ATOM      9  HD  IDS C   1      72.229 120.524 184.1110  0.00  0.00     0.000 HD
ENDROOT
BRANCH 2 9
ATOM      9   O  IDS C   1      71.094 120.586 186.1380  0.00  0.00     0.000 O
ATOM     10   S  IDS C   1      72.497 120.318 186.8460  0.00  0.00     0.000 S
ATOM     11   O  IDS C   1      72.854 121.558 187.5000  0.00  0.00     0.000 OA
ATOM     12   O  IDS C   1      72.262 119.236 187.7800  0.00  0.00     0.000 OA
ATOM     13   O  IDS C   1      73.413 119.960 185.7860  0.00  0.00     0.000 OA
ENDBRANCH 2 9
BRANCH 5 14
ATOM     14   C  IDS C   1      67.444 117.957 182.8090  0.00  0.00     0.000 C
ATOM     15   O  IDS C   1      67.665 117.389 181.7680  0.00  0.00     0.000 OA
ATOM     16   O  IDS C   1      66.310 118.294 183.1070  0.00  0.00     0.000 OA
ENDBRANCH 5 14
BRANCH 1 17
ATOM     17  O4  SGN C   2      68.589 119.655 187.0530  0.00  0.00     0.000 O
BRANCH 17 21
ATOM     18  C1  SGN C   2      66.340 122.041 189.6570  0.00  0.00     0.000 C
ATOM     19  C2  SGN C   2      65.917 122.045 188.1820  0.00  0.00     0.000 C
ATOM     20  C3  SGN C   2      66.532 120.840 187.4610  0.00  0.00     0.000 C
ATOM     21  C4  SGN C   2      68.042 120.816 187.6730  0.00  0.00     0.000 C
ATOM     22  C5  SGN C   2      68.334 120.808 189.1710  0.00  0.00     0.000 C
ATOM     23  O5  SGN C   2      67.744 121.974 189.7900  0.00  0.00     0.000 O
ATOM     24   O  SGN C   2      66.214 120.889 186.0810  0.00  0.00     0.000 O
ATOM     26  HD  SGN C   2      66.330 120.520 186.8560  0.00  0.00     0.000 HD
BRANCH 19 28
ATOM     26   N  SGN C   2      64.541 122.552 188.2750  0.00  0.00     0.000 N
ATOM     28  HD  SGN C   2      64.951 122.949 188.9260  0.00  0.00     0.000 HD
ATOM     28   O  SGN C   2      62.426 123.216 187.1300  0.00  0.00     0.000 OA
ATOM     29   S  SGN C   2      63.940 123.606 187.2190  0.00  0.00     0.000 S
ATOM     30   O  SGN C   2      64.043 124.891 187.7960  0.00  0.00     0.000 OA
ATOM     31   O  SGN C   2      64.549 123.350 185.9600  0.00  0.00     0.000 OA
ENDBRANCH 19 28
BRANCH 22 32
ATOM     32   C  SGN C   2      69.808 120.844 189.4920  0.00  0.00     0.000 C
ATOM     33   S  SGN C   2      71.354 121.560 191.4270  0.00  0.00     0.000 S
ATOM     34   O  SGN C   2      71.222 122.959 191.1050  0.00  0.00     0.000 OA
ATOM     35   O  SGN C   2      71.380 121.291 192.8490  0.00  0.00     0.000 OA
ATOM     36   O  SGN C   2      72.398 120.883 190.6940  0.00  0.00     0.000 OA
ATOM     37   O  SGN C   2      69.990 120.908 190.9120  0.00  0.00     0.000 O
ENDBRANCH 22 32
BRANCH 18 38
ATOM     38  O4  IDS C   3      65.882 121.319 190.6820  0.00  0.00     0.000 O
BRANCH 38 42
ATOM     39  C1  IDS C   3      64.912 118.973 193.0660  0.00  0.00     0.000 C
ATOM     40  C2  IDS C   3      64.044 119.250 191.8280  0.00  0.00     0.000 C
ATOM     41  C3  IDS C   3      63.761 120.744 191.6740  0.00  0.00     0.000 C
ATOM     42  C4  IDS C   3      65.037 121.563 191.8120  0.00  0.00     0.000 C
ATOM     43  C5  IDS C   3      65.766 121.176 193.1040  0.00  0.00     0.000 C
ATOM     44  O5  IDS C   3      66.075 119.784 193.0670  0.00  0.00     0.000 O
ATOM     45   O  IDS C   3      62.817 121.151 192.6670  0.00  0.00     0.000 O
ATOM     47  HD  IDS C   3      62.778 121.103 193.5300  0.00  0.00     0.000 HD
BRANCH 40 47
ATOM     47   O  IDS C   3      64.735 118.798 190.5970  0.00  0.00     0.000 O
ATOM     48   S  IDS C   3      64.330 117.406 189.9220  0.00  0.00     0.000 S
ATOM     49   O  IDS C   3      64.947 116.378 190.7320  0.00  0.00     0.000 OA
ATOM     50   O  IDS C   3      64.877 117.459 188.5840  0.00  0.00     0.000 OA
ATOM     51   O  IDS C   3      62.893 117.346 189.9440  0.00  0.00     0.000 OA
ENDBRANCH 40 47
BRANCH 43 52
ATOM     52   C  IDS C   3      67.033 121.972 193.3220  0.00  0.00     0.000 C
ATOM     53   O  IDS C   3      67.006 123.180 193.2570  0.00  0.00     0.000 OA
ATOM     54   O  IDS C   3      68.065 121.399 193.5610  0.00  0.00     0.000 OA
ENDBRANCH 43 52
BRANCH 39 55
ATOM     55  O4  SGN C   4      64.414 118.737 194.2800  0.00  0.00     0.000 O
BRANCH 55 59
ATOM     56  C1  SGN C   4      66.482 116.141 196.8280  0.00  0.00     0.000 C
ATOM     57  C2  SGN C   4      65.729 115.496 195.6520  0.00  0.00     0.000 C
ATOM     58  C3  SGN C   4      65.364 116.543 194.6020  0.00  0.00     0.000 C
ATOM     59  C4  SGN C   4      64.654 117.726 195.2490  0.00  0.00     0.000 C
ATOM     60  C5  SGN C   4      65.535 118.276 196.3690  0.00  0.00     0.000 C
ATOM     61  O5  SGN C   4      65.734 117.232 197.3420  0.00  0.00     0.000 O
ATOM     62   O  SGN C   4      64.545 115.950 193.6040  0.00  0.00     0.000 O
ATOM     64  HD  SGN C   4      65.029 115.297 193.9030  0.00  0.00     0.000 HD
BRANCH 57 66
ATOM     64   N  SGN C   4      65.735 114.183 196.3160  0.00  0.00     0.000 N
ATOM     66  HD  SGN C   4      65.410 113.397 196.1510  0.00  0.00     0.000 HD
ATOM     66   S  SGN C   4      66.225 112.880 195.5340  0.00  0.00     0.000 S
ATOM     67   O  SGN C   4      66.059 111.774 196.4060  0.00  0.00     0.000 OA
ATOM     68   O  SGN C   4      65.568 112.881 194.2730  0.00  0.00     0.000 OA
ATOM     69   O  SGN C   4      67.749 113.136 195.3060  0.00  0.00     0.000 OA
ENDBRANCH 57 66
BRANCH 60 70
ATOM     70   C  SGN C   4      64.939 119.468 197.0850  0.00  0.00     0.000 C
ATOM     71   O  SGN C   4      65.459 123.093 196.2520  0.00  0.00     0.000 OA
ATOM     72   O  SGN C   4      63.543 121.718 195.7180  0.00  0.00     0.000 OA
ATOM     73   O  SGN C   4      65.532 120.692 196.6100  0.00  0.00     0.000 O
ATOM     74   S  SGN C   4      64.609 121.997 196.6540  0.00  0.00     0.000 S
ATOM     75   O  SGN C   4      64.161 122.087 198.0290  0.00  0.00     0.000 OA
ENDBRANCH 60 70
BRANCH 56 76
ATOM     76  O4  IDS C   5      67.773 116.347 197.1470  0.00  0.00     0.000 O
BRANCH 76 80
ATOM     77  C1  IDS C   5      69.981 119.204 195.2450  0.00  0.00     0.000 C
ATOM     78  C2  IDS C   5      70.105 117.804 194.6460  0.00  0.00     0.000 C
ATOM     79  C3  IDS C   5      68.952 116.939 195.1160  0.00  0.00     0.000 C
ATOM     80  C4  IDS C   5      69.055 116.726 196.6240  0.00  0.00     0.000 C
ATOM     81  C5  IDS C   5      69.543 118.021 197.2880  0.00  0.00     0.000 C
ATOM     82  O5  IDS C   5      69.243 119.153 196.4660  0.00  0.00     0.000 O
BRANCH 78 83
ATOM     83   O  IDS C   5      70.074 117.862 193.1660  0.00  0.00     0.000 O
ATOM     84   S  IDS C   5      71.355 117.414 192.3280  0.00  0.00     0.000 S
ATOM     85   O  IDS C   5      72.476 118.088 192.9270  0.00  0.00     0.000 OA
ATOM     86   O  IDS C   5      71.415 115.978 192.4680  0.00  0.00     0.000 OA
ATOM     87   O  IDS C   5      71.099 117.830 190.9710  0.00  0.00     0.000 OA
ENDBRANCH 78 83
BRANCH 81 88
ATOM     88   C  IDS C   5      68.939 118.277 198.6570  0.00  0.00     0.000 C
ATOM     89   O  IDS C   5      69.313 117.641 199.6050  0.00  0.00     0.000 OA
ATOM     90   O  IDS C   5      68.084 119.123 198.7850  0.00  0.00     0.000 OA
ENDBRANCH 81 88
ENDBRANCH 76 80
ENDBRANCH 56 76
ENDBRANCH 55 59
ENDBRANCH 39 55
ENDBRANCH 38 42
ENDBRANCH 18 38
ENDBRANCH 17 21
ENDBRANCH 1 17
TORSDOF 18
ENDMDL
MODEL 22
REMARK VINA RESULT:      -2.0    182.014    189.293
ROOT
ATOM      1  C1  IDS C   1      66.855 117.746 184.5820  0.00  0.00     0.000 C
ATOM      2  C2  IDS C   1      68.279 118.005 184.0820  0.00  0.00     0.000 C
ATOM      3  C3  IDS C   1      68.270 118.431 182.6210  0.00  0.00     0.000 C
ATOM      4  C4  IDS C   1      67.620 117.361 181.7540  0.00  0.00     0.000 C
ATOM      5  C5  IDS C   1      66.420 116.759 182.4780  0.00  0.00     0.000 C
ATOM      6  O5  IDS C   1      65.954 117.656 183.4860  0.00  0.00     0.000 O
ATOM      7   O  IDS C   1      69.613 118.672 182.1780  0.00  0.00     0.000 O
ATOM      9  HD  IDS C   1      70.055 119.028 182.8320  0.00  0.00     0.000 HD
ENDROOT
BRANCH 2 9
ATOM      9   O  IDS C   1      68.920 119.090 184.8590  0.00  0.00     0.000 O
ATOM     10   S  IDS C   1      70.324 118.822 185.5670  0.00  0.00     0.000 S
ATOM     11   O  IDS C   1      70.681 120.062 186.2210  0.00  0.00     0.000 OA
ATOM     12   O  IDS C   1      70.089 117.740 186.5000  0.00  0.00     0.000 OA
ATOM     13   O  IDS C   1      71.239 118.464 184.5060  0.00  0.00     0.000 OA
ENDBRANCH 2 9
BRANCH 5 14
ATOM     14   C  IDS C   1      65.270 116.460 181.5300  0.00  0.00     0.000 C
ATOM     15   O  IDS C   1      65.490 115.883 180.4930  0.00  0.00     0.000 OA
ATOM     16   O  IDS C   1      64.139 116.807 181.8230  0.00  0.00     0.000 OA
ENDBRANCH 5 14
BRANCH 1 17
ATOM     17  O4  SGN C   2      66.416 118.159 185.7740  0.00  0.00     0.000 O
BRANCH 17 21
ATOM     18  C1  SGN C   2      64.167 120.544 188.3780  0.00  0.00     0.000 C
ATOM     19  C2  SGN C   2      63.744 120.549 186.9030  0.00  0.00     0.000 C
ATOM     20  C3  SGN C   2      64.359 119.344 186.1830  0.00  0.00     0.000 C
ATOM     21  C4  SGN C   2      65.869 119.320 186.3940  0.00  0.00     0.000 C
ATOM     22  C5  SGN C   2      66.161 119.312 187.8920  0.00  0.00     0.000 C
ATOM     23  O5  SGN C   2      65.571 120.478 188.5110  0.00  0.00     0.000 O
ATOM     24   O  SGN C   2      64.041 119.393 184.8020  0.00  0.00     0.000 O
ATOM     26  HD  SGN C   2      64.157 119.024 185.5770  0.00  0.00     0.000 HD
BRANCH 19 28
ATOM     26   N  SGN C   2      62.368 121.056 186.9960  0.00  0.00     0.000 N
ATOM     28  HD  SGN C   2      62.778 121.453 187.6480  0.00  0.00     0.000 HD
ATOM     28   O  SGN C   2      60.253 121.721 185.8510  0.00  0.00     0.000 OA
ATOM     29   S  SGN C   2      61.767 122.110 185.9410  0.00  0.00     0.000 S
ATOM     30   O  SGN C   2      61.870 123.396 186.5170  0.00  0.00     0.000 OA
ATOM     31   O  SGN C   2      62.376 121.854 184.6820  0.00  0.00     0.000 OA
ENDBRANCH 19 28
BRANCH 22 32
ATOM     32   C  SGN C   2      67.635 119.347 188.2130  0.00  0.00     0.000 C
ATOM     33   S  SGN C   2      69.181 120.061 190.1490  0.00  0.00     0.000 S
ATOM     34   O  SGN C   2      69.048 121.460 189.8290  0.00  0.00     0.000 OA
ATOM     35   O  SGN C   2      69.207 119.790 191.5710  0.00  0.00     0.000 OA
ATOM     36   O  SGN C   2      70.225 119.385 189.4150  0.00  0.00     0.000 OA
ATOM     37   O  SGN C   2      67.817 119.409 189.6330  0.00  0.00     0.000 O
ENDBRANCH 22 32
BRANCH 18 38
ATOM     38  O4  IDS C   3      63.709 119.823 189.4030  0.00  0.00     0.000 O
BRANCH 38 42
ATOM     39  C1  IDS C   3      62.738 117.477 191.7870  0.00  0.00     0.000 C
ATOM     40  C2  IDS C   3      61.870 117.754 190.5490  0.00  0.00     0.000 C
ATOM     41  C3  IDS C   3      61.588 119.248 190.3950  0.00  0.00     0.000 C
ATOM     42  C4  IDS C   3      62.864 120.067 190.5330  0.00  0.00     0.000 C
ATOM     43  C5  IDS C   3      63.592 119.680 191.8250  0.00  0.00     0.000 C
ATOM     44  O5  IDS C   3      63.901 118.288 191.7880  0.00  0.00     0.000 O
ATOM     45   O  IDS C   3      60.644 119.655 191.3870  0.00  0.00     0.000 O
ATOM     47  HD  IDS C   3      60.604 119.607 192.2510  0.00  0.00     0.000 HD
BRANCH 40 47
ATOM     47   O  IDS C   3      62.561 117.303 189.3170  0.00  0.00     0.000 O
ATOM     48   S  IDS C   3      62.156 115.911 188.6420  0.00  0.00     0.000 S
ATOM     49   O  IDS C   3      62.771 114.882 189.4520  0.00  0.00     0.000 OA
ATOM     50   O  IDS C   3      62.703 115.964 187.3040  0.00  0.00     0.000 OA
ATOM     51   O  IDS C   3      60.718 115.852 188.6630  0.00  0.00     0.000 OA
ENDBRANCH 40 47
BRANCH 43 52
ATOM     52   C  IDS C   3      64.860 120.476 192.0440  0.00  0.00     0.000 C
ATOM     53   O  IDS C   3      64.832 121.683 191.9800  0.00  0.00     0.000 OA
ATOM     54   O  IDS C   3      65.892 119.902 192.2820  0.00  0.00     0.000 OA
ENDBRANCH 43 52
BRANCH 39 55
ATOM     55  O4  SGN C   4      62.240 117.241 193.0010  0.00  0.00     0.000 O
BRANCH 55 59
ATOM     56  C1  SGN C   4      64.305 114.643 195.5480  0.00  0.00     0.000 C
ATOM     57  C2  SGN C   4      63.553 113.998 194.3710  0.00  0.00     0.000 C
ATOM     58  C3  SGN C   4      63.189 115.046 193.3220  0.00  0.00     0.000 C
ATOM     59  C4  SGN C   4      62.478 116.230 193.9690  0.00  0.00     0.000 C
ATOM     60  C5  SGN C   4      63.359 116.778 195.0890  0.00  0.00     0.000 C
ATOM     61  O5  SGN C   4      63.557 115.733 196.0620  0.00  0.00     0.000 O
ATOM     62   O  SGN C   4      62.369 114.454 192.3230  0.00  0.00     0.000 O
ATOM     64  HD  SGN C   4      62.853 113.801 192.6220  0.00  0.00     0.000 HD
BRANCH 57 66
ATOM     64   N  SGN C   4      63.558 112.685 195.0350  0.00  0.00     0.000 N
ATOM     66  HD  SGN C   4      63.232 111.899 194.8700  0.00  0.00     0.000 HD
ATOM     66   S  SGN C   4      64.047 111.382 194.2530  0.00  0.00     0.000 S
ATOM     67   O  SGN C   4      63.880 110.276 195.1240  0.00  0.00     0.000 OA
ATOM     68   O  SGN C   4      63.391 111.384 192.9910  0.00  0.00     0.000 OA
ATOM     69   O  SGN C   4      65.571 111.637 194.0250  0.00  0.00     0.000 OA
ENDBRANCH 57 66
BRANCH 60 70
ATOM     70   C  SGN C   4      62.763 117.970 195.8060  0.00  0.00     0.000 C
ATOM     71   O  SGN C   4      63.286 121.596 194.9750  0.00  0.00     0.000 OA
ATOM     72   O  SGN C   4      61.369 120.222 194.4400  0.00  0.00     0.000 OA
ATOM     73   O  SGN C   4      63.357 119.194 195.3310  0.00  0.00     0.000 O
ATOM     74   S  SGN C   4      62.435 120.499 195.3760  0.00  0.00     0.000 S
ATOM     75   O  SGN C   4      61.986 120.589 196.7510  0.00  0.00     0.000 OA
ENDBRANCH 60 70
BRANCH 56 76
ATOM     76  O4  IDS C   5      65.596 114.848 195.8680  0.00  0.00     0.000 O
BRANCH 76 80
ATOM     77  C1  IDS C   5      67.806 117.706 193.9690  0.00  0.00     0.000 C
ATOM     78  C2  IDS C   5      67.930 116.306 193.3690  0.00  0.00     0.000 C
ATOM     79  C3  IDS C   5      66.776 115.441 193.8380  0.00  0.00     0.000 C
ATOM     80  C4  IDS C   5      66.878 115.227 195.3450  0.00  0.00     0.000 C
ATOM     81  C5  IDS C   5      67.367 116.522 196.0110  0.00  0.00     0.000 C
ATOM     82  O5  IDS C   5      67.067 117.654 195.1890  0.00  0.00     0.000 O
BRANCH 78 83
ATOM     83   O  IDS C   5      67.899 116.365 191.8890  0.00  0.00     0.000 O
ATOM     84   S  IDS C   5      69.180 115.915 191.0510  0.00  0.00     0.000 S
ATOM     85   O  IDS C   5      70.302 116.586 191.6510  0.00  0.00     0.000 OA
ATOM     86   O  IDS C   5      69.237 114.478 191.1890  0.00  0.00     0.000 OA
ATOM     87   O  IDS C   5      68.925 116.333 189.6940  0.00  0.00     0.000 OA
ENDBRANCH 78 83
BRANCH 81 88
ATOM     88   C  IDS C   5      66.762 116.777 197.3790  0.00  0.00     0.000 C
ATOM     89   O  IDS C   5      67.136 116.139 198.3270  0.00  0.00     0.000 OA
ATOM     90   O  IDS C   5      65.907 117.623 197.5080  0.00  0.00     0.000 OA
ENDBRANCH 81 88
ENDBRANCH 76 80
ENDBRANCH 56 76
ENDBRANCH 55 59
ENDBRANCH 39 55
ENDBRANCH 38 42
ENDBRANCH 18 38
ENDBRANCH 17 21
ENDBRANCH 1 17
TORSDOF 18
ENDMDL
MODEL 23
REMARK VINA RESULT:      -2.0    141.276    145.803
ROOT
ATOM      1  C1  IDS C   1      96.628  39.391 187.8310  0.00  0.00     0.000 C
ATOM      2  C2  IDS C   1      96.752  38.183 186.8990  0.00  0.00     0.000 C
ATOM      3  C3  IDS C   1      95.889  37.030 187.3910  0.00  0.00     0.000 C
ATOM      4  C4  IDS C   1      96.292  36.621 188.8010  0.00  0.00     0.000 C
ATOM      5  C5  IDS C   1      96.622  37.857 189.6310  0.00  0.00     0.000 C
ATOM      6  O5  IDS C   1      96.011  39.012 189.0550  0.00  0.00     0.000 O
ATOM      7   O  IDS C   1      96.018  35.913 186.5000  0.00  0.00     0.000 O
ATOM      9  HD  IDS C   1      96.089  36.216 185.6920  0.00  0.00     0.000 HD
ENDROOT
BRANCH 2 9
ATOM      9   O  IDS C   1      96.304  38.525 185.5310  0.00  0.00     0.000 O
ATOM     10   S  IDS C   1      97.296  38.302 184.3020  0.00  0.00     0.000 S
ATOM     11   O  IDS C   1      96.565  38.711 183.1230  0.00  0.00     0.000 OA
ATOM     12   O  IDS C   1      98.445  39.141 184.5730  0.00  0.00     0.000 OA
ATOM     13   O  IDS C   1      97.615  36.891 184.3030  0.00  0.00     0.000 OA
ENDBRANCH 2 9
BRANCH 5 14
ATOM     14   C  IDS C   1      96.146  37.727 191.0680  0.00  0.00     0.000 C
ATOM     15   O  IDS C   1      96.425  36.737 191.6980  0.00  0.00     0.000 OA
ATOM     16   O  IDS C   1      95.485  38.621 191.5700  0.00  0.00     0.000 OA
ENDBRANCH 5 14
BRANCH 1 17
ATOM     17  O4  SGN C   2      96.510  40.645 187.3850  0.00  0.00     0.000 O
BRANCH 17 21
ATOM     18  C1  SGN C   2      94.504  44.275 186.8170  0.00  0.00     0.000 C
ATOM     19  C2  SGN C   2      93.880  43.295 187.8190  0.00  0.00     0.000 C
ATOM     20  C3  SGN C   2      94.916  42.242 188.2280  0.00  0.00     0.000 C
ATOM     21  C4  SGN C   2      95.503  41.573 186.9900  0.00  0.00     0.000 C
ATOM     22  C5  SGN C   2      96.094  42.645 186.0790  0.00  0.00     0.000 C
ATOM     23  O5  SGN C   2      95.068  43.597 185.7150  0.00  0.00     0.000 O
ATOM     24   O  SGN C   2      94.318  41.285 189.0860  0.00  0.00     0.000 O
ATOM     26  HD  SGN C   2      94.935  41.824 188.8070  0.00  0.00     0.000 HD
BRANCH 19 28
ATOM     26   N  SGN C   2      93.015  44.189 188.6020  0.00  0.00     0.000 N
ATOM     28  HD  SGN C   2      93.019  44.546 187.8120  0.00  0.00     0.000 HD
ATOM     28   O  SGN C   2      91.351  44.484 190.4360  0.00  0.00     0.000 OA
ATOM     29   S  SGN C   2      91.531  43.767 189.0560  0.00  0.00     0.000 S
ATOM     30   O  SGN C   2      90.626  44.332 188.1310  0.00  0.00     0.000 OA
ATOM     31   O  SGN C   2      91.529  42.361 189.2720  0.00  0.00     0.000 OA
ENDBRANCH 19 28
BRANCH 22 32
ATOM     32   C  SGN C   2      96.653  42.092 184.7900  0.00  0.00     0.000 C
ATOM     33   S  SGN C   2      97.996  42.915 182.7500  0.00  0.00     0.000 S
ATOM     34   O  SGN C   2      96.847  43.561 182.1680  0.00  0.00     0.000 OA
ATOM     35   O  SGN C   2      99.227  43.660 182.5870  0.00  0.00     0.000 OA
ATOM     36   O  SGN C   2      98.121  41.517 182.4100  0.00  0.00     0.000 OA
ATOM     37   O  SGN C   2      97.708  42.940 184.3200  0.00  0.00     0.000 O
ENDBRANCH 22 32
BRANCH 18 38
ATOM     38  O4  IDS C   3      95.327  45.307 187.0190  0.00  0.00     0.000 O
BRANCH 38 42
ATOM     39  C1  IDS C   3      97.380  47.744 188.4240  0.00  0.00     0.000 C
ATOM     40  C2  IDS C   3      95.992  47.443 189.0120  0.00  0.00     0.000 C
ATOM     41  C3  IDS C   3      94.910  47.499 187.9330  0.00  0.00     0.000 C
ATOM     42  C4  IDS C   3      95.319  46.703 186.7010  0.00  0.00     0.000 C
ATOM     43  C5  IDS C   3      96.713  47.142 186.2380  0.00  0.00     0.000 C
ATOM     44  O5  IDS C   3      97.646  46.927 187.2960  0.00  0.00     0.000 O
ATOM     45   O  IDS C   3      94.674  48.861 187.5700  0.00  0.00     0.000 O
ATOM     47  HD  IDS C   3      95.169  49.514 187.2890  0.00  0.00     0.000 HD
BRANCH 40 47
ATOM     47   O  IDS C   3      95.961  46.084 189.6020  0.00  0.00     0.000 O
ATOM     48   S  IDS C   3      95.142  45.820 190.9500  0.00  0.00     0.000 S
ATOM     49   O  IDS C   3      95.961  46.346 192.0210  0.00  0.00     0.000 OA
ATOM     50   O  IDS C   3      94.987  44.384 191.0270  0.00  0.00     0.000 OA
ATOM     51   O  IDS C   3      93.892  46.518 190.8100  0.00  0.00     0.000 OA
ENDBRANCH 40 47
BRANCH 43 52
ATOM     52   C  IDS C   3      97.175  46.410 184.9970  0.00  0.00     0.000 C
ATOM     53   O  IDS C   3      98.324  46.043 184.9070  0.00  0.00     0.000 OA
ATOM     54   O  IDS C   3      96.395  46.196 184.1050  0.00  0.00     0.000 OA
ENDBRANCH 43 52
BRANCH 39 55
ATOM     55  O4  SGN C   4      97.896  48.970 188.3390  0.00  0.00     0.000 O
BRANCH 55 59
ATOM     56  C1  SGN C   4     102.049  49.292 187.9520  0.00  0.00     0.000 C
ATOM     57  C2  SGN C   4     101.511  48.998 189.3630  0.00  0.00     0.000 C
ATOM     58  C3  SGN C   4     100.063  48.519 189.3010  0.00  0.00     0.000 C
ATOM     59  C4  SGN C   4      99.214  49.481 188.4760  0.00  0.00     0.000 C
ATOM     60  C5  SGN C   4      99.855  49.644 187.1000  0.00  0.00     0.000 C
ATOM     61  O5  SGN C   4     101.179  50.187 187.2780  0.00  0.00     0.000 O
ATOM     62   O  SGN C   4      99.545  48.398 190.6190  0.00  0.00     0.000 O
ATOM     64  HD  SGN C   4     100.396  48.263 190.7070  0.00  0.00     0.000 HD
BRANCH 57 66
ATOM     64   N  SGN C   4     102.761  49.461 189.9850  0.00  0.00     0.000 N
ATOM     66  HD  SGN C   4     103.054  49.573 190.7930  0.00  0.00     0.000 HD
ATOM     66   S  SGN C   4     103.513  48.559 191.0660  0.00  0.00     0.000 S
ATOM     67   O  SGN C   4     104.638  49.292 191.5220  0.00  0.00     0.000 OA
ATOM     68   O  SGN C   4     102.533  48.128 192.0020  0.00  0.00     0.000 OA
ATOM     69   O  SGN C   4     103.998  47.322 190.2440  0.00  0.00     0.000 OA
ENDBRANCH 57 66
BRANCH 60 70
ATOM     70   C  SGN C   4      99.095  50.574 186.1790  0.00  0.00     0.000 C
ATOM     71   O  SGN C   4      96.673  49.593 183.4810  0.00  0.00     0.000 OA
ATOM     72   O  SGN C   4      96.159  50.420 185.6940  0.00  0.00     0.000 OA
ATOM     73   O  SGN C   4      98.428  49.825 185.1440  0.00  0.00     0.000 O
ATOM     74   S  SGN C   4      97.071  50.450 184.5740  0.00  0.00     0.000 S
ATOM     75   O  SGN C   4      97.428  51.791 184.1560  0.00  0.00     0.000 OA
ENDBRANCH 60 70
BRANCH 56 76
ATOM     76  O4  IDS C   5     102.725  48.600 187.0170  0.00  0.00     0.000 O
BRANCH 76 80
ATOM     77  C1  IDS C   5     101.794  45.662 184.3420  0.00  0.00     0.000 C
ATOM     78  C2  IDS C   5     101.895  45.190 185.7920  0.00  0.00     0.000 C
ATOM     79  C3  IDS C   5     101.802  46.380 186.7270  0.00  0.00     0.000 C
ATOM     80  C4  IDS C   5     103.016  47.282 186.5280  0.00  0.00     0.000 C
ATOM     81  C5  IDS C   5     103.375  47.331 185.0360  0.00  0.00     0.000 C
ATOM     82  O5  IDS C   5     102.233  47.016 184.2340  0.00  0.00     0.000 O
BRANCH 78 83
ATOM     83   O  IDS C   5     100.794  44.253 186.1160  0.00  0.00     0.000 O
ATOM     84   S  IDS C   5     101.128  42.817 186.7250  0.00  0.00     0.000 S
ATOM     85   O  IDS C   5     102.156  42.262 185.8860  0.00  0.00     0.000 OA
ATOM     86   O  IDS C   5     101.573  43.073 188.0750  0.00  0.00     0.000 OA
ATOM     87   O  IDS C   5      99.892  42.075 186.6780  0.00  0.00     0.000 OA
ENDBRANCH 78 83
BRANCH 81 88
ATOM     88   C  IDS C   5     103.903  48.676 184.5730  0.00  0.00     0.000 C
ATOM     89   O  IDS C   5     103.179  49.432 183.9810  0.00  0.00     0.000 OA
ATOM     90   O  IDS C   5     105.050  48.981 184.8040  0.00  0.00     0.000 OA
ENDBRANCH 81 88
ENDBRANCH 76 80
ENDBRANCH 56 76
ENDBRANCH 55 59
ENDBRANCH 39 55
ENDBRANCH 38 42
ENDBRANCH 18 38
ENDBRANCH 17 21
ENDBRANCH 1 17
TORSDOF 18
ENDMDL
MODEL 24
REMARK VINA RESULT:      -1.9    165.596    171.271
ROOT
ATOM      1  C1  IDS C   1      18.525 126.004  46.7190  0.00  0.00     0.000 C
ATOM      2  C2  IDS C   1      17.411 126.228  45.6940  0.00  0.00     0.000 C
ATOM      3  C3  IDS C   1      16.229 125.310  45.9710  0.00  0.00     0.000 C
ATOM      4  C4  IDS C   1      16.661 123.851  45.9320  0.00  0.00     0.000 C
ATOM      5  C5  IDS C   1      18.035 123.695  46.5760  0.00  0.00     0.000 C
ATOM      6  O5  IDS C   1      18.300 124.799  47.4410  0.00  0.00     0.000 O
ATOM      7   O  IDS C   1      15.198 125.541  45.0000  0.00  0.00     0.000 O
ATOM      9  HD  IDS C   1      15.181 126.388  44.8170  0.00  0.00     0.000 HD
ENDROOT
BRANCH 2 9
ATOM      9   O  IDS C   1      16.916 127.622  45.7490  0.00  0.00     0.000 O
ATOM     10   S  IDS C   1      16.904 128.502  44.4190  0.00  0.00     0.000 S
ATOM     11   O  IDS C   1      16.360 129.787  44.8000  0.00  0.00     0.000 OA
ATOM     12   O  IDS C   1      18.285 128.579  43.9900  0.00  0.00     0.000 OA
ATOM     13   O  IDS C   1      16.061 127.791  43.4830  0.00  0.00     0.000 OA
ENDBRANCH 2 9
BRANCH 5 14
ATOM     14   C  IDS C   1      18.147 122.413  47.3840  0.00  0.00     0.000 C
ATOM     15   O  IDS C   1      18.525 122.464  48.5290  0.00  0.00     0.000 OA
ATOM     16   O  IDS C   1      17.856 121.346  46.8700  0.00  0.00     0.000 OA
ENDBRANCH 5 14
BRANCH 1 17
ATOM     17  O4  SGN C   2      19.203 127.005  47.2880  0.00  0.00     0.000 O
BRANCH 17 21
ATOM     18  C1  SGN C   2      20.310 129.544  50.4270  0.00  0.00     0.000 C
ATOM     19  C2  SGN C   2      19.574 128.255  50.8130  0.00  0.00     0.000 C
ATOM     20  C3  SGN C   2      19.619 127.261  49.6460  0.00  0.00     0.000 C
ATOM     21  C4  SGN C   2      19.093 127.919  48.3760  0.00  0.00     0.000 C
ATOM     22  C5  SGN C   2      19.903 129.181  48.0950  0.00  0.00     0.000 C
ATOM     23  O5  SGN C   2      19.808 130.083  49.2220  0.00  0.00     0.000 O
ATOM     24   O  SGN C   2      18.866 126.104  49.9680  0.00  0.00     0.000 O
ATOM     26  HD  SGN C   2      19.535 126.552  49.6490  0.00  0.00     0.000 HD
BRANCH 19 28
ATOM     26   N  SGN C   2      19.922 128.135  52.2350  0.00  0.00     0.000 N
ATOM     28  HD  SGN C   2      19.892 128.990  52.1020  0.00  0.00     0.000 HD
ATOM     28   O  SGN C   2      19.725 126.886  54.3860  0.00  0.00     0.000 OA
ATOM     29   S  SGN C   2      18.856 127.668  53.3450  0.00  0.00     0.000 S
ATOM     30   O  SGN C   2      18.348 128.832  53.9640  0.00  0.00     0.000 OA
ATOM     31   O  SGN C   2      17.960 126.754  52.7240  0.00  0.00     0.000 OA
ENDBRANCH 19 28
BRANCH 22 32
ATOM     32   C  SGN C   2      19.424 129.944  46.8850  0.00  0.00     0.000 C
ATOM     33   S  SGN C   2      19.486 132.348  45.9590  0.00  0.00     0.000 S
ATOM     34   O  SGN C   2      18.449 132.793  46.8550  0.00  0.00     0.000 OA
ATOM     35   O  SGN C   2      20.536 133.324  45.7550  0.00  0.00     0.000 OA
ATOM     36   O  SGN C   2      18.994 131.768  44.7310  0.00  0.00     0.000 OA
ATOM     37   O  SGN C   2      20.189 131.145  46.7380  0.00  0.00     0.000 O
ENDBRANCH 22 32
BRANCH 18 38
ATOM     38  O4  IDS C   3      21.617 129.809  50.3810  0.00  0.00     0.000 O
BRANCH 38 42
ATOM     39  C1  IDS C   3      25.042 130.104  49.8250  0.00  0.00     0.000 C
ATOM     40  C2  IDS C   3      24.479 128.992  50.7240  0.00  0.00     0.000 C
ATOM     41  C3  IDS C   3      23.554 129.565  51.7970  0.00  0.00     0.000 C
ATOM     42  C4  IDS C   3      22.545 130.534  51.1950  0.00  0.00     0.000 C
ATOM     43  C5  IDS C   3      23.275 131.584  50.3490  0.00  0.00     0.000 C
ATOM     44  O5  IDS C   3      24.004 130.925  49.3150  0.00  0.00     0.000 O
ATOM     45   O  IDS C   3      24.336 130.236  52.7870  0.00  0.00     0.000 O
ATOM     47  HD  IDS C   3      24.925 130.871  52.7750  0.00  0.00     0.000 HD
BRANCH 40 47
ATOM     47   O  IDS C   3      23.688 128.027  49.9250  0.00  0.00     0.000 O
ATOM     48   S  IDS C   3      24.337 126.629  49.4970  0.00  0.00     0.000 S
ATOM     49   O  IDS C   3      25.227 126.925  48.3940  0.00  0.00     0.000 OA
ATOM     50   O  IDS C   3      23.222 125.798  49.0990  0.00  0.00     0.000 OA
ATOM     51   O  IDS C   3      25.030 126.131  50.6550  0.00  0.00     0.000 OA
ENDBRANCH 40 47
BRANCH 43 52
ATOM     52   C  IDS C   3      22.336 132.601  49.7390  0.00  0.00     0.000 C
ATOM     53   O  IDS C   3      22.386 132.832  48.5530  0.00  0.00     0.000 OA
ATOM     54   O  IDS C   3      21.543 133.176  50.4390  0.00  0.00     0.000 OA
ENDBRANCH 43 52
BRANCH 39 55
ATOM     55  O4  SGN C   4      26.175 130.759  50.0810  0.00  0.00     0.000 O
BRANCH 55 59
ATOM     56  C1  SGN C   4      28.507 132.069  46.8640  0.00  0.00     0.000 C
ATOM     57  C2  SGN C   4      28.519 130.558  47.1520  0.00  0.00     0.000 C
ATOM     58  C3  SGN C   4      27.356 130.170  48.0610  0.00  0.00     0.000 C
ATOM     59  C4  SGN C   4      27.321 131.061  49.2980  0.00  0.00     0.000 C
ATOM     60  C5  SGN C   4      27.277 132.520  48.8510  0.00  0.00     0.000 C
ATOM     61  O5  SGN C   4      28.466 132.794  48.0830  0.00  0.00     0.000 O
ATOM     62   O  SGN C   4      27.476 128.803  48.4300  0.00  0.00     0.000 O
ATOM     64  HD  SGN C   4      27.864 128.854  47.6570  0.00  0.00     0.000 HD
BRANCH 57 66
ATOM     64   N  SGN C   4      29.772 130.384  46.4000  0.00  0.00     0.000 N
ATOM     66  HD  SGN C   4      30.317 129.731  46.2340  0.00  0.00     0.000 HD
ATOM     66   S  SGN C   4      29.897 129.252  45.2820  0.00  0.00     0.000 S
ATOM     67   O  SGN C   4      31.224 129.290  44.7840  0.00  0.00     0.000 OA
ATOM     68   O  SGN C   4      29.400 128.048  45.8520  0.00  0.00     0.000 OA
ATOM     69   O  SGN C   4      28.911 129.722  44.1660  0.00  0.00     0.000 OA
ENDBRANCH 57 66
BRANCH 60 70
ATOM     70   C  SGN C   4      27.230 133.508  49.9970  0.00  0.00     0.000 C
ATOM     71   O  SGN C   4      24.158 134.949  51.6070  0.00  0.00     0.000 OA
ATOM     72   O  SGN C   4      25.558 133.162  52.4390  0.00  0.00     0.000 OA
ATOM     73   O  SGN C   4      25.885 133.984  50.1980  0.00  0.00     0.000 O
ATOM     74   S  SGN C   4      25.490 134.397  51.6910  0.00  0.00     0.000 S
ATOM     75   O  SGN C   4      26.493 135.366  52.0850  0.00  0.00     0.000 OA
ENDBRANCH 60 70
BRANCH 56 76
ATOM     76  O4  IDS C   5      27.999 132.861  45.9020  0.00  0.00     0.000 O
BRANCH 76 80
ATOM     77  C1  IDS C   5      23.995 133.629  45.7080  0.00  0.00     0.000 C
ATOM     78  C2  IDS C   5      24.461 132.466  44.8330  0.00  0.00     0.000 C
ATOM     79  C3  IDS C   5      25.824 131.988  45.2960  0.00  0.00     0.000 C
ATOM     80  C4  IDS C   5      26.857 133.086  45.0620  0.00  0.00     0.000 C
ATOM     81  C5  IDS C   5      26.226 134.451  45.3690  0.00  0.00     0.000 C
ATOM     82  O5  IDS C   5      25.122 134.305  46.2670  0.00  0.00     0.000 O
BRANCH 78 83
ATOM     83   O  IDS C   5      23.512 131.332  44.9200  0.00  0.00     0.000 O
ATOM     84   S  IDS C   5      22.706 130.871  43.6230  0.00  0.00     0.000 S
ATOM     85   O  IDS C   5      22.150 132.071  43.0560  0.00  0.00     0.000 OA
ATOM     86   O  IDS C   5      23.687 130.242  42.7710  0.00  0.00     0.000 OA
ATOM     87   O  IDS C   5      21.704 129.946  44.0940  0.00  0.00     0.000 OA
ENDBRANCH 78 83
BRANCH 81 88
ATOM     88   C  IDS C   5      27.188 135.450  45.9860  0.00  0.00     0.000 C
ATOM     89   O  IDS C   5      27.113 135.708  47.1580  0.00  0.00     0.000 OA
ATOM     90   O  IDS C   5      28.027 135.980  45.2940  0.00  0.00     0.000 OA
ENDBRANCH 81 88
ENDBRANCH 76 80
ENDBRANCH 56 76
ENDBRANCH 55 59
ENDBRANCH 39 55
ENDBRANCH 38 42
ENDBRANCH 18 38
ENDBRANCH 17 21
ENDBRANCH 1 17
TORSDOF 18
ENDMDL
MODEL 25
REMARK VINA RESULT:      -1.9    125.649    130.833
ROOT
ATOM      1  C1  IDS C   1      66.401 114.469  76.8400  0.00  0.00     0.000 C
ATOM      2  C2  IDS C   1      65.158 114.566  77.7300  0.00  0.00     0.000 C
ATOM      3  C3  IDS C   1      65.391 113.866  79.0620  0.00  0.00     0.000 C
ATOM      4  C4  IDS C   1      65.740 112.400  78.8440  0.00  0.00     0.000 C
ATOM      5  C5  IDS C   1      66.651 112.254  77.6290  0.00  0.00     0.000 C
ATOM      6  O5  IDS C   1      67.301 113.494  77.3500  0.00  0.00     0.000 O
ATOM      7   O  IDS C   1      64.217 113.975  79.8780  0.00  0.00     0.000 O
ATOM      9  HD  IDS C   1      63.862 114.753  79.7430  0.00  0.00     0.000 HD
ENDROOT
BRANCH 2 9
ATOM      9   O  IDS C   1      64.828 115.979  78.0210  0.00  0.00     0.000 O
ATOM     10   S  IDS C   1      63.373 116.531  77.6720  0.00  0.00     0.000 S
ATOM     11   O  IDS C   1      63.366 117.918  78.0830  0.00  0.00     0.000 OA
ATOM     12   O  IDS C   1      63.227 116.367  76.2400  0.00  0.00     0.000 OA
ATOM     13   O  IDS C   1      62.449 115.717  78.4300  0.00  0.00     0.000 OA
ENDBRANCH 2 9
BRANCH 5 14
ATOM     14   C  IDS C   1      67.714 111.188  77.8360  0.00  0.00     0.000 C
ATOM     15   O  IDS C   1      67.417 110.149  78.3720  0.00  0.00     0.000 OA
ATOM     16   O  IDS C   1      68.856 111.392  77.4610  0.00  0.00     0.000 OA
ENDBRANCH 5 14
BRANCH 1 17
ATOM     17  O4  SGN C   2      66.866 115.497  76.1250  0.00  0.00     0.000 O
BRANCH 17 21
ATOM     18  C1  SGN C   2      69.648 118.469  75.1480  0.00  0.00     0.000 C
ATOM     19  C2  SGN C   2      70.119 117.381  76.1220  0.00  0.00     0.000 C
ATOM     20  C3  SGN C   2      69.176 116.173  76.0470  0.00  0.00     0.000 C
ATOM     21  C4  SGN C   2      67.734 116.618  76.2640  0.00  0.00     0.000 C
ATOM     22  C5  SGN C   2      67.385 117.693  75.2380  0.00  0.00     0.000 C
ATOM     23  O5  SGN C   2      68.295 118.809  75.3690  0.00  0.00     0.000 O
ATOM     24   O  SGN C   2      69.558 115.203  77.0070  0.00  0.00     0.000 O
ATOM     26  HD  SGN C   2      69.290 115.495  76.2370  0.00  0.00     0.000 HD
BRANCH 19 28
ATOM     26   N  SGN C   2      71.579 117.514  76.0260  0.00  0.00     0.000 N
ATOM     28  HD  SGN C   2      71.290 118.323  75.9150  0.00  0.00     0.000 HD
ATOM     28   O  SGN C   2      73.846 116.753  76.7360  0.00  0.00     0.000 OA
ATOM     29   S  SGN C   2      72.539 117.396  77.3100  0.00  0.00     0.000 S
ATOM     30   O  SGN C   2      72.833 118.708  77.7440  0.00  0.00     0.000 OA
ATOM     31   O  SGN C   2      71.940 116.475  78.2130  0.00  0.00     0.000 OA
ENDBRANCH 19 28
BRANCH 22 32
ATOM     32   C  SGN C   2      65.991 118.247  75.4030  0.00  0.00     0.000 C
ATOM     33   S  SGN C   2      64.414 119.911  74.2250  0.00  0.00     0.000 S
ATOM     34   O  SGN C   2      65.110 121.054  74.7600  0.00  0.00     0.000 OA
ATOM     35   O  SGN C   2      63.973 120.086  72.8570  0.00  0.00     0.000 OA
ATOM     36   O  SGN C   2      63.390 119.384  75.0960  0.00  0.00     0.000 OA
ATOM     37   O  SGN C   2      65.529 118.771  74.1520  0.00  0.00     0.000 O
ENDBRANCH 22 32
BRANCH 18 38
ATOM     38  O4  IDS C   3      69.794 118.562  73.8250  0.00  0.00     0.000 O
BRANCH 38 42
ATOM     39  C1  IDS C   3      71.053 117.996  70.6280  0.00  0.00     0.000 C
ATOM     40  C2  IDS C   3      71.988 118.071  71.8450  0.00  0.00     0.000 C
ATOM     41  C3  IDS C   3      71.747 119.348  72.6490  0.00  0.00     0.000 C
ATOM     42  C4  IDS C   3      70.263 119.561  72.9130  0.00  0.00     0.000 C
ATOM     43  C5  IDS C   3      69.483 119.474  71.5950  0.00  0.00     0.000 C
ATOM     44  O5  IDS C   3      69.701 118.193  71.0080  0.00  0.00     0.000 O
ATOM     45   O  IDS C   3      72.275 120.466  71.9320  0.00  0.00     0.000 O
ATOM     47  HD  IDS C   3      72.161 120.792  71.1380  0.00  0.00     0.000 HD
BRANCH 40 47
ATOM     47   O  IDS C   3      71.754 116.923  72.7530  0.00  0.00     0.000 O
ATOM     48   S  IDS C   3      72.896 115.822  72.9540  0.00  0.00     0.000 S
ATOM     49   O  IDS C   3      72.857 114.988  71.7710  0.00  0.00     0.000 OA
ATOM     50   O  IDS C   3      72.523 115.101  74.1510  0.00  0.00     0.000 OA
ATOM     51   O  IDS C   3      74.135 116.541  73.0890  0.00  0.00     0.000 OA
ENDBRANCH 40 47
BRANCH 43 52
ATOM     52   C  IDS C   3      67.999 119.705  71.7760  0.00  0.00     0.000 C
ATOM     53   O  IDS C   3      67.609 120.693  72.3530  0.00  0.00     0.000 OA
ATOM     54   O  IDS C   3      67.213 118.901  71.3430  0.00  0.00     0.000 OA
ENDBRANCH 43 52
BRANCH 39 55
ATOM     55  O4  SGN C   4      71.358 118.496  69.4300  0.00  0.00     0.000 O
BRANCH 55 59
ATOM     56  C1  SGN C   4      70.011 116.507  66.0040  0.00  0.00     0.000 C
ATOM     57  C2  SGN C   4      71.149 115.832  66.7890  0.00  0.00     0.000 C
ATOM     58  C3  SGN C   4      71.270 116.428  68.1880  0.00  0.00     0.000 C
ATOM     59  C4  SGN C   4      71.351 117.949  68.1190  0.00  0.00     0.000 C
ATOM     60  C5  SGN C   4      70.143 118.470  67.3430  0.00  0.00     0.000 C
ATOM     61  O5  SGN C   4      70.185 117.915  66.0140  0.00  0.00     0.000 O
ATOM     62   O  SGN C   4      72.417 115.894  68.8360  0.00  0.00     0.000 O
ATOM     64  HD  SGN C   4      72.172 115.274  68.2830  0.00  0.00     0.000 HD
BRANCH 57 66
ATOM     64   N  SGN C   4      71.527 115.016  65.6230  0.00  0.00     0.000 N
ATOM     66  HD  SGN C   4      72.149 114.444  65.4360  0.00  0.00     0.000 HD
ATOM     66   S  SGN C   4      71.712 113.437  65.7640  0.00  0.00     0.000 S
ATOM     67   O  SGN C   4      72.132 112.945  64.5020  0.00  0.00     0.000 OA
ATOM     68   O  SGN C   4      72.527 113.214  66.9080  0.00  0.00     0.000 OA
ATOM     69   O  SGN C   4      70.270 112.920  66.0680  0.00  0.00     0.000 OA
ENDBRANCH 57 66
BRANCH 60 70
ATOM     70   C  SGN C   4      70.104 119.977  67.2130  0.00  0.00     0.000 C
ATOM     71   O  SGN C   4      68.471 122.403  69.5700  0.00  0.00     0.000 OA
ATOM     72   O  SGN C   4      70.823 121.866  69.4030  0.00  0.00     0.000 OA
ATOM     73   O  SGN C   4      69.213 120.546  68.1920  0.00  0.00     0.000 O
ATOM     74   S  SGN C   4      69.564 122.017  68.7080  0.00  0.00     0.000 S
ATOM     75   O  SGN C   4      69.662 122.819  67.5050  0.00  0.00     0.000 OA
ENDBRANCH 60 70
BRANCH 56 76
ATOM     76  O4  IDS C   5      68.704 116.260  65.8010  0.00  0.00     0.000 O
BRANCH 76 80
ATOM     77  C1  IDS C   5      65.910 117.548  68.4820  0.00  0.00     0.000 C
ATOM     78  C2  IDS C   5      66.369 116.104  68.6880  0.00  0.00     0.000 C
ATOM     79  C3  IDS C   5      67.678 115.872  67.9600  0.00  0.00     0.000 C
ATOM     80  C4  IDS C   5      67.454 115.996  66.4550  0.00  0.00     0.000 C
ATOM     81  C5  IDS C   5      66.456 117.131  66.1820  0.00  0.00     0.000 C
ATOM     82  O5  IDS C   5      66.448 118.065  67.2650  0.00  0.00     0.000 O
BRANCH 78 83
ATOM     83   O  IDS C   5      66.577 115.821  70.1280  0.00  0.00     0.000 O
ATOM     84   S  IDS C   5      65.714 114.688  70.8450  0.00  0.00     0.000 S
ATOM     85   O  IDS C   5      64.346 114.941  70.4800  0.00  0.00     0.000 OA
ATOM     86   O  IDS C   5      66.219 113.440  70.3230  0.00  0.00     0.000 OA
ATOM     87   O  IDS C   5      65.964 114.842  72.2580  0.00  0.00     0.000 OA
ENDBRANCH 78 83
BRANCH 81 88
ATOM     88   C  IDS C   5      66.741 117.908  64.9100  0.00  0.00     0.000 C
ATOM     89   O  IDS C   5      67.238 119.000  64.9740  0.00  0.00     0.000 OA
ATOM     90   O  IDS C   5      66.467 117.421  63.8370  0.00  0.00     0.000 OA
ENDBRANCH 81 88
ENDBRANCH 76 80
ENDBRANCH 56 76
ENDBRANCH 55 59
ENDBRANCH 39 55
ENDBRANCH 38 42
ENDBRANCH 18 38
ENDBRANCH 17 21
ENDBRANCH 1 17
TORSDOF 18
ENDMDL
MODEL 26
REMARK VINA RESULT:      -1.9    145.519    153.268
ROOT
ATOM      1  C1  IDS C   1      65.936 115.373 127.4930  0.00  0.00     0.000 C
ATOM      2  C2  IDS C   1      65.038 115.466 126.2560  0.00  0.00     0.000 C
ATOM      3  C3  IDS C   1      64.639 114.080 125.7730  0.00  0.00     0.000 C
ATOM      4  C4  IDS C   1      65.871 113.252 125.4370  0.00  0.00     0.000 C
ATOM      5  C5  IDS C   1      66.974 113.517 126.4570  0.00  0.00     0.000 C
ATOM      6  O5  IDS C   1      66.413 114.044 127.6600  0.00  0.00     0.000 O
ATOM      7   O  IDS C   1      63.795 114.193 124.6180  0.00  0.00     0.000 O
ATOM      9  HD  IDS C   1      63.287 114.887 124.7190  0.00  0.00     0.000 HD
ENDROOT
BRANCH 2 9
ATOM      9   O  IDS C   1      63.794 116.208 126.5630  0.00  0.00     0.000 O
ATOM     10   S  IDS C   1      63.395 117.470 125.6750  0.00  0.00     0.000 S
ATOM     11   O  IDS C   1      62.144 117.954 126.2130  0.00  0.00     0.000 OA
ATOM     12   O  IDS C   1      64.481 118.417 125.8330  0.00  0.00     0.000 OA
ATOM     13   O  IDS C   1      63.270 116.977 124.3210  0.00  0.00     0.000 OA
ENDBRANCH 2 9
BRANCH 5 14
ATOM     14   C  IDS C   1      67.753 112.259 126.7990  0.00  0.00     0.000 C
ATOM     15   O  IDS C   1      67.392 111.569 127.7220  0.00  0.00     0.000 OA
ATOM     16   O  IDS C   1      68.736 111.958 126.1430  0.00  0.00     0.000 OA
ENDBRANCH 5 14
BRANCH 1 17
ATOM     17  O4  SGN C   2      65.796 116.169 128.5570  0.00  0.00     0.000 O
BRANCH 17 21
ATOM     18  C1  SGN C   2      64.771 117.081 132.5120  0.00  0.00     0.000 C
ATOM     19  C2  SGN C   2      64.936 115.595 132.1700  0.00  0.00     0.000 C
ATOM     20  C3  SGN C   2      65.706 115.447 130.8520  0.00  0.00     0.000 C
ATOM     21  C4  SGN C   2      65.032 116.264 129.7560  0.00  0.00     0.000 C
ATOM     22  C5  SGN C   2      64.930 117.718 130.2090  0.00  0.00     0.000 C
ATOM     23  O5  SGN C   2      64.182 117.794 131.4440  0.00  0.00     0.000 O
ATOM     24   O  SGN C   2      65.784 114.079 130.4900  0.00  0.00     0.000 O
ATOM     26  HD  SGN C   2      66.072 114.888 130.6000  0.00  0.00     0.000 HD
BRANCH 19 28
ATOM     26   N  SGN C   2      65.126 115.008 133.5040  0.00  0.00     0.000 N
ATOM     28  HD  SGN C   2      64.596 115.678 133.6470  0.00  0.00     0.000 HD
ATOM     28   O  SGN C   2      65.496 112.985 134.9160  0.00  0.00     0.000 OA
ATOM     29   S  SGN C   2      64.451 113.613 133.9330  0.00  0.00     0.000 S
ATOM     30   O  SGN C   2      63.275 113.914 134.6550  0.00  0.00     0.000 OA
ATOM     31   O  SGN C   2      64.373 112.797 132.7710  0.00  0.00     0.000 OA
ENDBRANCH 19 28
BRANCH 22 32
ATOM     32   C  SGN C   2      64.222 118.606 129.2160  0.00  0.00     0.000 C
ATOM     33   S  SGN C   2      62.921 120.830 129.1880  0.00  0.00     0.000 S
ATOM     34   O  SGN C   2      61.736 120.223 129.7390  0.00  0.00     0.000 OA
ATOM     35   O  SGN C   2      63.184 122.159 129.6990  0.00  0.00     0.000 OA
ATOM     36   O  SGN C   2      63.015 120.738 127.7500  0.00  0.00     0.000 OA
ATOM     37   O  SGN C   2      64.118 119.933 129.7450  0.00  0.00     0.000 O
ENDBRANCH 22 32
BRANCH 18 38
ATOM     38  O4  IDS C   3      65.641 117.946 133.0380  0.00  0.00     0.000 O
BRANCH 38 42
ATOM     39  C1  IDS C   3      68.218 120.121 133.9090  0.00  0.00     0.000 C
ATOM     40  C2  IDS C   3      68.348 118.607 134.1380  0.00  0.00     0.000 C
ATOM     41  C3  IDS C   3      67.151 118.060 134.9150  0.00  0.00     0.000 C
ATOM     42  C4  IDS C   3      65.838 118.551 134.3200  0.00  0.00     0.000 C
ATOM     43  C5  IDS C   3      65.870 120.078 134.1790  0.00  0.00     0.000 C
ATOM     44  O5  IDS C   3      66.962 120.446 133.3370  0.00  0.00     0.000 O
ATOM     45   O  IDS C   3      67.246 118.470 136.2800  0.00  0.00     0.000 O
ATOM     47  HD  IDS C   3      67.324 119.231 136.6870  0.00  0.00     0.000 HD
BRANCH 40 47
ATOM     47   O  IDS C   3      68.404 117.888 132.8430  0.00  0.00     0.000 O
ATOM     48   S  IDS C   3      69.813 117.396 132.2670  0.00  0.00     0.000 S
ATOM     49   O  IDS C   3      70.453 118.574 131.7230  0.00  0.00     0.000 OA
ATOM     50   O  IDS C   3      69.487 116.423 131.2470  0.00  0.00     0.000 OA
ATOM     51   O  IDS C   3      70.532 116.832 133.3770  0.00  0.00     0.000 OA
ENDBRANCH 40 47
BRANCH 43 52
ATOM     52   C  IDS C   3      64.584 120.642 133.6190  0.00  0.00     0.000 C
ATOM     53   O  IDS C   3      64.617 121.396 132.6740  0.00  0.00     0.000 OA
ATOM     54   O  IDS C   3      63.531 120.336 134.1180  0.00  0.00     0.000 OA
ENDBRANCH 43 52
BRANCH 39 55
ATOM     55  O4  SGN C   4      68.681 121.039 134.7570  0.00  0.00     0.000 O
BRANCH 55 59
ATOM     56  C1  SGN C   4      70.088 124.666 133.2180  0.00  0.00     0.000 C
ATOM     57  C2  SGN C   4      70.982 123.434 133.0000  0.00  0.00     0.000 C
ATOM     58  C3  SGN C   4      70.199 122.146 133.2420  0.00  0.00     0.000 C
ATOM     59  C4  SGN C   4      69.489 122.195 134.5910  0.00  0.00     0.000 C
ATOM     60  C5  SGN C   4      68.620 123.450 134.6430  0.00  0.00     0.000 C
ATOM     61  O5  SGN C   4      69.476 124.600 134.4960  0.00  0.00     0.000 O
ATOM     62   O  SGN C   4      71.081 121.033 133.1800  0.00  0.00     0.000 O
ATOM     64  HD  SGN C   4      71.444 121.627 132.6640  0.00  0.00     0.000 HD
BRANCH 57 66
ATOM     64   N  SGN C   4      72.159 124.281 132.7500  0.00  0.00     0.000 N
ATOM     66  HD  SGN C   4      73.003 124.153 132.6020  0.00  0.00     0.000 HD
ATOM     66   S  SGN C   4      73.073 124.043 131.4640  0.00  0.00     0.000 S
ATOM     67   O  SGN C   4      74.150 124.963 131.5310  0.00  0.00     0.000 OA
ATOM     68   O  SGN C   4      73.348 122.649 131.4010  0.00  0.00     0.000 OA
ATOM     69   O  SGN C   4      72.140 124.423 130.2700  0.00  0.00     0.000 OA
ENDBRANCH 57 66
BRANCH 60 70
ATOM     70   C  SGN C   4      67.852 123.608 135.9370  0.00  0.00     0.000 C
ATOM     71   O  SGN C   4      64.377 122.379 136.6620  0.00  0.00     0.000 OA
ATOM     72   O  SGN C   4      66.469 121.376 137.3470  0.00  0.00     0.000 OA
ATOM     73   O  SGN C   4      66.482 123.193 135.7650  0.00  0.00     0.000 O
ATOM     74   S  SGN C   4      65.751 122.596 137.0550  0.00  0.00     0.000 S
ATOM     75   O  SGN C   4      65.906 123.614 138.0740  0.00  0.00     0.000 OA
ENDBRANCH 60 70
BRANCH 56 76
ATOM     76  O4  IDS C   5      69.318 125.446 132.4380  0.00  0.00     0.000 O
BRANCH 76 80
ATOM     77  C1  IDS C   5      65.723 124.121 131.0320  0.00  0.00     0.000 C
ATOM     78  C2  IDS C   5      66.895 123.911 130.0730  0.00  0.00     0.000 C
ATOM     79  C3  IDS C   5      68.204 124.017 130.8310  0.00  0.00     0.000 C
ATOM     80  C4  IDS C   5      68.380 125.441 131.3520  0.00  0.00     0.000 C
ATOM     81  C5  IDS C   5      67.020 125.984 131.8150  0.00  0.00     0.000 C
ATOM     82  O5  IDS C   5      66.137 124.909 132.1480  0.00  0.00     0.000 O
BRANCH 78 83
ATOM     83   O  IDS C   5      66.825 122.571 129.4450  0.00  0.00     0.000 O
ATOM     84   S  IDS C   5      66.619 122.445 127.8680  0.00  0.00     0.000 S
ATOM     85   O  IDS C   5      65.521 123.315 127.5420  0.00  0.00     0.000 OA
ATOM     86   O  IDS C   5      67.871 122.870 127.2880  0.00  0.00     0.000 OA
ATOM     87   O  IDS C   5      66.336 121.053 127.6210  0.00  0.00     0.000 OA
ENDBRANCH 78 83
BRANCH 81 88
ATOM     88   C  IDS C   5      67.102 126.900 133.0220  0.00  0.00     0.000 C
ATOM     89   O  IDS C   5      67.511 128.023 132.8950  0.00  0.00     0.000 OA
ATOM     90   O  IDS C   5      66.754 126.493 134.1070  0.00  0.00     0.000 OA
ENDBRANCH 81 88
ENDBRANCH 76 80
ENDBRANCH 56 76
ENDBRANCH 55 59
ENDBRANCH 39 55
ENDBRANCH 38 42
ENDBRANCH 18 38
ENDBRANCH 17 21
ENDBRANCH 1 17
TORSDOF 18
ENDMDL
MODEL 27
REMARK VINA RESULT:      -1.9    163.351    168.791
ROOT
ATOM      1  C1  IDS C   1      66.700 150.761 113.8340  0.00  0.00     0.000 C
ATOM      2  C2  IDS C   1      65.176 150.907 113.7930  0.00  0.00     0.000 C
ATOM      3  C3  IDS C   1      64.728 152.118 114.5980  0.00  0.00     0.000 C
ATOM      4  C4  IDS C   1      65.182 151.999 116.0460  0.00  0.00     0.000 C
ATOM      5  C5  IDS C   1      66.585 151.403 116.1070  0.00  0.00     0.000 C
ATOM      6  O5  IDS C   1      67.249 151.583 114.8560  0.00  0.00     0.000 O
ATOM      7   O  IDS C   1      63.299 152.236 114.5410  0.00  0.00     0.000 O
ATOM      9  HD  IDS C   1      63.037 151.998 113.7500  0.00  0.00     0.000 HD
ENDROOT
BRANCH 2 9
ATOM      9   O  IDS C   1      64.702 151.094 112.4030  0.00  0.00     0.000 O
ATOM     10   S  IDS C   1      63.662 150.056 111.7830  0.00  0.00     0.000 S
ATOM     11   O  IDS C   1      63.393 150.518 110.4400  0.00  0.00     0.000 OA
ATOM     12   O  IDS C   1      64.330 148.771 111.8140  0.00  0.00     0.000 OA
ATOM     13   O  IDS C   1      62.497 150.106 112.6380  0.00  0.00     0.000 OA
ENDBRANCH 2 9
BRANCH 5 14
ATOM     14   C  IDS C   1      67.431 152.039 117.1970  0.00  0.00     0.000 C
ATOM     15   O  IDS C   1      68.578 151.692 117.3360  0.00  0.00     0.000 OA
ATOM     16   O  IDS C   1      66.944 152.890 117.9220  0.00  0.00     0.000 OA
ENDBRANCH 5 14
BRANCH 1 17
ATOM     17  O4  SGN C   2      67.431 150.457 112.7580  0.00  0.00     0.000 O
BRANCH 17 21
ATOM     18  C1  SGN C   2      68.908 151.950 109.1360  0.00  0.00     0.000 C
ATOM     19  C2  SGN C   2      69.627 150.727 109.7190  0.00  0.00     0.000 C
ATOM     20  C3  SGN C   2      68.740 150.058 110.7760  0.00  0.00     0.000 C
ATOM     21  C4  SGN C   2      68.307 151.079 111.8220  0.00  0.00     0.000 C
ATOM     22  C5  SGN C   2      67.603 152.239 111.1230  0.00  0.00     0.000 C
ATOM     23  O5  SGN C   2      68.493 152.838 110.1530  0.00  0.00     0.000 O
ATOM     24   O  SGN C   2      69.437 148.980 111.3780  0.00  0.00     0.000 O
ATOM     26  HD  SGN C   2      68.759 149.390 111.0290  0.00  0.00     0.000 HD
BRANCH 19 28
ATOM     26   N  SGN C   2      70.832 150.145 109.1130  0.00  0.00     0.000 N
ATOM     28  HD  SGN C   2      71.084 150.348 109.9170  0.00  0.00     0.000 HD
ATOM     28   O  SGN C   2      71.850 148.509 107.5290  0.00  0.00     0.000 OA
ATOM     29   S  SGN C   2      70.973 148.569 108.8250  0.00  0.00     0.000 S
ATOM     30   O  SGN C   2      71.706 148.006 109.8920  0.00  0.00     0.000 OA
ATOM     31   O  SGN C   2      69.678 148.069 108.5200  0.00  0.00     0.000 OA
ENDBRANCH 19 28
BRANCH 22 32
ATOM     32   C  SGN C   2      67.182 153.339 112.0660  0.00  0.00     0.000 C
ATOM     33   S  SGN C   2      67.008 155.911 112.0900  0.00  0.00     0.000 S
ATOM     34   O  SGN C   2      68.429 156.074 112.2700  0.00  0.00     0.000 OA
ATOM     35   O  SGN C   2      66.419 156.890 111.2010  0.00  0.00     0.000 OA
ATOM     36   O  SGN C   2      66.275 155.738 113.3220  0.00  0.00     0.000 OA
ATOM     37   O  SGN C   2      66.866 154.520 111.3190  0.00  0.00     0.000 O
ENDBRANCH 22 32
BRANCH 18 38
ATOM     38  O4  IDS C   3      67.936 152.024 108.2240  0.00  0.00     0.000 O
BRANCH 38 42
ATOM     39  C1  IDS C   3      65.279 151.207 106.1270  0.00  0.00     0.000 C
ATOM     40  C2  IDS C   3      66.455 150.239 106.3280  0.00  0.00     0.000 C
ATOM     41  C3  IDS C   3      67.793 150.934 106.0780  0.00  0.00     0.000 C
ATOM     42  C4  IDS C   3      67.869 152.265 106.8140  0.00  0.00     0.000 C
ATOM     43  C5  IDS C   3      66.632 153.111 106.4870  0.00  0.00     0.000 C
ATOM     44  O5  IDS C   3      65.461 152.396 106.8770  0.00  0.00     0.000 O
ATOM     45   O  IDS C   3      67.959 151.149 104.6750  0.00  0.00     0.000 O
ATOM     47  HD  IDS C   3      67.495 151.540 104.0570  0.00  0.00     0.000 HD
BRANCH 40 47
ATOM     47   O  IDS C   3      66.474 149.725 107.7190  0.00  0.00     0.000 O
ATOM     48   S  IDS C   3      65.864 148.283 108.0430  0.00  0.00     0.000 S
ATOM     49   O  IDS C   3      64.426 148.452 108.0470  0.00  0.00     0.000 OA
ATOM     50   O  IDS C   3      66.383 147.934 109.3470  0.00  0.00     0.000 OA
ATOM     51   O  IDS C   3      66.319 147.405 106.9980  0.00  0.00     0.000 OA
ENDBRANCH 40 47
BRANCH 43 52
ATOM     52   C  IDS C   3      66.652 154.463 107.1630  0.00  0.00     0.000 C
ATOM     53   O  IDS C   3      67.415 155.319 106.7790  0.00  0.00     0.000 OA
ATOM     54   O  IDS C   3      65.905 154.681 108.0830  0.00  0.00     0.000 OA
ENDBRANCH 43 52
BRANCH 39 55
ATOM     55  O4  SGN C   4      64.666 151.392 104.9570  0.00  0.00     0.000 O
BRANCH 55 59
ATOM     56  C1  SGN C   4      60.599 152.370 104.8990  0.00  0.00     0.000 C
ATOM     57  C2  SGN C   4      60.955 150.935 105.3250  0.00  0.00     0.000 C
ATOM     58  C3  SGN C   4      62.435 150.828 105.6830  0.00  0.00     0.000 C
ATOM     59  C4  SGN C   4      63.301 151.402 104.5670  0.00  0.00     0.000 C
ATOM     60  C5  SGN C   4      62.850 152.834 104.2830  0.00  0.00     0.000 C
ATOM     61  O5  SGN C   4      61.471 152.800 103.8670  0.00  0.00     0.000 O
ATOM     62   O  SGN C   4      62.768 149.468 105.9270  0.00  0.00     0.000 O
ATOM     64  HD  SGN C   4      61.930 149.526 106.1340  0.00  0.00     0.000 HD
BRANCH 57 66
ATOM     64   N  SGN C   4      59.494 150.904 105.5030  0.00  0.00     0.000 N
ATOM     66  HD  SGN C   4      58.847 150.380 105.2660  0.00  0.00     0.000 HD
ATOM     66   S  SGN C   4      58.779 149.616 106.1170  0.00  0.00     0.000 S
ATOM     67   O  SGN C   4      57.383 149.860 106.1060  0.00  0.00     0.000 OA
ATOM     68   O  SGN C   4      59.297 148.484 105.4290  0.00  0.00     0.000 OA
ATOM     69   O  SGN C   4      59.287 149.579 107.5940  0.00  0.00     0.000 OA
ENDBRANCH 57 66
BRANCH 60 70
ATOM     70   C  SGN C   4      63.645 153.519 103.1930  0.00  0.00     0.000 C
ATOM     71   O  SGN C   4      66.674 155.695 103.6390  0.00  0.00     0.000 OA
ATOM     72   O  SGN C   4      66.612 153.380 102.9440  0.00  0.00     0.000 OA
ATOM     73   O  SGN C   4      64.605 154.430 103.7650  0.00  0.00     0.000 O
ATOM     74   S  SGN C   4      65.949 154.664 102.9320  0.00  0.00     0.000 S
ATOM     75   O  SGN C   4      65.503 155.072 101.6150  0.00  0.00     0.000 OA
ENDBRANCH 60 70
BRANCH 56 76
ATOM     76  O4  IDS C   5      60.129 153.468 105.5190  0.00  0.00     0.000 O
BRANCH 76 80
ATOM     77  C1  IDS C   5      62.695 155.864 107.6020  0.00  0.00     0.000 C
ATOM     78  C2  IDS C   5      61.937 154.850 108.4590  0.00  0.00     0.000 C
ATOM     79  C3  IDS C   5      61.373 153.752 107.5780  0.00  0.00     0.000 C
ATOM     80  C4  IDS C   5      60.316 154.338 106.6460  0.00  0.00     0.000 C
ATOM     81  C5  IDS C   5      60.765 155.730 106.1800  0.00  0.00     0.000 C
ATOM     82  O5  IDS C   5      62.187 155.856 106.2680  0.00  0.00     0.000 O
BRANCH 78 83
ATOM     83   O  IDS C   5      62.839 154.231 109.4590  0.00  0.00     0.000 O
ATOM     84   S  IDS C   5      62.411 154.193 110.9950  0.00  0.00     0.000 S
ATOM     85   O  IDS C   5      61.987 155.528 111.3210  0.00  0.00     0.000 OA
ATOM     86   O  IDS C   5      61.343 153.224 111.0670  0.00  0.00     0.000 OA
ATOM     87   O  IDS C   5      63.588 153.777 111.7180  0.00  0.00     0.000 OA
ENDBRANCH 78 83
BRANCH 81 88
ATOM     88   C  IDS C   5      60.364 156.061 104.7540  0.00  0.00     0.000 C
ATOM     89   O  IDS C   5      61.199 156.098 103.8900  0.00  0.00     0.000 OA
ATOM     90   O  IDS C   5      59.204 156.285 104.4940  0.00  0.00     0.000 OA
ENDBRANCH 81 88
ENDBRANCH 76 80
ENDBRANCH 56 76
ENDBRANCH 55 59
ENDBRANCH 39 55
ENDBRANCH 38 42
ENDBRANCH 18 38
ENDBRANCH 17 21
ENDBRANCH 1 17
TORSDOF 18
ENDMDL
MODEL 28
REMARK VINA RESULT:      -1.9    144.559    151.333
ROOT
ATOM      1  C1  IDS C   1      68.509 114.860 127.6660  0.00  0.00     0.000 C
ATOM      2  C2  IDS C   1      68.059 114.580 126.2290  0.00  0.00     0.000 C
ATOM      3  C3  IDS C   1      67.581 113.143 126.0830  0.00  0.00     0.000 C
ATOM      4  C4  IDS C   1      68.687 112.168 126.4620  0.00  0.00     0.000 C
ATOM      5  C5  IDS C   1      69.458 112.694 127.6680  0.00  0.00     0.000 C
ATOM      6  O5  IDS C   1      68.665 113.642 128.3820  0.00  0.00     0.000 O
ATOM      7   O  IDS C   1      67.161 112.906 124.7320  0.00  0.00     0.000 O
ATOM      9  HD  IDS C   1      66.779 113.625 124.4360  0.00  0.00     0.000 HD
ENDROOT
BRANCH 2 9
ATOM      9   O  IDS C   1      66.936 115.465 125.8470  0.00  0.00     0.000 O
ATOM     10   S  IDS C   1      67.064 116.376 124.5450  0.00  0.00     0.000 S
ATOM     11   O  IDS C   1      65.816 117.099 124.4410  0.00  0.00     0.000 OA
ATOM     12   O  IDS C   1      68.199 117.243 124.7860  0.00  0.00     0.000 OA
ATOM     13   O  IDS C   1      67.277 115.463 123.4430  0.00  0.00     0.000 OA
ENDBRANCH 2 9
BRANCH 5 14
ATOM     14   C  IDS C   1      69.857 111.582 128.6230  0.00  0.00     0.000 C
ATOM     15   O  IDS C   1      69.625 111.700 129.8010  0.00  0.00     0.000 OA
ATOM     16   O  IDS C   1      70.410 110.584 128.1930  0.00  0.00     0.000 OA
ENDBRANCH 5 14
BRANCH 1 17
ATOM     17  O4  SGN C   2      68.200 115.984 128.3190  0.00  0.00     0.000 O
BRANCH 17 21
ATOM     18  C1  SGN C   2      66.283 118.224 131.2910  0.00  0.00     0.000 C
ATOM     19  C2  SGN C   2      66.281 116.700 131.4700  0.00  0.00     0.000 C
ATOM     20  C3  SGN C   2      67.352 116.070 130.5710  0.00  0.00     0.000 C
ATOM     21  C4  SGN C   2      67.160 116.524 129.1290  0.00  0.00     0.000 C
ATOM     22  C5  SGN C   2      67.185 118.049 129.0800  0.00  0.00     0.000 C
ATOM     23  O5  SGN C   2      66.145 118.583 129.9320  0.00  0.00     0.000 O
ATOM     24   O  SGN C   2      67.293 114.657 130.6700  0.00  0.00     0.000 O
ATOM     26  HD  SGN C   2      67.672 115.434 130.6240  0.00  0.00     0.000 HD
BRANCH 19 28
ATOM     26   N  SGN C   2      65.980 116.576 132.9030  0.00  0.00     0.000 N
ATOM     28  HD  SGN C   2      65.545 117.285 132.6630  0.00  0.00     0.000 HD
ATOM     28   O  SGN C   2      65.599 115.112 134.8870  0.00  0.00     0.000 OA
ATOM     29   S  SGN C   2      64.997 115.441 133.4790  0.00  0.00     0.000 S
ATOM     30   O  SGN C   2      63.726 116.030 133.6570  0.00  0.00     0.000 OA
ATOM     31   O  SGN C   2      65.130 114.293 132.6500  0.00  0.00     0.000 OA
ENDBRANCH 19 28
BRANCH 22 32
ATOM     32   C  SGN C   2      66.944 118.608 127.6980  0.00  0.00     0.000 C
ATOM     33   S  SGN C   2      66.861 120.899 126.5210  0.00  0.00     0.000 S
ATOM     34   O  SGN C   2      65.554 121.200 127.0500  0.00  0.00     0.000 OA
ATOM     35   O  SGN C   2      67.747 122.043 126.4770  0.00  0.00     0.000 OA
ATOM     36   O  SGN C   2      66.838 120.141 125.2920  0.00  0.00     0.000 OA
ATOM     37   O  SGN C   2      67.508 119.921 127.6050  0.00  0.00     0.000 O
ENDBRANCH 22 32
BRANCH 18 38
ATOM     38  O4  IDS C   3      67.105 119.149 131.7900  0.00  0.00     0.000 O
BRANCH 38 42
ATOM     39  C1  IDS C   3      69.485 120.637 133.8510  0.00  0.00     0.000 C
ATOM     40  C2  IDS C   3      68.424 119.685 134.4260  0.00  0.00     0.000 C
ATOM     41  C3  IDS C   3      67.017 120.105 134.0010  0.00  0.00     0.000 C
ATOM     42  C4  IDS C   3      66.952 120.379 132.5050  0.00  0.00     0.000 C
ATOM     43  C5  IDS C   3      68.063 121.359 132.1070  0.00  0.00     0.000 C
ATOM     44  O5  IDS C   3      69.327 120.794 132.4510  0.00  0.00     0.000 O
ATOM     45   O  IDS C   3      66.636 121.278 134.7240  0.00  0.00     0.000 O
ATOM     47  HD  IDS C   3      66.976 122.066 134.8340  0.00  0.00     0.000 HD
BRANCH 40 47
ATOM     47   O  IDS C   3      68.643 118.304 133.9340  0.00  0.00     0.000 O
ATOM     48   S  IDS C   3      69.044 117.147 134.9630  0.00  0.00     0.000 S
ATOM     49   O  IDS C   3      70.447 117.344 135.2550  0.00  0.00     0.000 OA
ATOM     50   O  IDS C   3      68.793 115.909 134.2590  0.00  0.00     0.000 OA
ATOM     51   O  IDS C   3      68.204 117.322 136.1180  0.00  0.00     0.000 OA
ENDBRANCH 40 47
BRANCH 43 52
ATOM     52   C  IDS C   3      68.042 121.701 130.6340  0.00  0.00     0.000 C
ATOM     53   O  IDS C   3      67.018 122.086 130.1190  0.00  0.00     0.000 OA
ATOM     54   O  IDS C   3      69.048 121.587 129.9810  0.00  0.00     0.000 OA
ENDBRANCH 43 52
BRANCH 39 55
ATOM     55  O4  SGN C   4      69.908 121.736 134.4760  0.00  0.00     0.000 O
BRANCH 55 59
ATOM     56  C1  SGN C   4      73.916 122.872 134.0880  0.00  0.00     0.000 C
ATOM     57  C2  SGN C   4      73.633 121.637 134.9600  0.00  0.00     0.000 C
ATOM     58  C3  SGN C   4      72.226 121.103 134.7030  0.00  0.00     0.000 C
ATOM     59  C4  SGN C   4      71.198 122.223 134.8200  0.00  0.00     0.000 C
ATOM     60  C5  SGN C   4      71.596 123.355 133.8750  0.00  0.00     0.000 C
ATOM     61  O5  SGN C   4      72.895 123.839 134.2710  0.00  0.00     0.000 O
ATOM     62   O  SGN C   4      71.937 120.060 135.6240  0.00  0.00     0.000 O
ATOM     64  HD  SGN C   4      72.798 120.034 135.5300  0.00  0.00     0.000 HD
BRANCH 57 66
ATOM     64   N  SGN C   4      74.937 121.757 135.6310  0.00  0.00     0.000 N
ATOM     66  HD  SGN C   4      75.350 121.348 136.2730  0.00  0.00     0.000 HD
ATOM     66   S  SGN C   4      75.908 120.496 135.7500  0.00  0.00     0.000 S
ATOM     67   O  SGN C   4      77.045 120.903 136.4920  0.00  0.00     0.000 OA
ATOM     68   O  SGN C   4      75.121 119.408 136.2190  0.00  0.00     0.000 OA
ATOM     69   O  SGN C   4      76.327 120.209 134.2730  0.00  0.00     0.000 OA
ENDBRANCH 57 66
BRANCH 60 70
ATOM     70   C  SGN C   4      70.641 124.529 133.8930  0.00  0.00     0.000 C
ATOM     71   O  SGN C   4      67.620 125.013 131.7130  0.00  0.00     0.000 OA
ATOM     72   O  SGN C   4      67.674 124.274 134.0150  0.00  0.00     0.000 OA
ATOM     73   O  SGN C   4      69.732 124.458 132.7770  0.00  0.00     0.000 O
ATOM     74   S  SGN C   4      68.283 125.097 132.9950  0.00  0.00     0.000 S
ATOM     75   O  SGN C   4      68.538 126.457 133.4260  0.00  0.00     0.000 OA
ENDBRANCH 60 70
BRANCH 56 76
ATOM     76  O4  IDS C   5      74.473 123.091 132.8820  0.00  0.00     0.000 O
BRANCH 76 80
ATOM     77  C1  IDS C   5      72.199 122.801 129.5060  0.00  0.00     0.000 C
ATOM     78  C2  IDS C   5      72.991 121.539 129.8470  0.00  0.00     0.000 C
ATOM     79  C3  IDS C   5      73.432 121.585 131.2970  0.00  0.00     0.000 C
ATOM     80  C4  IDS C   5      74.422 122.729 131.4940  0.00  0.00     0.000 C
ATOM     81  C5  IDS C   5      73.986 123.931 130.6430  0.00  0.00     0.000 C
ATOM     82  O5  IDS C   5      72.584 123.871 130.3690  0.00  0.00     0.000 O
BRANCH 78 83
ATOM     83   O  IDS C   5      72.160 120.329 129.6470  0.00  0.00     0.000 O
ATOM     84   S  IDS C   5      72.683 119.156 128.7010  0.00  0.00     0.000 S
ATOM     85   O  IDS C   5      73.112 119.791 127.4840  0.00  0.00     0.000 OA
ATOM     86   O  IDS C   5      73.764 118.535 129.4290  0.00  0.00     0.000 OA
ATOM     87   O  IDS C   5      71.557 118.273 128.5160  0.00  0.00     0.000 OA
ENDBRANCH 78 83
BRANCH 81 88
ATOM     88   C  IDS C   5      74.270 125.276 131.2860  0.00  0.00     0.000 C
ATOM     89   O  IDS C   5      73.367 125.920 131.7490  0.00  0.00     0.000 OA
ATOM     90   O  IDS C   5      75.405 125.691 131.3300  0.00  0.00     0.000 OA
ENDBRANCH 81 88
ENDBRANCH 76 80
ENDBRANCH 56 76
ENDBRANCH 55 59
ENDBRANCH 39 55
ENDBRANCH 38 42
ENDBRANCH 18 38
ENDBRANCH 17 21
ENDBRANCH 1 17
TORSDOF 18
ENDMDL
MODEL 29
REMARK VINA RESULT:      -1.9    165.264    171.109
ROOT
ATOM      1  C1  IDS C   1     104.312 166.704 128.9720  0.00  0.00     0.000 C
ATOM      2  C2  IDS C   1     104.927 167.090 127.6230  0.00  0.00     0.000 C
ATOM      3  C3  IDS C   1     104.572 168.524 127.2580  0.00  0.00     0.000 C
ATOM      4  C4  IDS C   1     103.062 168.703 127.1910  0.00  0.00     0.000 C
ATOM      5  C5  IDS C   1     102.391 167.915 128.3110  0.00  0.00     0.000 C
ATOM      6  O5  IDS C   1     103.327 167.654 129.3570  0.00  0.00     0.000 O
ATOM      7   O  IDS C   1     105.162 168.863 125.9950  0.00  0.00     0.000 O
ATOM      9  HD  IDS C   1     105.936 168.479 125.9450  0.00  0.00     0.000 HD
ENDROOT
BRANCH 2 9
ATOM      9   O  IDS C   1     106.403 166.994 127.6710  0.00  0.00     0.000 O
ATOM     10   S  IDS C   1     107.164 166.088 126.6010  0.00  0.00     0.000 S
ATOM     11   O  IDS C   1     108.572 166.216 126.9040  0.00  0.00     0.000 OA
ATOM     12   O  IDS C   1     106.663 164.744 126.8020  0.00  0.00     0.000 OA
ATOM     13   O  IDS C   1     106.817 166.631 125.3060  0.00  0.00     0.000 OA
ENDBRANCH 2 9
BRANCH 5 14
ATOM     14   C  IDS C   1     101.203 168.655 128.9020  0.00  0.00     0.000 C
ATOM     15   O  IDS C   1     100.324 169.046 128.1720  0.00  0.00     0.000 OA
ATOM     16   O  IDS C   1     101.148 168.850 130.1040  0.00  0.00     0.000 OA
ENDBRANCH 5 14
BRANCH 1 17
ATOM     17  O4  SGN C   2     104.977 166.017 129.9050  0.00  0.00     0.000 O
BRANCH 17 21
ATOM     18  C1  SGN C   2     106.872 165.519 133.6040  0.00  0.00     0.000 C
ATOM     19  C2  SGN C   2     106.003 166.772 133.4400  0.00  0.00     0.000 C
ATOM     20  C3  SGN C   2     105.066 166.601 132.2390  0.00  0.00     0.000 C
ATOM     21  C4  SGN C   2     105.868 166.237 130.9950  0.00  0.00     0.000 C
ATOM     22  C5  SGN C   2     106.682 164.978 131.2790  0.00  0.00     0.000 C
ATOM     23  O5  SGN C   2     107.556 165.206 132.4090  0.00  0.00     0.000 O
ATOM     24   O  SGN C   2     104.324 167.792 132.0330  0.00  0.00     0.000 O
ATOM     26  HD  SGN C   2     104.454 166.937 132.0890  0.00  0.00     0.000 HD
BRANCH 19 28
ATOM     26   N  SGN C   2     105.773 167.153 134.8410  0.00  0.00     0.000 N
ATOM     28  HD  SGN C   2     106.568 166.809 134.8490  0.00  0.00     0.000 HD
ATOM     28   O  SGN C   2     104.732 168.709 136.4890  0.00  0.00     0.000 OA
ATOM     29   S  SGN C   2     105.782 168.685 135.3280  0.00  0.00     0.000 S
ATOM     30   O  SGN C   2     107.060 168.952 135.8680  0.00  0.00     0.000 OA
ATOM     31   O  SGN C   2     105.292 169.481 134.2570  0.00  0.00     0.000 OA
ENDBRANCH 19 28
BRANCH 22 32
ATOM     32   C  SGN C   2     107.561 164.561 130.1250  0.00  0.00     0.000 C
ATOM     33   S  SGN C   2     109.196 162.662 129.5210  0.00  0.00     0.000 S
ATOM     34   O  SGN C   2     110.247 163.214 130.3380  0.00  0.00     0.000 OA
ATOM     35   O  SGN C   2     109.123 161.217 129.5670  0.00  0.00     0.000 OA
ATOM     36   O  SGN C   2     109.148 163.198 128.1820  0.00  0.00     0.000 OA
ATOM     37   O  SGN C   2     107.851 163.161 130.2210  0.00  0.00     0.000 O
ENDBRANCH 22 32
BRANCH 18 38
ATOM     38  O4  IDS C   3     106.577 164.328 134.1300  0.00  0.00     0.000 O
BRANCH 38 42
ATOM     39  C1  IDS C   3     104.907 161.897 135.9810  0.00  0.00     0.000 C
ATOM     40  C2  IDS C   3     105.077 163.326 136.5210  0.00  0.00     0.000 C
ATOM     41  C3  IDS C   3     106.540 163.765 136.4740  0.00  0.00     0.000 C
ATOM     42  C4  IDS C   3     107.160 163.469 135.1150  0.00  0.00     0.000 C
ATOM     43  C5  IDS C   3     106.916 162.002 134.7410  0.00  0.00     0.000 C
ATOM     44  O5  IDS C   3     105.512 161.757 134.7060  0.00  0.00     0.000 O
ATOM     45   O  IDS C   3     107.271 163.085 137.4960  0.00  0.00     0.000 O
ATOM     47  HD  IDS C   3     107.394 162.255 137.7110  0.00  0.00     0.000 HD
BRANCH 40 47
ATOM     47   O  IDS C   3     104.298 164.286 135.7040  0.00  0.00     0.000 O
ATOM     48   S  IDS C   3     103.068 165.073 136.3580  0.00  0.00     0.000 S
ATOM     49   O  IDS C   3     101.976 164.124 136.4160  0.00  0.00     0.000 OA
ATOM     50   O  IDS C   3     102.798 166.172 135.4580  0.00  0.00     0.000 OA
ATOM     51   O  IDS C   3     103.505 165.500 137.6600  0.00  0.00     0.000 OA
ENDBRANCH 40 47
BRANCH 43 52
ATOM     52   C  IDS C   3     107.531 161.627 133.4110  0.00  0.00     0.000 C
ATOM     53   O  IDS C   3     108.697 161.865 133.1970  0.00  0.00     0.000 OA
ATOM     54   O  IDS C   3     106.854 161.092 132.5700  0.00  0.00     0.000 OA
ENDBRANCH 43 52
BRANCH 39 55
ATOM     55  O4  SGN C   4     104.987 160.805 136.7420  0.00  0.00     0.000 O
BRANCH 55 59
ATOM     56  C1  SGN C   4     102.531 157.536 135.8560  0.00  0.00     0.000 C
ATOM     57  C2  SGN C   4     101.842 158.767 136.4720  0.00  0.00     0.000 C
ATOM     58  C3  SGN C   4     102.744 159.995 136.3770  0.00  0.00     0.000 C
ATOM     59  C4  SGN C   4     104.130 159.689 136.9320  0.00  0.00     0.000 C
ATOM     60  C5  SGN C   4     104.692 158.470 136.2030  0.00  0.00     0.000 C
ATOM     61  O5  SGN C   4     103.811 157.355 136.4400  0.00  0.00     0.000 O
ATOM     62   O  SGN C   4     102.149 161.077 137.0820  0.00  0.00     0.000 O
ATOM     64  HD  SGN C   4     101.479 160.593 136.8230  0.00  0.00     0.000 HD
BRANCH 57 66
ATOM     64   N  SGN C   4     100.683 157.965 136.8940  0.00  0.00     0.000 N
ATOM     66  HD  SGN C   4      99.953 158.106 137.3380  0.00  0.00     0.000 HD
ATOM     66   S  SGN C   4      99.199 158.435 136.5410  0.00  0.00     0.000 S
ATOM     67   O  SGN C   4      98.307 157.502 137.1270  0.00  0.00     0.000 OA
ATOM     68   O  SGN C   4      99.104 159.810 136.8940  0.00  0.00     0.000 OA
ATOM     69   O  SGN C   4      99.131 158.313 134.9850  0.00  0.00     0.000 OA
ENDBRANCH 57 66
BRANCH 60 70
ATOM     70   C  SGN C   4     106.078 158.070 136.6610  0.00  0.00     0.000 C
ATOM     71   O  SGN C   4     109.351 159.260 135.2560  0.00  0.00     0.000 OA
ATOM     72   O  SGN C   4     108.260 160.001 137.2830  0.00  0.00     0.000 OA
ATOM     73   O  SGN C   4     107.075 158.569 135.7500  0.00  0.00     0.000 O
ATOM     74   S  SGN C   4     108.508 158.905 136.3740  0.00  0.00     0.000 S
ATOM     75   O  SGN C   4     108.917 157.685 137.0410  0.00  0.00     0.000 OA
ENDBRANCH 60 70
BRANCH 56 76
ATOM     76  O4  IDS C   5     102.548 156.949 134.6460  0.00  0.00     0.000 O
BRANCH 76 80
ATOM     77  C1  IDS C   5     105.141 158.260 131.7790  0.00  0.00     0.000 C
ATOM     78  C2  IDS C   5     103.735 158.850 131.6800  0.00  0.00     0.000 C
ATOM     79  C3  IDS C   5     103.004 158.662 132.9950  0.00  0.00     0.000 C
ATOM     80  C4  IDS C   5     102.783 157.173 133.2470  0.00  0.00     0.000 C
ATOM     81  C5  IDS C   5     104.016 156.389 132.7780  0.00  0.00     0.000 C
ATOM     82  O5  IDS C   5     105.173 157.230 132.7670  0.00  0.00     0.000 O
BRANCH 78 83
ATOM     83   O  IDS C   5     103.795 160.300 131.3810  0.00  0.00     0.000 O
ATOM     84   S  IDS C   5     103.011 160.883 130.1200  0.00  0.00     0.000 S
ATOM     85   O  IDS C   5     103.355 160.032 129.0130  0.00  0.00     0.000 OA
ATOM     86   O  IDS C   5     101.614 160.813 130.4780  0.00  0.00     0.000 OA
ATOM     87   O  IDS C   5     103.478 162.239 129.9630  0.00  0.00     0.000 OA
ENDBRANCH 78 83
BRANCH 81 88
ATOM     88   C  IDS C   5     104.338 155.178 133.6340  0.00  0.00     0.000 C
ATOM     89   O  IDS C   5     105.273 155.211 134.3900  0.00  0.00     0.000 OA
ATOM     90   O  IDS C   5     103.651 154.186 133.5520  0.00  0.00     0.000 OA
ENDBRANCH 81 88
ENDBRANCH 76 80
ENDBRANCH 56 76
ENDBRANCH 55 59
ENDBRANCH 39 55
ENDBRANCH 38 42
ENDBRANCH 18 38
ENDBRANCH 17 21
ENDBRANCH 1 17
TORSDOF 18
ENDMDL
MODEL 30
REMARK VINA RESULT:      -1.9    145.938    152.578
ROOT
ATOM      1  C1  IDS C   1     101.320  53.385 195.9060  0.00  0.00     0.000 C
ATOM      2  C2  IDS C   1     102.705  54.005 196.1110  0.00  0.00     0.000 C
ATOM      3  C3  IDS C   1     102.608  55.285 196.9280  0.00  0.00     0.000 C
ATOM      4  C4  IDS C   1     101.702  56.295 196.2390  0.00  0.00     0.000 C
ATOM      5  C5  IDS C   1     100.504  55.585 195.6170  0.00  0.00     0.000 C
ATOM      6  O5  IDS C   1     100.303  54.319 196.2460  0.00  0.00     0.000 O
ATOM      7   O  IDS C   1     103.917  55.844 197.1100  0.00  0.00     0.000 O
ATOM      9  HD  IDS C   1     104.480  55.194 197.2070  0.00  0.00     0.000 HD
ENDROOT
BRANCH 2 9
ATOM      9   O  IDS C   1     103.596  53.076 196.8400  0.00  0.00     0.000 O
ATOM     10   S  IDS C   1     104.998  52.667 196.1970  0.00  0.00     0.000 S
ATOM     11   O  IDS C   1     105.624  51.775 197.1470  0.00  0.00     0.000 OA
ATOM     12   O  IDS C   1     104.677  52.020 194.9420  0.00  0.00     0.000 OA
ATOM     13   O  IDS C   1     105.727  53.904 196.0240  0.00  0.00     0.000 OA
ENDBRANCH 2 9
BRANCH 5 14
ATOM     14   C  IDS C   1      99.225  56.395 195.7490  0.00  0.00     0.000 C
ATOM     15   O  IDS C   1      99.261  57.591 195.5920  0.00  0.00     0.000 OA
ATOM     16   O  IDS C   1      98.176  55.832 196.0130  0.00  0.00     0.000 OA
ENDBRANCH 5 14
BRANCH 1 17
ATOM     17  O4  SGN C   2     101.086  52.074 196.0190  0.00  0.00     0.000 O
BRANCH 17 21
ATOM     18  C1  SGN C   2      99.423  48.672 197.8040  0.00  0.00     0.000 C
ATOM     19  C2  SGN C   2      98.873  50.028 198.2650  0.00  0.00     0.000 C
ATOM     20  C3  SGN C   2      99.253  51.114 197.2510  0.00  0.00     0.000 C
ATOM     21  C4  SGN C   2     100.758  51.105 197.0110  0.00  0.00     0.000 C
ATOM     22  C5  SGN C   2     101.182  49.712 196.5550  0.00  0.00     0.000 C
ATOM     23  O5  SGN C   2     100.812  48.736 197.5570  0.00  0.00     0.000 O
ATOM     24   O  SGN C   2      98.821  52.381 197.7170  0.00  0.00     0.000 O
ATOM     26  HD  SGN C   2      98.956  51.753 197.1360  0.00  0.00     0.000 HD
BRANCH 19 28
ATOM     26   N  SGN C   2      97.594  49.633 198.8720  0.00  0.00     0.000 N
ATOM     28  HD  SGN C   2      98.115  48.960 199.0320  0.00  0.00     0.000 HD
ATOM     28   O  SGN C   2      95.491  50.289 200.0410  0.00  0.00     0.000 OA
ATOM     29   S  SGN C   2      97.046  50.298 200.2290  0.00  0.00     0.000 S
ATOM     30   O  SGN C   2      97.378  49.430 201.2920  0.00  0.00     0.000 OA
ATOM     31   O  SGN C   2      97.491  51.648 200.2580  0.00  0.00     0.000 OA
ENDBRANCH 19 28
BRANCH 22 32
ATOM     32   C  SGN C   2     102.670  49.577 196.3450  0.00  0.00     0.000 C
ATOM     33   S  SGN C   2     104.356  47.830 195.4810  0.00  0.00     0.000 S
ATOM     34   O  SGN C   2     104.292  47.065 196.7020  0.00  0.00     0.000 OA
ATOM     35   O  SGN C   2     104.441  47.013 194.2880  0.00  0.00     0.000 OA
ATOM     36   O  SGN C   2     105.317  48.907 195.5110  0.00  0.00     0.000 OA
ATOM     37   O  SGN C   2     102.930  48.542 195.3900  0.00  0.00     0.000 O
ENDBRANCH 22 32
BRANCH 18 38
ATOM     38  O4  IDS C   3      98.968  47.827 196.8770  0.00  0.00     0.000 O
BRANCH 38 42
ATOM     39  C1  IDS C   3      96.784  46.280 194.6480  0.00  0.00     0.000 C
ATOM     40  C2  IDS C   3      96.301  46.758 196.0270  0.00  0.00     0.000 C
ATOM     41  C3  IDS C   3      97.193  46.216 197.1430  0.00  0.00     0.000 C
ATOM     42  C4  IDS C   3      98.666  46.428 196.8240  0.00  0.00     0.000 C
ATOM     43  C5  IDS C   3      98.979  45.879 195.4260  0.00  0.00     0.000 C
ATOM     44  O5  IDS C   3      98.164  46.551 194.4680  0.00  0.00     0.000 O
ATOM     45   O  IDS C   3      96.934  44.822 197.3210  0.00  0.00     0.000 O
ATOM     47  HD  IDS C   3      96.942  44.127 196.8040  0.00  0.00     0.000 HD
BRANCH 40 47
ATOM     47   O  IDS C   3      96.338  48.238 196.1070  0.00  0.00     0.000 O
ATOM     48   S  IDS C   3      94.975  49.060 196.2640  0.00  0.00     0.000 S
ATOM     49   O  IDS C   3      94.366  49.073 194.9520  0.00  0.00     0.000 OA
ATOM     50   O  IDS C   3      95.375  50.379 196.7020  0.00  0.00     0.000 OA
ATOM     51   O  IDS C   3      94.185  48.356 197.2390  0.00  0.00     0.000 OA
ENDBRANCH 40 47
BRANCH 43 52
ATOM     52   C  IDS C   3     100.436  46.030 195.0500  0.00  0.00     0.000 C
ATOM     53   O  IDS C   3     101.297  45.634 195.8010  0.00  0.00     0.000 OA
ATOM     54   O  IDS C   3     100.732  46.545 194.0020  0.00  0.00     0.000 OA
ENDBRANCH 43 52
BRANCH 39 55
ATOM     55  O4  SGN C   4      96.373  45.151 194.0720  0.00  0.00     0.000 O
BRANCH 55 59
ATOM     56  C1  SGN C   4      95.903  45.052 189.9160  0.00  0.00     0.000 C
ATOM     57  C2  SGN C   4      94.856  45.855 190.7070  0.00  0.00     0.000 C
ATOM     58  C3  SGN C   4      95.350  46.140 192.1230  0.00  0.00     0.000 C
ATOM     59  C4  SGN C   4      95.820  44.856 192.7970  0.00  0.00     0.000 C
ATOM     60  C5  SGN C   4      96.875  44.195 191.9120  0.00  0.00     0.000 C
ATOM     61  O5  SGN C   4      96.271  43.889 190.6400  0.00  0.00     0.000 O
ATOM     62   O  SGN C   4      94.309  46.750 192.8760  0.00  0.00     0.000 O
ATOM     64  HD  SGN C   4      94.148  46.980 192.0570  0.00  0.00     0.000 HD
BRANCH 57 66
ATOM     64   N  SGN C   4      93.901  45.797 189.5890  0.00  0.00     0.000 N
ATOM     66  HD  SGN C   4      93.086  46.054 189.4480  0.00  0.00     0.000 HD
ATOM     66   S  SGN C   4      93.193  47.125 189.0570  0.00  0.00     0.000 S
ATOM     67   O  SGN C   4      92.294  46.744 188.0290  0.00  0.00     0.000 OA
ATOM     68   O  SGN C   4      92.699  47.818 190.1960  0.00  0.00     0.000 OA
ATOM     69   O  SGN C   4      94.367  47.950 188.4390  0.00  0.00     0.000 OA
ENDBRANCH 57 66
BRANCH 60 70
ATOM     70   C  SGN C   4      97.430  42.908 192.4820  0.00  0.00     0.000 C
ATOM     71   O  SGN C   4     100.422  42.537 194.7210  0.00  0.00     0.000 OA
ATOM     72   O  SGN C   4      98.090  42.496 195.3580  0.00  0.00     0.000 OA
ATOM     73   O  SGN C   4      98.700  43.144 193.1200  0.00  0.00     0.000 O
ATOM     74   S  SGN C   4      99.072  42.186 194.3450  0.00  0.00     0.000 S
ATOM     75   O  SGN C   4      98.951  40.843 193.8150  0.00  0.00     0.000 OA
ENDBRANCH 60 70
BRANCH 56 76
ATOM     76  O4  IDS C   5      96.918  45.352 189.0850  0.00  0.00     0.000 O
BRANCH 76 80
ATOM     77  C1  IDS C   5     100.601  46.230 190.6100  0.00  0.00     0.000 C
ATOM     78  C2  IDS C   5      99.740  47.451 190.2880  0.00  0.00     0.000 C
ATOM     79  C3  IDS C   5      98.287  47.037 190.1580  0.00  0.00     0.000 C
ATOM     80  C4  IDS C   5      98.124  46.119 188.9500  0.00  0.00     0.000 C
ATOM     81  C5  IDS C   5      99.342  45.190 188.8490  0.00  0.00     0.000 C
ATOM     82  O5  IDS C   5      99.970  45.044 190.1260  0.00  0.00     0.000 O
BRANCH 78 83
ATOM     83   O  IDS C   5      99.844  48.463 191.3650  0.00  0.00     0.000 O
ATOM     84   S  IDS C   5     100.271  49.958 191.0090  0.00  0.00     0.000 S
ATOM     85   O  IDS C   5     101.441  49.849 190.1800  0.00  0.00     0.000 OA
ATOM     86   O  IDS C   5      99.136  50.522 190.3180  0.00  0.00     0.000 OA
ATOM     87   O  IDS C   5     100.528  50.603 192.2740  0.00  0.00     0.000 OA
ENDBRANCH 78 83
BRANCH 81 88
ATOM     88   C  IDS C   5      99.014  43.798 188.3390  0.00  0.00     0.000 C
ATOM     89   O  IDS C   5      99.006  42.868 189.1000  0.00  0.00     0.000 OA
ATOM     90   O  IDS C   5      98.762  43.634 187.1670  0.00  0.00     0.000 OA
ENDBRANCH 81 88
ENDBRANCH 76 80
ENDBRANCH 56 76
ENDBRANCH 55 59
ENDBRANCH 39 55
ENDBRANCH 38 42
ENDBRANCH 18 38
ENDBRANCH 17 21
ENDBRANCH 1 17
TORSDOF 18
ENDMDL
MODEL 31
REMARK VINA RESULT:      -1.9    150.296    155.082
ROOT
ATOM      1  C1  IDS C   1      97.067  61.667 192.6610  0.00  0.00     0.000 C
ATOM      2  C2  IDS C   1      97.615  62.814 193.5150  0.00  0.00     0.000 C
ATOM      3  C3  IDS C   1      98.995  63.235 193.0330  0.00  0.00     0.000 C
ATOM      4  C4  IDS C   1      99.964  62.062 193.0860  0.00  0.00     0.000 C
ATOM      5  C5  IDS C   1      99.260  60.781 192.6510  0.00  0.00     0.000 C
ATOM      6  O5  IDS C   1      98.104  61.097 191.8730  0.00  0.00     0.000 O
ATOM      7   O  IDS C   1      99.485  64.312 193.8440  0.00  0.00     0.000 O
ATOM      9  HD  IDS C   1      98.817  64.822 194.0520  0.00  0.00     0.000 HD
ENDROOT
BRANCH 2 9
ATOM      9   O  IDS C   1      96.733  64.000 193.4340  0.00  0.00     0.000 O
ATOM     10   S  IDS C   1      96.182  64.660 194.7770  0.00  0.00     0.000 S
ATOM     11   O  IDS C   1      95.376  65.787 194.3630  0.00  0.00     0.000 OA
ATOM     12   O  IDS C   1      95.410  63.625 195.4320  0.00  0.00     0.000 OA
ATOM     13   O  IDS C   1      97.351  65.055 195.5310  0.00  0.00     0.000 OA
ENDBRANCH 2 9
BRANCH 5 14
ATOM     14   C  IDS C   1     100.164  59.882 191.8250  0.00  0.00     0.000 C
ATOM     15   O  IDS C   1     101.353  60.090 191.8080  0.00  0.00     0.000 OA
ATOM     16   O  IDS C   1      99.683  58.961 191.1870  0.00  0.00     0.000 OA
ENDBRANCH 5 14
BRANCH 1 17
ATOM     17  O4  SGN C   2      95.802  61.617 192.2360  0.00  0.00     0.000 O
BRANCH 17 21
ATOM     18  C1  SGN C   2      92.707  61.963 189.4370  0.00  0.00     0.000 C
ATOM     19  C2  SGN C   2      94.130  61.846 188.8770  0.00  0.00     0.000 C
ATOM     20  C3  SGN C   2      95.073  61.310 189.9610  0.00  0.00     0.000 C
ATOM     21  C4  SGN C   2      94.970  62.167 191.2170  0.00  0.00     0.000 C
ATOM     22  C5  SGN C   2      93.516  62.202 191.6780  0.00  0.00     0.000 C
ATOM     23  O5  SGN C   2      92.681  62.730 190.6220  0.00  0.00     0.000 O
ATOM     24   O  SGN C   2      96.404  61.284 189.4720  0.00  0.00     0.000 O
ATOM     26  HD  SGN C   2      95.707  60.988 189.8930  0.00  0.00     0.000 HD
BRANCH 19 28
ATOM     26   N  SGN C   2      93.866  61.421 187.4950  0.00  0.00     0.000 N
ATOM     28  HD  SGN C   2      93.183  61.915 187.6930  0.00  0.00     0.000 HD
ATOM     28   O  SGN C   2      94.746  60.808 185.2430  0.00  0.00     0.000 OA
ATOM     29   S  SGN C   2      94.685  62.011 186.2430  0.00  0.00     0.000 S
ATOM     30   O  SGN C   2      93.903  63.037 185.6690  0.00  0.00     0.000 OA
ATOM     31   O  SGN C   2      96.005  62.299 186.6880  0.00  0.00     0.000 OA
ENDBRANCH 19 28
BRANCH 22 32
ATOM     32   C  SGN C   2      93.292  63.075 192.8890  0.00  0.00     0.000 C
ATOM     33   S  SGN C   2      91.625  64.861 193.7090  0.00  0.00     0.000 S
ATOM     34   O  SGN C   2      92.203  65.883 192.8730  0.00  0.00     0.000 OA
ATOM     35   O  SGN C   2      90.181  64.929 193.7960  0.00  0.00     0.000 OA
ATOM     36   O  SGN C   2      92.272  64.714 194.9920  0.00  0.00     0.000 OA
ATOM     37   O  SGN C   2      91.925  63.500 192.9300  0.00  0.00     0.000 O
ENDBRANCH 22 32
BRANCH 18 38
ATOM     38  O4  IDS C   3      91.781  61.023 189.6390  0.00  0.00     0.000 O
BRANCH 38 42
ATOM     39  C1  IDS C   3      90.023  58.023 189.4430  0.00  0.00     0.000 C
ATOM     40  C2  IDS C   3      90.645  58.659 188.1900  0.00  0.00     0.000 C
ATOM     41  C3  IDS C   3      90.217  60.119 188.0410  0.00  0.00     0.000 C
ATOM     42  C4  IDS C   3      90.386  60.879 189.3500  0.00  0.00     0.000 C
ATOM     43  C5  IDS C   3      89.692  60.118 190.4860  0.00  0.00     0.000 C
ATOM     44  O5  IDS C   3      90.265  58.816 190.5940  0.00  0.00     0.000 O
ATOM     45   O  IDS C   3      88.850  60.172 187.6270  0.00  0.00     0.000 O
ATOM     47  HD  IDS C   3      88.106  59.851 187.9310  0.00  0.00     0.000 HD
BRANCH 40 47
ATOM     47   O  IDS C   3      92.124  58.636 188.2740  0.00  0.00     0.000 O
ATOM     48   S  IDS C   3      92.966  57.743 187.2480  0.00  0.00     0.000 S
ATOM     49   O  IDS C   3      92.845  56.379 187.7170  0.00  0.00     0.000 OA
ATOM     50   O  IDS C   3      94.321  58.239 187.3340  0.00  0.00     0.000 OA
ATOM     51   O  IDS C   3      92.371  57.942 185.9530  0.00  0.00     0.000 OA
ENDBRANCH 40 47
BRANCH 43 52
ATOM     52   C  IDS C   3      89.795  60.829 191.8170  0.00  0.00     0.000 C
ATOM     53   O  IDS C   3      89.172  61.849 192.0050  0.00  0.00     0.000 OA
ATOM     54   O  IDS C   3      90.499  60.376 192.6830  0.00  0.00     0.000 OA
ENDBRANCH 43 52
BRANCH 39 55
ATOM     55  O4  SGN C   4      88.842  57.404 189.4490  0.00  0.00     0.000 O
BRANCH 55 59
ATOM     56  C1  SGN C   4      88.225  54.198 192.0650  0.00  0.00     0.000 C
ATOM     57  C2  SGN C   4      89.170  53.945 190.8770  0.00  0.00     0.000 C
ATOM     58  C3  SGN C   4      89.614  55.262 190.2490  0.00  0.00     0.000 C
ATOM     59  C4  SGN C   4      88.409  56.142 189.9360  0.00  0.00     0.000 C
ATOM     60  C5  SGN C   4      87.593  56.328 191.2130  0.00  0.00     0.000 C
ATOM     61  O5  SGN C   4      87.151  55.031 191.6600  0.00  0.00     0.000 O
ATOM     62   O  SGN C   4      90.362  54.998 189.0690  0.00  0.00     0.000 O
ATOM     64  HD  SGN C   4      90.492  54.302 189.5680  0.00  0.00     0.000 HD
BRANCH 57 66
ATOM     64   N  SGN C   4      89.010  52.487 191.0020  0.00  0.00     0.000 N
ATOM     66  HD  SGN C   4      89.283  51.788 190.5690  0.00  0.00     0.000 HD
ATOM     66   S  SGN C   4      90.287  51.532 191.0560  0.00  0.00     0.000 S
ATOM     67   O  SGN C   4      89.816  50.196 191.1140  0.00  0.00     0.000 OA
ATOM     68   O  SGN C   4      91.146  51.925 189.9930  0.00  0.00     0.000 OA
ATOM     69   O  SGN C   4      90.968  51.900 192.4130  0.00  0.00     0.000 OA
ENDBRANCH 57 66
BRANCH 60 70
ATOM     70   C  SGN C   4      86.367  57.197 191.0330  0.00  0.00     0.000 C
ATOM     71   O  SGN C   4      86.129  60.905 191.5810  0.00  0.00     0.000 OA
ATOM     72   O  SGN C   4      86.327  59.736 189.4730  0.00  0.00     0.000 OA
ATOM     73   O  SGN C   4      86.610  58.524 191.5360  0.00  0.00     0.000 O
ATOM     74   S  SGN C   4      85.815  59.715 190.8240  0.00  0.00     0.000 S
ATOM     75   O  SGN C   4      84.420  59.329 190.9060  0.00  0.00     0.000 OA
ENDBRANCH 60 70
BRANCH 56 76
ATOM     76  O4  IDS C   5      88.369  54.336 193.3960  0.00  0.00     0.000 O
BRANCH 76 80
ATOM     77  C1  IDS C   5      89.408  57.972 194.9320  0.00  0.00     0.000 C
ATOM     78  C2  IDS C   5      90.576  57.003 194.7490  0.00  0.00     0.000 C
ATOM     79  C3  IDS C   5      90.180  55.894 193.7940  0.00  0.00     0.000 C
ATOM     80  C4  IDS C   5      89.073  55.052 194.4220  0.00  0.00     0.000 C
ATOM     81  C5  IDS C   5      88.112  55.968 195.1930  0.00  0.00     0.000 C
ATOM     82  O5  IDS C   5      88.172  57.303 194.6820  0.00  0.00     0.000 O
BRANCH 78 83
ATOM     83   O  IDS C   5      91.756  57.704 194.1890  0.00  0.00     0.000 O
ATOM     84   S  IDS C   5      93.130  57.714 194.9980  0.00  0.00     0.000 S
ATOM     85   O  IDS C   5      92.795  58.095 196.3430  0.00  0.00     0.000 OA
ATOM     86   O  IDS C   5      93.637  56.366 194.8990  0.00  0.00     0.000 OA
ATOM     87   O  IDS C   5      93.972  58.675 194.3260  0.00  0.00     0.000 OA
ENDBRANCH 78 83
BRANCH 81 88
ATOM     88   C  IDS C   5      86.662  55.523 195.1400  0.00  0.00     0.000 C
ATOM     89   O  IDS C   5      85.871  56.138 194.4760  0.00  0.00     0.000 OA
ATOM     90   O  IDS C   5      86.311  54.550 195.7670  0.00  0.00     0.000 OA
ENDBRANCH 81 88
ENDBRANCH 76 80
ENDBRANCH 56 76
ENDBRANCH 55 59
ENDBRANCH 39 55
ENDBRANCH 38 42
ENDBRANCH 18 38
ENDBRANCH 17 21
ENDBRANCH 1 17
TORSDOF 18
ENDMDL
MODEL 32
REMARK VINA RESULT:      -1.9    161.078    165.511
ROOT
ATOM      1  C1  IDS C   1      75.168 149.131 122.8880  0.00  0.00     0.000 C
ATOM      2  C2  IDS C   1      75.354 149.158 121.3690  0.00  0.00     0.000 C
ATOM      3  C3  IDS C   1      75.953 150.483 120.9210  0.00  0.00     0.000 C
ATOM      4  C4  IDS C   1      75.061 151.644 121.3380  0.00  0.00     0.000 C
ATOM      5  C5  IDS C   1      74.488 151.390 122.7290  0.00  0.00     0.000 C
ATOM      6  O5  IDS C   1      75.295 150.441 123.4260  0.00  0.00     0.000 O
ATOM      7   O  IDS C   1      76.121 150.482 119.4960  0.00  0.00     0.000 O
ATOM      9  HD  IDS C   1      76.353 149.685 119.2500  0.00  0.00     0.000 HD
ENDROOT
BRANCH 2 9
ATOM      9   O  IDS C   1      76.272 148.082 120.9310  0.00  0.00     0.000 O
ATOM     10   S  IDS C   1      75.800 147.060 119.8010  0.00  0.00     0.000 S
ATOM     11   O  IDS C   1      76.911 146.158 119.5940  0.00  0.00     0.000 OA
ATOM     12   O  IDS C   1      74.629 146.399 120.3380  0.00  0.00     0.000 OA
ATOM     13   O  IDS C   1      75.508 147.867 118.6370  0.00  0.00     0.000 OA
ENDBRANCH 2 9
BRANCH 5 14
ATOM     14   C  IDS C   1      74.414 152.660 123.5590  0.00  0.00     0.000 C
ATOM     15   O  IDS C   1      74.517 153.732 123.0140  0.00  0.00     0.000 OA
ATOM     16   O  IDS C   1      74.255 152.587 124.7660  0.00  0.00     0.000 OA
ENDBRANCH 5 14
BRANCH 1 17
ATOM     17  O4  SGN C   2      75.472 148.069 123.6400  0.00  0.00     0.000 O
BRANCH 17 21
ATOM     18  C1  SGN C   2      77.785 145.835 126.3200  0.00  0.00     0.000 C
ATOM     19  C2  SGN C   2      78.056 147.344 126.2710  0.00  0.00     0.000 C
ATOM     20  C3  SGN C   2      76.883 148.061 125.5910  0.00  0.00     0.000 C
ATOM     21  C4  SGN C   2      76.605 147.436 124.2290  0.00  0.00     0.000 C
ATOM     22  C5  SGN C   2      76.348 145.943 124.4090  0.00  0.00     0.000 C
ATOM     23  O5  SGN C   2      77.492 145.322 125.0380  0.00  0.00     0.000 O
ATOM     24   O  SGN C   2      77.169 149.443 125.4670  0.00  0.00     0.000 O
ATOM     26  HD  SGN C   2      76.684 148.745 125.6310  0.00  0.00     0.000 HD
BRANCH 19 28
ATOM     26   N  SGN C   2      78.738 147.560 127.5550  0.00  0.00     0.000 N
ATOM     28  HD  SGN C   2      78.968 146.756 127.3320  0.00  0.00     0.000 HD
ATOM     28   O  SGN C   2      79.869 149.122 129.1370  0.00  0.00     0.000 OA
ATOM     29   S  SGN C   2      80.016 148.527 127.6960  0.00  0.00     0.000 S
ATOM     30   O  SGN C   2      81.170 147.714 127.6590  0.00  0.00     0.000 OA
ATOM     31   O  SGN C   2      79.867 149.580 126.7530  0.00  0.00     0.000 OA
ENDBRANCH 19 28
BRANCH 22 32
ATOM     32   C  SGN C   2      76.118 145.214 123.1070  0.00  0.00     0.000 C
ATOM     33   S  SGN C   2      76.842 143.024 121.9570  0.00  0.00     0.000 S
ATOM     34   O  SGN C   2      78.142 143.549 121.6250  0.00  0.00     0.000 OA
ATOM     35   O  SGN C   2      76.861 141.633 122.3580  0.00  0.00     0.000 OA
ATOM     36   O  SGN C   2      75.818 143.328 120.9850  0.00  0.00     0.000 OA
ATOM     37   O  SGN C   2      76.420 143.824 123.2730  0.00  0.00     0.000 O
ENDBRANCH 22 32
BRANCH 18 38
ATOM     38  O4  IDS C   3      77.006 145.126 127.1390  0.00  0.00     0.000 O
BRANCH 38 42
ATOM     39  C1  IDS C   3      75.076 144.211 129.8900  0.00  0.00     0.000 C
ATOM     40  C2  IDS C   3      76.392 144.985 130.0680  0.00  0.00     0.000 C
ATOM     41  C3  IDS C   3      77.543 144.294 129.3380  0.00  0.00     0.000 C
ATOM     42  C4  IDS C   3      77.152 143.929 127.9130  0.00  0.00     0.000 C
ATOM     43  C5  IDS C   3      75.832 143.148 127.9200  0.00  0.00     0.000 C
ATOM     44  O5  IDS C   3      74.817 143.950 128.5200  0.00  0.00     0.000 O
ATOM     45   O  IDS C   3      77.915 143.114 130.0530  0.00  0.00     0.000 O
ATOM     47  HD  IDS C   3      77.497 142.407 130.3280  0.00  0.00     0.000 HD
BRANCH 40 47
ATOM     47   O  IDS C   3      76.270 146.353 129.5120  0.00  0.00     0.000 O
ATOM     48   S  IDS C   3      76.335 147.618 130.4880  0.00  0.00     0.000 S
ATOM     49   O  IDS C   3      75.042 147.688 131.1350  0.00  0.00     0.000 OA
ATOM     50   O  IDS C   3      76.583 148.753 129.6260  0.00  0.00     0.000 OA
ATOM     51   O  IDS C   3      77.407 147.364 131.4120  0.00  0.00     0.000 OA
ENDBRANCH 40 47
BRANCH 43 52
ATOM     52   C  IDS C   3      75.394 142.726 126.5350  0.00  0.00     0.000 C
ATOM     53   O  IDS C   3      76.001 141.861 125.9470  0.00  0.00     0.000 OA
ATOM     54   O  IDS C   3      74.439 143.255 126.0240  0.00  0.00     0.000 OA
ENDBRANCH 43 52
BRANCH 39 55
ATOM     55  O4  SGN C   4      74.671 143.244 130.7130  0.00  0.00     0.000 O
BRANCH 55 59
ATOM     56  C1  SGN C   4      70.574 142.690 131.3600  0.00  0.00     0.000 C
ATOM     57  C2  SGN C   4      71.204 143.951 131.9770  0.00  0.00     0.000 C
ATOM     58  C3  SGN C   4      72.566 144.237 131.3510  0.00  0.00     0.000 C
ATOM     59  C4  SGN C   4      73.447 142.994 131.3900  0.00  0.00     0.000 C
ATOM     60  C5  SGN C   4      72.703 141.844 130.7150  0.00  0.00     0.000 C
ATOM     61  O5  SGN C   4      71.483 141.604 131.4440  0.00  0.00     0.000 O
ATOM     62   O  SGN C   4      73.188 145.314 132.0390  0.00  0.00     0.000 O
ATOM     64  HD  SGN C   4      72.340 145.459 132.1320  0.00  0.00     0.000 HD
BRANCH 57 66
ATOM     64   N  SGN C   4      70.089 144.097 132.9260  0.00  0.00     0.000 N
ATOM     66  HD  SGN C   4      69.891 144.628 133.5820  0.00  0.00     0.000 HD
ATOM     66   S  SGN C   4      69.335 145.495 133.0820  0.00  0.00     0.000 S
ATOM     67   O  SGN C   4      68.363 145.342 134.1030  0.00  0.00     0.000 OA
ATOM     68   O  SGN C   4      70.336 146.496 133.2160  0.00  0.00     0.000 OA
ATOM     69   O  SGN C   4      68.617 145.685 131.7070  0.00  0.00     0.000 OA
ENDBRANCH 57 66
BRANCH 60 70
ATOM     70   C  SGN C   4      73.484 140.547 130.6810  0.00  0.00     0.000 C
ATOM     71   O  SGN C   4      75.728 139.336 127.9240  0.00  0.00     0.000 OA
ATOM     72   O  SGN C   4      76.383 140.355 130.0170  0.00  0.00     0.000 OA
ATOM     73   O  SGN C   4      74.060 140.339 129.3770  0.00  0.00     0.000 O
ATOM     74   S  SGN C   4      75.430 139.516 129.3260  0.00  0.00     0.000 S
ATOM     75   O  SGN C   4      75.143 138.275 130.0190  0.00  0.00     0.000 OA
ENDBRANCH 60 70
BRANCH 56 76
ATOM     76  O4  IDS C   5      69.729 142.435 130.3440  0.00  0.00     0.000 O
BRANCH 76 80
ATOM     77  C1  IDS C   5      71.186 142.173 126.5410  0.00  0.00     0.000 C
ATOM     78  C2  IDS C   5      70.591 143.535 126.9000  0.00  0.00     0.000 C
ATOM     79  C3  IDS C   5      70.492 143.671 128.4070  0.00  0.00     0.000 C
ATOM     80  C4  IDS C   5      69.489 142.656 128.9460  0.00  0.00     0.000 C
ATOM     81  C5  IDS C   5      69.625 141.341 128.1650  0.00  0.00     0.000 C
ATOM     82  O5  IDS C   5      70.929 141.234 127.5850  0.00  0.00     0.000 O
BRANCH 78 83
ATOM     83   O  IDS C   5      71.445 144.631 126.3860  0.00  0.00     0.000 O
ATOM     84   S  IDS C   5      70.837 145.697 125.3660  0.00  0.00     0.000 S
ATOM     85   O  IDS C   5      70.170 144.933 124.3460  0.00  0.00     0.000 OA
ATOM     86   O  IDS C   5      69.934 146.502 126.1540  0.00  0.00     0.000 OA
ATOM     87   O  IDS C   5      71.963 146.449 124.8700  0.00  0.00     0.000 OA
ENDBRANCH 78 83
BRANCH 81 88
ATOM     88   C  IDS C   5      69.394 140.098 129.0050  0.00  0.00     0.000 C
ATOM     89   O  IDS C   5      70.324 139.398 129.3050  0.00  0.00     0.000 OA
ATOM     90   O  IDS C   5      68.275 139.821 129.3680  0.00  0.00     0.000 OA
ENDBRANCH 81 88
ENDBRANCH 76 80
ENDBRANCH 56 76
ENDBRANCH 55 59
ENDBRANCH 39 55
ENDBRANCH 38 42
ENDBRANCH 18 38
ENDBRANCH 17 21
ENDBRANCH 1 17
TORSDOF 18
ENDMDL
MODEL 33
REMARK VINA RESULT:      -1.9    163.247    168.330
ROOT
ATOM      1  C1  IDS C   1      93.032  77.124 202.5460  0.00  0.00     0.000 C
ATOM      2  C2  IDS C   1      93.313  77.736 203.9210  0.00  0.00     0.000 C
ATOM      3  C3  IDS C   1      94.769  78.165 204.0330  0.00  0.00     0.000 C
ATOM      4  C4  IDS C   1      95.697  76.979 203.8120  0.00  0.00     0.000 C
ATOM      5  C5  IDS C   1      95.151  76.088 202.7010  0.00  0.00     0.000 C
ATOM      6  O5  IDS C   1      94.250  76.827 201.8760  0.00  0.00     0.000 O
ATOM      7   O  IDS C   1      95.007  78.739 205.3270  0.00  0.00     0.000 O
ATOM      9  HD  IDS C   1      94.303  79.185 205.5600  0.00  0.00     0.000 HD
ENDROOT
BRANCH 2 9
ATOM      9   O  IDS C   1      92.476  78.936 204.1450  0.00  0.00     0.000 O
ATOM     10   S  IDS C   1      91.571  79.027 205.4560  0.00  0.00     0.000 S
ATOM     11   O  IDS C   1      90.899  80.305 205.3860  0.00  0.00     0.000 OA
ATOM     12   O  IDS C   1      90.659  77.904 205.3780  0.00  0.00     0.000 OA
ATOM     13   O  IDS C   1      92.485  78.934 206.5730  0.00  0.00     0.000 OA
ENDBRANCH 2 9
BRANCH 5 14
ATOM     14   C  IDS C   1      96.256  75.525 201.8230  0.00  0.00     0.000 C
ATOM     15   O  IDS C   1      97.294  75.172 202.3270  0.00  0.00     0.000 OA
ATOM     16   O  IDS C   1      96.086  75.438 200.6180  0.00  0.00     0.000 OA
ENDBRANCH 5 14
BRANCH 1 17
ATOM     17  O4  SGN C   2      91.932  77.399 201.8390  0.00  0.00     0.000 O
BRANCH 17 21
ATOM     18  C1  SGN C   2      89.723  79.224 198.7860  0.00  0.00     0.000 C
ATOM     19  C2  SGN C   2      91.246  79.192 198.6070  0.00  0.00     0.000 C
ATOM     20  C3  SGN C   2      91.859  78.151 199.5520  0.00  0.00     0.000 C
ATOM     21  C4  SGN C   2      91.408  78.413 200.9850  0.00  0.00     0.000 C
ATOM     22  C5  SGN C   2      89.883  78.415 201.0340  0.00  0.00     0.000 C
ATOM     23  O5  SGN C   2      89.366  79.426 200.1370  0.00  0.00     0.000 O
ATOM     24   O  SGN C   2      93.273  78.181 199.4510  0.00  0.00     0.000 O
ATOM     26  HD  SGN C   2      92.489  77.818 199.5140  0.00  0.00     0.000 HD
BRANCH 19 28
ATOM     26   N  SGN C   2      91.375  79.416 197.1610  0.00  0.00     0.000 N
ATOM     28  HD  SGN C   2      90.663  79.860 197.3750  0.00  0.00     0.000 HD
ATOM     28   O  SGN C   2      92.844  79.699 195.1650  0.00  0.00     0.000 OA
ATOM     29   S  SGN C   2      92.506  80.374 196.5370  0.00  0.00     0.000 S
ATOM     30   O  SGN C   2      91.911  81.630 196.2890  0.00  0.00     0.000 OA
ATOM     31   O  SGN C   2      93.651  80.292 197.3760  0.00  0.00     0.000 OA
ENDBRANCH 19 28
BRANCH 22 32
ATOM     32   C  SGN C   2      89.329  78.724 202.4040  0.00  0.00     0.000 C
ATOM     33   S  SGN C   2      87.471  80.160 203.4640  0.00  0.00     0.000 S
ATOM     34   O  SGN C   2      88.230  81.376 203.3150  0.00  0.00     0.000 OA
ATOM     35   O  SGN C   2      86.055  80.325 203.2100  0.00  0.00     0.000 OA
ATOM     36   O  SGN C   2      87.756  79.433 204.6780  0.00  0.00     0.000 OA
ATOM     37   O  SGN C   2      87.992  79.224 202.2810  0.00  0.00     0.000 O
ENDBRANCH 22 32
BRANCH 18 38
ATOM     38  O4  IDS C   3      88.784  78.396 198.3230  0.00  0.00     0.000 O
BRANCH 38 42
ATOM     39  C1  IDS C   3      87.178  75.966 196.4140  0.00  0.00     0.000 C
ATOM     40  C2  IDS C   3      88.121  76.990 195.7620  0.00  0.00     0.000 C
ATOM     41  C3  IDS C   3      87.738  78.418 196.1500  0.00  0.00     0.000 C
ATOM     42  C4  IDS C   3      87.527  78.543 197.6530  0.00  0.00     0.000 C
ATOM     43  C5  IDS C   3      86.550  77.463 198.1310  0.00  0.00     0.000 C
ATOM     44  O5  IDS C   3      87.081  76.178 197.8120  0.00  0.00     0.000 O
ATOM     45   O  IDS C   3      86.543  78.792 195.4620  0.00  0.00     0.000 O
ATOM     47  HD  IDS C   3      85.745  78.460 195.3970  0.00  0.00     0.000 HD
BRANCH 40 47
ATOM     47   O  IDS C   3      89.518  76.768 196.2040  0.00  0.00     0.000 O
ATOM     48   S  IDS C   3      90.622  76.296 195.1480  0.00  0.00     0.000 S
ATOM     49   O  IDS C   3      90.388  74.884 194.9330  0.00  0.00     0.000 OA
ATOM     50   O  IDS C   3      91.894  76.555 195.7860  0.00  0.00     0.000 OA
ATOM     51   O  IDS C   3      90.412  77.083 193.9620  0.00  0.00     0.000 OA
ENDBRANCH 40 47
BRANCH 43 52
ATOM     52   C  IDS C   3      86.269  77.542 199.6150  0.00  0.00     0.000 C
ATOM     53   O  IDS C   3      85.618  78.460 200.0570  0.00  0.00     0.000 OA
ATOM     54   O  IDS C   3      86.696  76.689 200.3510  0.00  0.00     0.000 OA
ENDBRANCH 43 52
BRANCH 39 55
ATOM     55  O4  SGN C   4      86.049  75.538 195.8500  0.00  0.00     0.000 O
BRANCH 55 59
ATOM     56  C1  SGN C   4      84.755  71.626 196.5740  0.00  0.00     0.000 C
ATOM     57  C2  SGN C   4      85.997  71.785 195.6790  0.00  0.00     0.000 C
ATOM     58  C3  SGN C   4      86.587  73.186 195.8170  0.00  0.00     0.000 C
ATOM     59  C4  SGN C   4      85.509  74.245 195.6160  0.00  0.00     0.000 C
ATOM     60  C5  SGN C   4      84.366  73.973 196.5920  0.00  0.00     0.000 C
ATOM     61  O5  SGN C   4      83.829  72.666 196.3070  0.00  0.00     0.000 O
ATOM     62   O  SGN C   4      87.637  73.354 194.8740  0.00  0.00     0.000 O
ATOM     64  HD  SGN C   4      87.628  72.504 195.0390  0.00  0.00     0.000 HD
BRANCH 57 66
ATOM     64   N  SGN C   4      85.821  70.435 195.1200  0.00  0.00     0.000 N
ATOM     66  HD  SGN C   4      86.210  69.954 194.5140  0.00  0.00     0.000 HD
ATOM     66   S  SGN C   4      87.042  69.408 195.0800  0.00  0.00     0.000 S
ATOM     67   O  SGN C   4      86.586  68.230 194.4370  0.00  0.00     0.000 OA
ATOM     68   O  SGN C   4      88.158  70.108 194.5470  0.00  0.00     0.000 OA
ATOM     69   O  SGN C   4      87.317  69.102 196.5880  0.00  0.00     0.000 OA
ENDBRANCH 57 66
BRANCH 60 70
ATOM     70   C  SGN C   4      83.231  74.970 196.4960  0.00  0.00     0.000 C
ATOM     71   O  SGN C   4      82.815  78.115 198.5070  0.00  0.00     0.000 OA
ATOM     72   O  SGN C   4      83.606  77.914 196.2310  0.00  0.00     0.000 OA
ATOM     73   O  SGN C   4      83.312  75.931 197.5670  0.00  0.00     0.000 O
ATOM     74   S  SGN C   4      82.736  77.391 197.2600  0.00  0.00     0.000 S
ATOM     75   O  SGN C   4      81.377  77.166 196.8070  0.00  0.00     0.000 OA
ENDBRANCH 60 70
BRANCH 56 76
ATOM     76  O4  IDS C   5      84.520  71.181 197.8220  0.00  0.00     0.000 O
BRANCH 76 80
ATOM     77  C1  IDS C   5      85.059  73.702 200.9860  0.00  0.00     0.000 C
ATOM     78  C2  IDS C   5      86.240  72.772 200.7070  0.00  0.00     0.000 C
ATOM     79  C3  IDS C   5      86.135  72.215 199.3010  0.00  0.00     0.000 C
ATOM     80  C4  IDS C   5      84.904  71.319 199.1980  0.00  0.00     0.000 C
ATOM     81  C5  IDS C   5      83.758  71.932 200.0160  0.00  0.00     0.000 C
ATOM     82  O5  IDS C   5      83.947  73.342 200.1660  0.00  0.00     0.000 O
BRANCH 78 83
ATOM     83   O  IDS C   5      87.523  73.505 200.8250  0.00  0.00     0.000 O
ATOM     84   S  IDS C   5      88.656  72.965 201.8090  0.00  0.00     0.000 S
ATOM     85   O  IDS C   5      88.001  72.704 203.0630  0.00  0.00     0.000 OA
ATOM     86   O  IDS C   5      89.168  71.771 201.1770  0.00  0.00     0.000 OA
ATOM     87   O  IDS C   5      89.639  74.017 201.8880  0.00  0.00     0.000 OA
ENDBRANCH 78 83
BRANCH 81 88
ATOM     88   C  IDS C   5      82.384  71.717 199.4080  0.00  0.00     0.000 C
ATOM     89   O  IDS C   5      81.806  72.636 198.8950  0.00  0.00     0.000 OA
ATOM     90   O  IDS C   5      81.880  70.618 199.4440  0.00  0.00     0.000 OA
ENDBRANCH 81 88
ENDBRANCH 76 80
ENDBRANCH 56 76
ENDBRANCH 55 59
ENDBRANCH 39 55
ENDBRANCH 38 42
ENDBRANCH 18 38
ENDBRANCH 17 21
ENDBRANCH 1 17
TORSDOF 18
ENDMDL
MODEL 34
REMARK VINA RESULT:      -1.9    147.457    152.251
ROOT
ATOM      1  C1  IDS C   1      98.408  62.719 190.4220  0.00  0.00     0.000 C
ATOM      2  C2  IDS C   1      98.895  63.811 191.3790  0.00  0.00     0.000 C
ATOM      3  C3  IDS C   1     100.357  64.144 191.1190  0.00  0.00     0.000 C
ATOM      4  C4  IDS C   1     101.228  62.907 191.2840  0.00  0.00     0.000 C
ATOM      5  C5  IDS C   1     100.514  61.685 190.7130  0.00  0.00     0.000 C
ATOM      6  O5  IDS C   1      99.512  62.092 189.7810  0.00  0.00     0.000 O
ATOM      7   O  IDS C   1     100.788  65.171 192.0230  0.00  0.00     0.000 O
ATOM      9  HD  IDS C   1     100.131  65.722 192.1430  0.00  0.00     0.000 HD
ENDROOT
BRANCH 2 9
ATOM      9   O  IDS C   1      98.114  65.056 191.1990  0.00  0.00     0.000 O
ATOM     10   S  IDS C   1      97.413  65.730 192.4630  0.00  0.00     0.000 S
ATOM     11   O  IDS C   1      96.753  66.916 191.9640  0.00  0.00     0.000 OA
ATOM     12   O  IDS C   1      96.485  64.739 192.9680  0.00  0.00     0.000 OA
ATOM     13   O  IDS C   1      98.479  66.029 193.3930  0.00  0.00     0.000 OA
ENDBRANCH 2 9
BRANCH 5 14
ATOM     14   C  IDS C   1     101.472  60.740 190.0070  0.00  0.00     0.000 C
ATOM     15   O  IDS C   1     102.587  60.590 190.4430  0.00  0.00     0.000 OA
ATOM     16   O  IDS C   1     101.107  60.144 189.0070  0.00  0.00     0.000 OA
ENDBRANCH 5 14
BRANCH 1 17
ATOM     17  O4  SGN C   2      97.220  62.764 189.8110  0.00  0.00     0.000 O
BRANCH 17 21
ATOM     18  C1  SGN C   2      94.612  63.364 186.5920  0.00  0.00     0.000 C
ATOM     19  C2  SGN C   2      96.092  63.157 186.2470  0.00  0.00     0.000 C
ATOM     20  C3  SGN C   2      96.824  62.541 187.4460  0.00  0.00     0.000 C
ATOM     21  C4  SGN C   2      96.590  63.385 188.6940  0.00  0.00     0.000 C
ATOM     22  C5  SGN C   2      95.088  63.514 188.9340  0.00  0.00     0.000 C
ATOM     23  O5  SGN C   2      94.459  64.114 187.7780  0.00  0.00     0.000 O
ATOM     24   O  SGN C   2      98.208  62.429 187.1610  0.00  0.00     0.000 O
ATOM     26  HD  SGN C   2      97.438  62.177 187.4660  0.00  0.00     0.000 HD
BRANCH 19 28
ATOM     26   N  SGN C   2      96.012  62.771 184.8320  0.00  0.00     0.000 N
ATOM     28  HD  SGN C   2      95.340  63.308 184.9370  0.00  0.00     0.000 HD
ATOM     28   O  SGN C   2      97.178  62.131 182.7210  0.00  0.00     0.000 OA
ATOM     29   S  SGN C   2      97.046  63.321 183.7310  0.00  0.00     0.000 S
ATOM     30   O  SGN C   2      96.429  64.407 183.0710  0.00  0.00     0.000 OA
ATOM     31   O  SGN C   2      98.300  63.510 184.3740  0.00  0.00     0.000 OA
ENDBRANCH 19 28
BRANCH 22 32
ATOM     32   C  SGN C   2      94.744  64.383 190.1180  0.00  0.00     0.000 C
ATOM     33   S  SGN C   2      93.089  66.263 190.7270  0.00  0.00     0.000 S
ATOM     34   O  SGN C   2      93.847  67.256 190.0090  0.00  0.00     0.000 OA
ATOM     35   O  SGN C   2      91.655  66.424 190.6030  0.00  0.00     0.000 OA
ATOM     36   O  SGN C   2      93.529  66.056 192.0870  0.00  0.00     0.000 OA
ATOM     37   O  SGN C   2      93.415  64.896 189.9690  0.00  0.00     0.000 O
ENDBRANCH 22 32
BRANCH 18 38
ATOM     38  O4  IDS C   3      93.606  62.488 186.6300  0.00  0.00     0.000 O
BRANCH 38 42
ATOM     39  C1  IDS C   3      91.704  59.619 186.0980  0.00  0.00     0.000 C
ATOM     40  C2  IDS C   3      92.549  60.230 184.9680  0.00  0.00     0.000 C
ATOM     41  C3  IDS C   3      92.245  61.718 184.7930  0.00  0.00     0.000 C
ATOM     42  C4  IDS C   3      92.264  62.445 186.1310  0.00  0.00     0.000 C
ATOM     43  C5  IDS C   3      91.358  61.716 187.1310  0.00  0.00     0.000 C
ATOM     44  O5  IDS C   3      91.821  60.377 187.2910  0.00  0.00     0.000 O
ATOM     45   O  IDS C   3      90.964  61.870 184.1800  0.00  0.00     0.000 O
ATOM     47  HD  IDS C   3      90.162  61.598 184.3610  0.00  0.00     0.000 HD
BRANCH 40 47
ATOM     47   O  IDS C   3      93.994  60.103 185.2730  0.00  0.00     0.000 O
ATOM     48   S  IDS C   3      94.919  59.167 184.3640  0.00  0.00     0.000 S
ATOM     49   O  IDS C   3      94.639  57.809 184.7780  0.00  0.00     0.000 OA
ATOM     50   O  IDS C   3      96.277  59.568 184.6650  0.00  0.00     0.000 OA
ATOM     51   O  IDS C   3      94.542  59.424 183.0000  0.00  0.00     0.000 OA
ENDBRANCH 40 47
BRANCH 43 52
ATOM     52   C  IDS C   3      91.305  62.400 188.4790  0.00  0.00     0.000 C
ATOM     53   O  IDS C   3      90.729  63.457 188.5970  0.00  0.00     0.000 OA
ATOM     54   O  IDS C   3      91.836  61.886 189.4300  0.00  0.00     0.000 OA
ENDBRANCH 43 52
BRANCH 39 55
ATOM     55  O4  SGN C   4      90.497  59.084 185.9110  0.00  0.00     0.000 O
BRANCH 55 59
ATOM     56  C1  SGN C   4      89.281  55.890 188.3240  0.00  0.00     0.000 C
ATOM     57  C2  SGN C   4      90.376  55.589 187.2870  0.00  0.00     0.000 C
ATOM     58  C3  SGN C   4      90.997  56.882 186.7640  0.00  0.00     0.000 C
ATOM     59  C4  SGN C   4      89.913  57.847 186.2960  0.00  0.00     0.000 C
ATOM     60  C5  SGN C   4      88.927  58.071 187.4400  0.00  0.00     0.000 C
ATOM     61  O5  SGN C   4      88.338  56.801 187.7840  0.00  0.00     0.000 O
ATOM     62   O  SGN C   4      91.895  56.584 185.7040  0.00  0.00     0.000 O
ATOM     64  HD  SGN C   4      91.901  55.874 186.2000  0.00  0.00     0.000 HD
BRANCH 57 66
ATOM     64   N  SGN C   4      90.103  54.145 187.3500  0.00  0.00     0.000 N
ATOM     66  HD  SGN C   4      90.392  53.435 186.9460  0.00  0.00     0.000 HD
ATOM     66   S  SGN C   4      91.291  53.103 187.5720  0.00  0.00     0.000 S
ATOM     67   O  SGN C   4      90.730  51.802 187.5260  0.00  0.00     0.000 OA
ATOM     68   O  SGN C   4      92.325  53.451 186.6600  0.00  0.00     0.000 OA
ATOM     69   O  SGN C   4      91.782  53.405 189.0240  0.00  0.00     0.000 OA
ENDBRANCH 57 66
BRANCH 60 70
ATOM     70   C  SGN C   4      87.802  59.025 187.0990  0.00  0.00     0.000 C
ATOM     71   O  SGN C   4      87.729  62.732 187.6970  0.00  0.00     0.000 OA
ATOM     72   O  SGN C   4      88.168  61.583 185.6150  0.00  0.00     0.000 OA
ATOM     73   O  SGN C   4      88.053  60.325 187.6660  0.00  0.00     0.000 O
ATOM     74   S  SGN C   4      87.455  61.577 186.8720  0.00  0.00     0.000 S
ATOM     75   O  SGN C   4      86.042  61.288 186.7340  0.00  0.00     0.000 OA
ENDBRANCH 60 70
BRANCH 56 76
ATOM     76  O4  IDS C   5      89.230  55.999 189.6650  0.00  0.00     0.000 O
BRANCH 76 80
ATOM     77  C1  IDS C   5      90.265  59.531 191.4290  0.00  0.00     0.000 C
ATOM     78  C2  IDS C   5      91.380  58.486 191.4000  0.00  0.00     0.000 C
ATOM     79  C3  IDS C   5      91.059  57.421 190.3690  0.00  0.00     0.000 C
ATOM     80  C4  IDS C   5      89.816  56.649 190.8020  0.00  0.00     0.000 C
ATOM     81  C5  IDS C   5      88.813  57.619 191.4430  0.00  0.00     0.000 C
ATOM     82  O5  IDS C   5      89.039  58.954 190.9800  0.00  0.00     0.000 O
BRANCH 78 83
ATOM     83   O  IDS C   5      92.674  59.111 191.0400  0.00  0.00     0.000 O
ATOM     84   S  IDS C   5      93.907  59.018 192.0490  0.00  0.00     0.000 S
ATOM     85   O  IDS C   5      93.395  59.405 193.3360  0.00  0.00     0.000 OA
ATOM     86   O  IDS C   5      94.333  57.639 191.9990  0.00  0.00     0.000 OA
ATOM     87   O  IDS C   5      94.902  59.926 191.5340  0.00  0.00     0.000 OA
ENDBRANCH 78 83
BRANCH 81 88
ATOM     88   C  IDS C   5      87.361  57.277 191.1610  0.00  0.00     0.000 C
ATOM     89   O  IDS C   5      86.723  57.955 190.4010  0.00  0.00     0.000 OA
ATOM     90   O  IDS C   5      86.855  56.322 191.7040  0.00  0.00     0.000 OA
ENDBRANCH 81 88
ENDBRANCH 76 80
ENDBRANCH 56 76
ENDBRANCH 55 59
ENDBRANCH 39 55
ENDBRANCH 38 42
ENDBRANCH 18 38
ENDBRANCH 17 21
ENDBRANCH 1 17
TORSDOF 18
ENDMDL
MODEL 35
REMARK VINA RESULT:      -1.9    179.686    184.495
ROOT
ATOM      1  C1  IDS C   1      71.554 146.041 160.0650  0.00  0.00     0.000 C
ATOM      2  C2  IDS C   1      70.501 144.930 160.0950  0.00  0.00     0.000 C
ATOM      3  C3  IDS C   1      69.626 144.981 158.8510  0.00  0.00     0.000 C
ATOM      4  C4  IDS C   1      68.929 146.330 158.7400  0.00  0.00     0.000 C
ATOM      5  C5  IDS C   1      69.879 147.446 159.1650  0.00  0.00     0.000 C
ATOM      6  O5  IDS C   1      71.232 147.002 159.0680  0.00  0.00     0.000 O
ATOM      7   O  IDS C   1      68.652 143.929 158.9000  0.00  0.00     0.000 O
ATOM      9  HD  IDS C   1      69.020 143.233 159.2610  0.00  0.00     0.000 HD
ENDROOT
BRANCH 2 9
ATOM      9   O  IDS C   1      71.143 143.596 160.1340  0.00  0.00     0.000 O
ATOM     10   S  IDS C   1      70.741 142.567 161.2830  0.00  0.00     0.000 S
ATOM     11   O  IDS C   1      71.521 141.374 161.0380  0.00  0.00     0.000 OA
ATOM     12   O  IDS C   1      71.086 143.220 162.5290  0.00  0.00     0.000 OA
ATOM     13   O  IDS C   1      69.319 142.347 161.1370  0.00  0.00     0.000 OA
ENDBRANCH 2 9
BRANCH 5 14
ATOM     14   C  IDS C   1      69.718 148.692 158.3100  0.00  0.00     0.000 C
ATOM     15   O  IDS C   1      70.687 149.177 157.7790  0.00  0.00     0.000 OA
ATOM     16   O  IDS C   1      68.614 149.191 158.1690  0.00  0.00     0.000 OA
ENDBRANCH 5 14
BRANCH 1 17
ATOM     17  O4  SGN C   2      72.828 145.846 160.4160  0.00  0.00     0.000 O
BRANCH 17 21
ATOM     18  C1  SGN C   2      76.922 145.281 159.7430  0.00  0.00     0.000 C
ATOM     19  C2  SGN C   2      76.110 145.871 158.5830  0.00  0.00     0.000 C
ATOM     20  C3  SGN C   2      74.770 146.404 159.1050  0.00  0.00     0.000 C
ATOM     21  C4  SGN C   2      74.039 145.316 159.8830  0.00  0.00     0.000 C
ATOM     22  C5  SGN C   2      74.942 144.815 161.0070  0.00  0.00     0.000 C
ATOM     23  O5  SGN C   2      76.179 144.312 160.4530  0.00  0.00     0.000 O
ATOM     24   O  SGN C   2      73.982 146.870 158.0230  0.00  0.00     0.000 O
ATOM     26  HD  SGN C   2      74.328 146.885 158.8160  0.00  0.00     0.000 HD
BRANCH 19 28
ATOM     26   N  SGN C   2      77.168 146.482 157.7670  0.00  0.00     0.000 N
ATOM     28  HD  SGN C   2      77.557 145.800 158.1320  0.00  0.00     0.000 HD
ATOM     28   O  SGN C   2      77.827 147.739 155.7160  0.00  0.00     0.000 OA
ATOM     29   S  SGN C   2      77.179 146.385 156.1620  0.00  0.00     0.000 S
ATOM     30   O  SGN C   2      78.046 145.329 155.8050  0.00  0.00     0.000 OA
ATOM     31   O  SGN C   2      75.827 146.363 155.7220  0.00  0.00     0.000 OA
ENDBRANCH 19 28
BRANCH 22 32
ATOM     32   C  SGN C   2      74.333 143.690 161.8070  0.00  0.00     0.000 C
ATOM     33   S  SGN C   2      75.031 141.412 162.7890  0.00  0.00     0.000 S
ATOM     34   O  SGN C   2      74.959 140.759 161.5060  0.00  0.00     0.000 OA
ATOM     35   O  SGN C   2      76.139 140.963 163.6080  0.00  0.00     0.000 OA
ATOM     36   O  SGN C   2      73.774 141.458 163.4980  0.00  0.00     0.000 OA
ATOM     37   O  SGN C   2      75.372 142.932 162.4390  0.00  0.00     0.000 O
ENDBRANCH 22 32
BRANCH 18 38
ATOM     38  O4  IDS C   3      77.644 145.890 160.6870  0.00  0.00     0.000 O
BRANCH 38 42
ATOM     39  C1  IDS C   3      79.468 148.313 162.3980  0.00  0.00     0.000 C
ATOM     40  C2  IDS C   3      79.632 148.123 160.8820  0.00  0.00     0.000 C
ATOM     41  C3  IDS C   3      79.923 146.663 160.5360  0.00  0.00     0.000 C
ATOM     42  C4  IDS C   3      78.953 145.725 161.2420  0.00  0.00     0.000 C
ATOM     43  C5  IDS C   3      78.928 146.039 162.7430  0.00  0.00     0.000 C
ATOM     44  O5  IDS C   3      78.528 147.395 162.9300  0.00  0.00     0.000 O
ATOM     45   O  IDS C   3      81.264 146.345 160.9160  0.00  0.00     0.000 O
ATOM     47  HD  IDS C   3      81.720 146.395 161.6500  0.00  0.00     0.000 HD
BRANCH 40 47
ATOM     47   O  IDS C   3      78.390 148.509 160.1710  0.00  0.00     0.000 O
ATOM     48   S  IDS C   3      78.392 149.776 159.1960  0.00  0.00     0.000 S
ATOM     49   O  IDS C   3      78.348 150.939 160.0560  0.00  0.00     0.000 OA
ATOM     50   O  IDS C   3      77.198 149.638 158.3910  0.00  0.00     0.000 OA
ATOM     51   O  IDS C   3      79.605 149.696 158.4280  0.00  0.00     0.000 OA
ENDBRANCH 40 47
BRANCH 43 52
ATOM     52   C  IDS C   3      78.003 145.125 163.5170  0.00  0.00     0.000 C
ATOM     53   O  IDS C   3      78.299 143.964 163.6780  0.00  0.00     0.000 OA
ATOM     54   O  IDS C   3      76.975 145.561 163.9690  0.00  0.00     0.000 OA
ENDBRANCH 43 52
BRANCH 39 55
ATOM     55  O4  SGN C   4      80.479 148.593 163.2210  0.00  0.00     0.000 O
BRANCH 55 59
ATOM     56  C1  SGN C   4      79.770 150.940 166.6110  0.00  0.00     0.000 C
ATOM     57  C2  SGN C   4      79.719 151.660 165.2530  0.00  0.00     0.000 C
ATOM     58  C3  SGN C   4      79.598 150.655 164.1100  0.00  0.00     0.000 C
ATOM     59  C4  SGN C   4      80.669 149.577 164.2270  0.00  0.00     0.000 C
ATOM     60  C5  SGN C   4      80.570 148.935 165.6090  0.00  0.00     0.000 C
ATOM     61  O5  SGN C   4      80.793 149.957 166.6000  0.00  0.00     0.000 O
ATOM     62   O  SGN C   4      79.703 151.334 162.8660  0.00  0.00     0.000 O
ATOM     64  HD  SGN C   4      79.376 151.925 163.4080  0.00  0.00     0.000 HD
BRANCH 57 66
ATOM     64   N  SGN C   4      79.917 152.972 165.8900  0.00  0.00     0.000 N
ATOM     66  HD  SGN C   4      80.015 153.790 165.6220  0.00  0.00     0.000 HD
ATOM     66   S  SGN C   4      78.945 154.192 165.5550  0.00  0.00     0.000 S
ATOM     67   O  SGN C   4      79.421 155.322 166.2660  0.00  0.00     0.000 OA
ATOM     68   O  SGN C   4      78.830 154.256 164.1390  0.00  0.00     0.000 OA
ATOM     69   O  SGN C   4      77.571 153.746 166.1490  0.00  0.00     0.000 OA
ENDBRANCH 57 66
BRANCH 60 70
ATOM     70   C  SGN C   4      81.583 147.835 165.8450  0.00  0.00     0.000 C
ATOM     71   O  SGN C   4      81.098 144.158 165.2500  0.00  0.00     0.000 OA
ATOM     72   O  SGN C   4      82.273 145.736 163.8440  0.00  0.00     0.000 OA
ATOM     73   O  SGN C   4      80.965 146.541 165.7010  0.00  0.00     0.000 O
ATOM     74   S  SGN C   4      81.906 145.354 165.1890  0.00  0.00     0.000 S
ATOM     75   O  SGN C   4      83.024 145.343 166.1110  0.00  0.00     0.000 OA
ENDBRANCH 60 70
BRANCH 56 76
ATOM     76  O4  IDS C   5      78.868 150.578 167.5420  0.00  0.00     0.000 O
BRANCH 76 80
ATOM     77  C1  IDS C   5      76.783 147.101 167.0690  0.00  0.00     0.000 C
ATOM     78  C2  IDS C   5      76.039 148.354 166.6100  0.00  0.00     0.000 C
ATOM     79  C3  IDS C   5      77.021 149.493 166.4130  0.00  0.00     0.000 C
ATOM     80  C4  IDS C   5      77.634 149.877 167.7560  0.00  0.00     0.000 C
ATOM     81  C5  IDS C   5      77.875 148.608 168.5870  0.00  0.00     0.000 C
ATOM     82  O5  IDS C   5      77.993 147.465 167.7350  0.00  0.00     0.000 O
BRANCH 78 83
ATOM     83   O  IDS C   5      75.343 148.109 165.3250  0.00  0.00     0.000 O
ATOM     84   S  IDS C   5      73.759 148.284 165.2360  0.00  0.00     0.000 S
ATOM     85   O  IDS C   5      73.217 147.561 166.3550  0.00  0.00     0.000 OA
ATOM     86   O  IDS C   5      73.531 149.708 165.3150  0.00  0.00     0.000 OA
ATOM     87   O  IDS C   5      73.377 147.730 163.9600  0.00  0.00     0.000 OA
ENDBRANCH 78 83
BRANCH 81 88
ATOM     88   C  IDS C   5      79.122 148.666 169.4510  0.00  0.00     0.000 C
ATOM     89   O  IDS C   5      79.140 149.362 170.4300  0.00  0.00     0.000 OA
ATOM     90   O  IDS C   5      80.090 148.007 169.1480  0.00  0.00     0.000 OA
ENDBRANCH 81 88
ENDBRANCH 76 80
ENDBRANCH 56 76
ENDBRANCH 55 59
ENDBRANCH 39 55
ENDBRANCH 38 42
ENDBRANCH 18 38
ENDBRANCH 17 21
ENDBRANCH 1 17
TORSDOF 18
ENDMDL
MODEL 36
REMARK VINA RESULT:      -1.9    128.010    134.988
ROOT
ATOM      1  C1  IDS C   1      96.541  52.450 177.1900  0.00  0.00     0.000 C
ATOM      2  C2  IDS C   1      97.007  53.908 177.2120  0.00  0.00     0.000 C
ATOM      3  C3  IDS C   1      96.576  54.595 178.5000  0.00  0.00     0.000 C
ATOM      4  C4  IDS C   1      95.062  54.549 178.6520  0.00  0.00     0.000 C
ATOM      5  C5  IDS C   1      94.529  53.199 178.1810  0.00  0.00     0.000 C
ATOM      6  O5  IDS C   1      95.572  52.224 178.2060  0.00  0.00     0.000 O
ATOM      7   O  IDS C   1      97.027  55.956 178.4990  0.00  0.00     0.000 O
ATOM      9  HD  IDS C   1      97.804  55.985 178.1160  0.00  0.00     0.000 HD
ENDROOT
BRANCH 2 9
ATOM      9   O  IDS C   1      98.483  53.991 177.1350  0.00  0.00     0.000 O
ATOM     10   S  IDS C   1      99.160  54.890 176.0050  0.00  0.00     0.000 S
ATOM     11   O  IDS C   1     100.587  54.772 176.2060  0.00  0.00     0.000 OA
ATOM     12   O  IDS C   1      98.719  54.329 174.7440  0.00  0.00     0.000 OA
ATOM     13   O  IDS C   1      98.672  56.234 176.2250  0.00  0.00     0.000 OA
ENDBRANCH 2 9
BRANCH 5 14
ATOM     14   C  IDS C   1      93.385  52.701 179.0480  0.00  0.00     0.000 C
ATOM     15   O  IDS C   1      92.624  53.497 179.5420  0.00  0.00     0.000 OA
ATOM     16   O  IDS C   1      93.245  51.505 179.2380  0.00  0.00     0.000 OA
ENDBRANCH 5 14
BRANCH 1 17
ATOM     17  O4  SGN C   2      97.316  51.445 176.7720  0.00  0.00     0.000 O
BRANCH 17 21
ATOM     18  C1  SGN C   2      99.802  48.107 177.2280  0.00  0.00     0.000 C
ATOM     19  C2  SGN C   2      98.928  48.483 178.4310  0.00  0.00     0.000 C
ATOM     20  C3  SGN C   2      97.800  49.420 177.9830  0.00  0.00     0.000 C
ATOM     21  C4  SGN C   2      98.379  50.619 177.2390  0.00  0.00     0.000 C
ATOM     22  C5  SGN C   2      99.219  50.119 176.0670  0.00  0.00     0.000 C
ATOM     23  O5  SGN C   2     100.272  49.256 176.5540  0.00  0.00     0.000 O
ATOM     24   O  SGN C   2      97.044  49.837 179.1070  0.00  0.00     0.000 O
ATOM     26  HD  SGN C   2      97.175  49.561 178.2970  0.00  0.00     0.000 HD
BRANCH 19 28
ATOM     26   N  SGN C   2      98.926  47.227 179.1940  0.00  0.00     0.000 N
ATOM     28  HD  SGN C   2      99.701  47.231 178.8060  0.00  0.00     0.000 HD
ATOM     28   O  SGN C   2      98.203  45.954 181.2140  0.00  0.00     0.000 OA
ATOM     29   S  SGN C   2      99.064  47.194 180.7960  0.00  0.00     0.000 S
ATOM     30   O  SGN C   2     100.417  46.928 181.1010  0.00  0.00     0.000 OA
ATOM     31   O  SGN C   2      98.445  48.368 181.3060  0.00  0.00     0.000 OA
ENDBRANCH 19 28
BRANCH 22 32
ATOM     32   C  SGN C   2      99.888  51.230 175.2950  0.00  0.00     0.000 C
ATOM     33   S  SGN C   2     102.192  51.762 174.2690  0.00  0.00     0.000 S
ATOM     34   O  SGN C   2     102.765  52.086 175.5520  0.00  0.00     0.000 OA
ATOM     35   O  SGN C   2     103.096  51.046 173.3930  0.00  0.00     0.000 OA
ATOM     36   O  SGN C   2     101.525  52.869 173.6260  0.00  0.00     0.000 OA
ATOM     37   O  SGN C   2     101.035  50.715 174.6080  0.00  0.00     0.000 O
ENDBRANCH 22 32
BRANCH 18 38
ATOM     38  O4  IDS C   3      99.589  47.223 176.2510  0.00  0.00     0.000 O
BRANCH 38 42
ATOM     39  C1  IDS C   3      98.296  44.534 174.4560  0.00  0.00     0.000 C
ATOM     40  C2  IDS C   3      98.585  44.415 175.9610  0.00  0.00     0.000 C
ATOM     41  C3  IDS C   3     100.014  44.849 176.2850  0.00  0.00     0.000 C
ATOM     42  C4  IDS C   3     100.348  46.181 175.6270  0.00  0.00     0.000 C
ATOM     43  C5  IDS C   3     100.019  46.119 174.1310  0.00  0.00     0.000 C
ATOM     44  O5  IDS C   3      98.633  45.822 173.9700  0.00  0.00     0.000 O
ATOM     45   O  IDS C   3     100.927  43.847 175.8350  0.00  0.00     0.000 O
ATOM     47  HD  IDS C   3     101.082  43.456 175.0780  0.00  0.00     0.000 HD
BRANCH 40 47
ATOM     47   O  IDS C   3      97.669  45.285 176.7360  0.00  0.00     0.000 O
ATOM     48   S  IDS C   3      96.590  44.630 177.7180  0.00  0.00     0.000 S
ATOM     49   O  IDS C   3      95.525  44.141 176.8690  0.00  0.00     0.000 OA
ATOM     50   O  IDS C   3      96.159  45.706 178.5820  0.00  0.00     0.000 OA
ATOM     51   O  IDS C   3      97.269  43.575 178.4230  0.00  0.00     0.000 OA
ENDBRANCH 40 47
BRANCH 43 52
ATOM     52   C  IDS C   3     100.352  47.402 173.4030  0.00  0.00     0.000 C
ATOM     53   O  IDS C   3     101.507  47.711 173.2240  0.00  0.00     0.000 OA
ATOM     54   O  IDS C   3      99.463  48.111 173.0050  0.00  0.00     0.000 OA
ENDBRANCH 43 52
BRANCH 39 55
ATOM     55  O4  SGN C   4      98.515  43.550 173.5820  0.00  0.00     0.000 O
BRANCH 55 59
ATOM     56  C1  SGN C   4      96.019  43.187 170.2440  0.00  0.00     0.000 C
ATOM     57  C2  SGN C   4      95.403  42.823 171.6060  0.00  0.00     0.000 C
ATOM     58  C3  SGN C   4      96.257  43.365 172.7490  0.00  0.00     0.000 C
ATOM     59  C4  SGN C   4      97.715  42.954 172.5710  0.00  0.00     0.000 C
ATOM     60  C5  SGN C   4      98.189  43.411 171.1940  0.00  0.00     0.000 C
ATOM     61  O5  SGN C   4      97.372  42.766 170.1960  0.00  0.00     0.000 O
ATOM     62   O  SGN C   4      95.750  42.890 173.9890  0.00  0.00     0.000 O
ATOM     64  HD  SGN C   4      95.059  42.914 173.4670  0.00  0.00     0.000 HD
BRANCH 57 66
ATOM     64   N  SGN C   4      94.331  42.045 170.9640  0.00  0.00     0.000 N
ATOM     66  HD  SGN C   4      93.670  41.553 171.2310  0.00  0.00     0.000 HD
ATOM     66   S  SGN C   4      92.804  42.291 171.3560  0.00  0.00     0.000 S
ATOM     67   O  SGN C   4      92.022  41.361 170.6250  0.00  0.00     0.000 OA
ATOM     68   O  SGN C   4      92.734  42.299 172.7760  0.00  0.00     0.000 OA
ATOM     69   O  SGN C   4      92.515  43.734 170.8330  0.00  0.00     0.000 OA
ENDBRANCH 57 66
BRANCH 60 70
ATOM     70   C  SGN C   4      99.634  43.068 170.9000  0.00  0.00     0.000 C
ATOM     71   O  SGN C   4     102.637  45.240 171.5060  0.00  0.00     0.000 OA
ATOM     72   O  SGN C   4     101.862  43.387 172.8530  0.00  0.00     0.000 OA
ATOM     73   O  SGN C   4     100.473  44.226 171.0720  0.00  0.00     0.000 O
ATOM     74   S  SGN C   4     101.981  43.953 171.5280  0.00  0.00     0.000 S
ATOM     75   O  SGN C   4     102.502  43.022 170.5480  0.00  0.00     0.000 OA
ENDBRANCH 60 70
BRANCH 56 76
ATOM     76  O4  IDS C   5      95.873  44.192 169.3600  0.00  0.00     0.000 O
BRANCH 76 80
ATOM     77  C1  IDS C   5      97.930  47.671 169.9260  0.00  0.00     0.000 C
ATOM     78  C2  IDS C   5      96.488  47.698 170.4300  0.00  0.00     0.000 C
ATOM     79  C3  IDS C   5      95.969  46.281 170.5810  0.00  0.00     0.000 C
ATOM     80  C4  IDS C   5      95.887  45.619 169.2080  0.00  0.00     0.000 C
ATOM     81  C5  IDS C   5      97.090  46.056 168.3600  0.00  0.00     0.000 C
ATOM     82  O5  IDS C   5      98.174  46.467 169.1990  0.00  0.00     0.000 O
BRANCH 78 83
ATOM     83   O  IDS C   5      96.406  48.369 171.7480  0.00  0.00     0.000 O
ATOM     84   S  IDS C   5      95.493  49.666 171.9230  0.00  0.00     0.000 S
ATOM     85   O  IDS C   5      95.833  50.538 170.8300  0.00  0.00     0.000 OA
ATOM     86   O  IDS C   5      94.134  49.183 171.8630  0.00  0.00     0.000 OA
ATOM     87   O  IDS C   5      95.833  50.212 173.2140  0.00  0.00     0.000 OA
ENDBRANCH 78 83
BRANCH 81 88
ATOM     88   C  IDS C   5      97.614  44.976 167.4320  0.00  0.00     0.000 C
ATOM     89   O  IDS C   5      96.983  44.668 166.4560  0.00  0.00     0.000 OA
ATOM     90   O  IDS C   5      98.666  44.432 167.6790  0.00  0.00     0.000 OA
ENDBRANCH 81 88
ENDBRANCH 76 80
ENDBRANCH 56 76
ENDBRANCH 55 59
ENDBRANCH 39 55
ENDBRANCH 38 42
ENDBRANCH 18 38
ENDBRANCH 17 21
ENDBRANCH 1 17
TORSDOF 18
ENDMDL
MODEL 37
REMARK VINA RESULT:      -1.9    202.854    209.653
ROOT
ATOM      1  C1  IDS C   1     134.161 181.231 186.8840  0.00  0.00     0.000 C
ATOM      2  C2  IDS C   1     134.537 181.433 188.3540  0.00  0.00     0.000 C
ATOM      3  C3  IDS C   1     136.046 181.557 188.5140  0.00  0.00     0.000 C
ATOM      4  C4  IDS C   1     136.746 180.315 187.9810  0.00  0.00     0.000 C
ATOM      5  C5  IDS C   1     136.057 179.830 186.7100  0.00  0.00     0.000 C
ATOM      6  O5  IDS C   1     135.311 180.894 186.1190  0.00  0.00     0.000 O
ATOM      7   O  IDS C   1     136.373 181.750 189.8970  0.00  0.00     0.000 O
ATOM      9  HD  IDS C   1     135.759 182.244 190.2560  0.00  0.00     0.000 HD
ENDROOT
BRANCH 2 9
ATOM      9   O  IDS C   1     133.928 182.671 188.8890  0.00  0.00     0.000 O
ATOM     10   S  IDS C   1     133.043 182.600 190.2140  0.00  0.00     0.000 S
ATOM     11   O  IDS C   1     132.613 183.956 190.4770  0.00  0.00     0.000 OA
ATOM     12   O  IDS C   1     131.944 181.710 189.9010  0.00  0.00     0.000 OA
ATOM     13   O  IDS C   1     133.915 182.079 191.2440  0.00  0.00     0.000 OA
ENDBRANCH 2 9
BRANCH 5 14
ATOM     14   C  IDS C   1     137.049 179.310 185.6830  0.00  0.00     0.000 C
ATOM     15   O  IDS C   1     137.875 178.495 186.0150  0.00  0.00     0.000 OA
ATOM     16   O  IDS C   1     137.004 179.721 184.5360  0.00  0.00     0.000 OA
ENDBRANCH 5 14
BRANCH 1 17
ATOM     17  O4  SGN C   2     133.134 181.859 186.3030  0.00  0.00     0.000 O
BRANCH 17 21
ATOM     18  C1  SGN C   2     131.318 184.731 183.8580  0.00  0.00     0.000 C
ATOM     19  C2  SGN C   2     132.814 184.480 183.6290  0.00  0.00     0.000 C
ATOM     20  C3  SGN C   2     133.222 183.149 184.2720  0.00  0.00     0.000 C
ATOM     21  C4  SGN C   2     132.808 183.126 185.7390  0.00  0.00     0.000 C
ATOM     22  C5  SGN C   2     131.306 183.381 185.8360  0.00  0.00     0.000 C
ATOM     23  O5  SGN C   2     130.987 184.655 185.2290  0.00  0.00     0.000 O
ATOM     24   O  SGN C   2     134.620 182.957 184.1360  0.00  0.00     0.000 O
ATOM     26  HD  SGN C   2     133.784 182.731 184.1330  0.00  0.00     0.000 HD
BRANCH 19 28
ATOM     26   N  SGN C   2     132.997 185.022 182.2750  0.00  0.00     0.000 N
ATOM     28  HD  SGN C   2     132.366 185.512 182.6090  0.00  0.00     0.000 HD
ATOM     28   O  SGN C   2     134.517 185.530 180.3640  0.00  0.00     0.000 OA
ATOM     29   S  SGN C   2     134.280 185.900 181.8670  0.00  0.00     0.000 S
ATOM     30   O  SGN C   2     133.907 187.260 181.9440  0.00  0.00     0.000 OA
ATOM     31   O  SGN C   2     135.385 185.430 182.6290  0.00  0.00     0.000 OA
ENDBRANCH 19 28
BRANCH 22 32
ATOM     32   C  SGN C   2     130.800 183.437 187.2560  0.00  0.00     0.000 C
ATOM     33   S  SGN C   2     129.297 184.932 188.7210  0.00  0.00     0.000 S
ATOM     34   O  SGN C   2     130.324 185.933 188.8740  0.00  0.00     0.000 OA
ATOM     35   O  SGN C   2     127.967 185.484 188.5680  0.00  0.00     0.000 OA
ATOM     36   O  SGN C   2     129.368 183.863 189.6890  0.00  0.00     0.000 OA
ATOM     37   O  SGN C   2     129.620 184.248 187.3160  0.00  0.00     0.000 O
ENDBRANCH 22 32
BRANCH 18 38
ATOM     38  O4  IDS C   3     130.253 184.219 183.2380  0.00  0.00     0.000 O
BRANCH 38 42
ATOM     39  C1  IDS C   3     128.228 182.665 180.8690  0.00  0.00     0.000 C
ATOM     40  C2  IDS C   3     129.322 183.659 180.4460  0.00  0.00     0.000 C
ATOM     41  C3  IDS C   3     129.195 184.977 181.2090  0.00  0.00     0.000 C
ATOM     42  C4  IDS C   3     129.030 184.736 182.7030  0.00  0.00     0.000 C
ATOM     43  C5  IDS C   3     127.890 183.740 182.9460  0.00  0.00     0.000 C
ATOM     44  O5  IDS C   3     128.190 182.515 182.2780  0.00  0.00     0.000 O
ATOM     45   O  IDS C   3     128.070 185.705 180.7110  0.00  0.00     0.000 O
ATOM     47  HD  IDS C   3     127.227 185.535 180.6100  0.00  0.00     0.000 HD
BRANCH 40 47
ATOM     47   O  IDS C   3     130.667 183.107 180.7340  0.00  0.00     0.000 O
ATOM     48   S  IDS C   3     131.640 182.713 179.5280  0.00  0.00     0.000 S
ATOM     49   O  IDS C   3     131.151 181.450 179.0180  0.00  0.00     0.000 OA
ATOM     50   O  IDS C   3     132.954 182.598 180.1210  0.00  0.00     0.000 OA
ATOM     51   O  IDS C   3     131.545 183.778 178.5650  0.00  0.00     0.000 OA
ENDBRANCH 40 47
BRANCH 43 52
ATOM     52   C  IDS C   3     127.649 183.472 184.4150  0.00  0.00     0.000 C
ATOM     53   O  IDS C   3     127.131 184.319 185.1060  0.00  0.00     0.000 OA
ATOM     54   O  IDS C   3     127.975 182.414 184.8900  0.00  0.00     0.000 OA
ENDBRANCH 43 52
BRANCH 39 55
ATOM     55  O4  SGN C   4     127.034 182.587 180.2820  0.00  0.00     0.000 O
BRANCH 55 59
ATOM     56  C1  SGN C   4     125.081 178.891 180.1060  0.00  0.00     0.000 C
ATOM     57  C2  SGN C   4     126.317 179.059 179.2060  0.00  0.00     0.000 C
ATOM     58  C3  SGN C   4     127.148 180.262 179.6450  0.00  0.00     0.000 C
ATOM     59  C4  SGN C   4     126.271 181.503 179.7720  0.00  0.00     0.000 C
ATOM     60  C5  SGN C   4     125.113 181.191 180.7180  0.00  0.00     0.000 C
ATOM     61  O5  SGN C   4     124.349 180.105 180.1550  0.00  0.00     0.000 O
ATOM     62   O  SGN C   4     128.197 180.483 178.7120  0.00  0.00     0.000 O
ATOM     64  HD  SGN C   4     128.040 179.632 178.6650  0.00  0.00     0.000 HD
BRANCH 57 66
ATOM     64   N  SGN C   4     125.898 177.941 178.3450  0.00  0.00     0.000 N
ATOM     66  HD  SGN C   4     126.187 177.569 177.6180  0.00  0.00     0.000 HD
ATOM     66   S  SGN C   4     126.917 176.767 177.9860  0.00  0.00     0.000 S
ATOM     67   O  SGN C   4     126.251 175.882 177.1020  0.00  0.00     0.000 OA
ATOM     68   O  SGN C   4     128.132 177.381 177.5750  0.00  0.00     0.000 OA
ATOM     69   O  SGN C   4     127.155 176.052 179.3540  0.00  0.00     0.000 OA
ENDBRANCH 57 66
BRANCH 60 70
ATOM     70   C  SGN C   4     124.171 182.355 180.9340  0.00  0.00     0.000 C
ATOM     71   O  SGN C   4     124.344 184.919 183.6740  0.00  0.00     0.000 OA
ATOM     72   O  SGN C   4     125.055 185.166 181.3750  0.00  0.00     0.000 OA
ATOM     73   O  SGN C   4     124.434 182.989 182.2010  0.00  0.00     0.000 O
ATOM     74   S  SGN C   4     124.121 184.555 182.2930  0.00  0.00     0.000 S
ATOM     75   O  SGN C   4     122.738 184.681 181.8790  0.00  0.00     0.000 OA
ENDBRANCH 60 70
BRANCH 56 76
ATOM     76  O4  IDS C   5     124.790 178.194 181.2190  0.00  0.00     0.000 O
BRANCH 76 80
ATOM     77  C1  IDS C   5     125.817 179.699 184.8710  0.00  0.00     0.000 C
ATOM     78  C2  IDS C   5     126.814 178.692 184.2970  0.00  0.00     0.000 C
ATOM     79  C3  IDS C   5     126.587 178.538 182.8060  0.00  0.00     0.000 C
ATOM     80  C4  IDS C   5     125.218 177.911 182.5600  0.00  0.00     0.000 C
ATOM     81  C5  IDS C   5     124.211 178.473 183.5740  0.00  0.00     0.000 C
ATOM     82  O5  IDS C   5     124.645 179.747 184.0590  0.00  0.00     0.000 O
BRANCH 78 83
ATOM     83   O  IDS C   5     128.206 179.151 184.5140  0.00  0.00     0.000 O
ATOM     84   S  IDS C   5     129.188 178.294 185.4340  0.00  0.00     0.000 S
ATOM     85   O  IDS C   5     128.458 178.016 186.6410  0.00  0.00     0.000 OA
ATOM     86   O  IDS C   5     129.489 177.109 184.6650  0.00  0.00     0.000 OA
ATOM     87   O  IDS C   5     130.347 179.126 185.6480  0.00  0.00     0.000 OA
ENDBRANCH 78 83
BRANCH 81 88
ATOM     88   C  IDS C   5     122.810 178.647 183.0190  0.00  0.00     0.000 C
ATOM     89   O  IDS C   5     122.388 179.750 182.7920  0.00  0.00     0.000 OA
ATOM     90   O  IDS C   5     122.124 177.673 182.8070  0.00  0.00     0.000 OA
ENDBRANCH 81 88
ENDBRANCH 76 80
ENDBRANCH 56 76
ENDBRANCH 55 59
ENDBRANCH 39 55
ENDBRANCH 38 42
ENDBRANCH 18 38
ENDBRANCH 17 21
ENDBRANCH 1 17
TORSDOF 18
ENDMDL
MODEL 38
REMARK VINA RESULT:      -1.9    201.249    208.349
ROOT
ATOM      1  C1  IDS C   1     125.430 181.490 189.1530  0.00  0.00     0.000 C
ATOM      2  C2  IDS C   1     125.069 182.063 190.5270  0.00  0.00     0.000 C
ATOM      3  C3  IDS C   1     125.621 183.472 190.6870  0.00  0.00     0.000 C
ATOM      4  C4  IDS C   1     127.135 183.477 190.5230  0.00  0.00     0.000 C
ATOM      5  C5  IDS C   1     127.544 182.519 189.4090  0.00  0.00     0.000 C
ATOM      6  O5  IDS C   1     126.439 182.280 188.5370  0.00  0.00     0.000 O
ATOM      7   O  IDS C   1     125.266 183.988 191.9770  0.00  0.00     0.000 O
ATOM      9  HD  IDS C   1     124.472 183.704 192.1760  0.00  0.00     0.000 HD
ENDROOT
BRANCH 2 9
ATOM      9   O  IDS C   1     123.600 182.138 190.6960  0.00  0.00     0.000 O
ATOM     10   S  IDS C   1     122.922 181.456 191.9690  0.00  0.00     0.000 S
ATOM     11   O  IDS C   1     121.505 181.715 191.8490  0.00  0.00     0.000 OA
ATOM     12   O  IDS C   1     123.249 180.048 191.8770  0.00  0.00     0.000 OA
ATOM     13   O  IDS C   1     123.514 182.098 193.1220  0.00  0.00     0.000 OA
ENDBRANCH 2 9
BRANCH 5 14
ATOM     14   C  IDS C   1     128.700 183.059 188.5850  0.00  0.00     0.000 C
ATOM     15   O  IDS C   1     128.583 183.151 187.3870  0.00  0.00     0.000 OA
ATOM     16   O  IDS C   1     129.734 183.393 189.1380  0.00  0.00     0.000 OA
ENDBRANCH 5 14
BRANCH 1 17
ATOM     17  O4  SGN C   2     124.565 180.806 188.3990  0.00  0.00     0.000 O
BRANCH 17 21
ATOM     18  C1  SGN C   2     121.887 180.247 185.2310  0.00  0.00     0.000 C
ATOM     19  C2  SGN C   2     122.854 181.431 185.1120  0.00  0.00     0.000 C
ATOM     20  C3  SGN C   2     124.015 181.255 186.0980  0.00  0.00     0.000 C
ATOM     21  C4  SGN C   2     123.477 181.034 187.5070  0.00  0.00     0.000 C
ATOM     22  C5  SGN C   2     122.536 179.833 187.4980  0.00  0.00     0.000 C
ATOM     23  O5  SGN C   2     121.457 180.065 186.5630  0.00  0.00     0.000 O
ATOM     24   O  SGN C   2     124.864 182.390 186.0520  0.00  0.00     0.000 O
ATOM     26  HD  SGN C   2     124.666 181.547 186.0910  0.00  0.00     0.000 HD
BRANCH 19 28
ATOM     26   N  SGN C   2     122.815 181.697 183.6670  0.00  0.00     0.000 N
ATOM     28  HD  SGN C   2     122.021 181.399 183.8430  0.00  0.00     0.000 HD
ATOM     28   O  SGN C   2     123.568 183.069 181.7250  0.00  0.00     0.000 OA
ATOM     29   S  SGN C   2     122.772 183.188 183.0680  0.00  0.00     0.000 S
ATOM     30   O  SGN C   2     121.424 183.488 182.7690  0.00  0.00     0.000 OA
ATOM     31   O  SGN C   2     123.500 184.030 183.9530  0.00  0.00     0.000 OA
ENDBRANCH 19 28
BRANCH 22 32
ATOM     32   C  SGN C   2     121.900 179.560 188.8390  0.00  0.00     0.000 C
ATOM     33   S  SGN C   2     119.582 178.974 189.8020  0.00  0.00     0.000 S
ATOM     34   O  SGN C   2     119.107 180.328 189.6660  0.00  0.00     0.000 OA
ATOM     35   O  SGN C   2     118.583 177.973 189.4880  0.00  0.00     0.000 OA
ATOM     36   O  SGN C   2     120.284 178.717 191.0370  0.00  0.00     0.000 OA
ATOM     37   O  SGN C   2     120.683 178.826 188.6550  0.00  0.00     0.000 O
ENDBRANCH 22 32
BRANCH 18 38
ATOM     38  O4  IDS C   3     121.979 179.007 184.7470  0.00  0.00     0.000 O
BRANCH 38 42
ATOM     39  C1  IDS C   3     122.975 176.279 182.8250  0.00  0.00     0.000 C
ATOM     40  C2  IDS C   3     122.767 177.662 182.1880  0.00  0.00     0.000 C
ATOM     41  C3  IDS C   3     121.394 178.232 182.5400  0.00  0.00     0.000 C
ATOM     42  C4  IDS C   3     121.115 178.117 184.0320  0.00  0.00     0.000 C
ATOM     43  C5  IDS C   3     121.350 176.674 184.4950  0.00  0.00     0.000 C
ATOM     44  O5  IDS C   3     122.700 176.309 184.2150  0.00  0.00     0.000 O
ATOM     45   O  IDS C   3     120.388 177.530 181.8060  0.00  0.00     0.000 O
ATOM     47  HD  IDS C   3     120.162 176.699 181.7190  0.00  0.00     0.000 HD
BRANCH 40 47
ATOM     47   O  IDS C   3     123.786 178.620 182.6820  0.00  0.00     0.000 O
ATOM     48   S  IDS C   3     124.875 179.213 181.6730  0.00  0.00     0.000 S
ATOM     49   O  IDS C   3     125.851 178.162 181.4800  0.00  0.00     0.000 OA
ATOM     50   O  IDS C   3     125.430 180.366 182.3470  0.00  0.00     0.000 OA
ATOM     51   O  IDS C   3     124.171 179.548 180.4640  0.00  0.00     0.000 OA
ENDBRANCH 40 47
BRANCH 43 52
ATOM     52   C  IDS C   3     121.065 176.477 185.9670  0.00  0.00     0.000 C
ATOM     53   O  IDS C   3     121.978 176.290 186.7390  0.00  0.00     0.000 OA
ATOM     54   O  IDS C   3     119.928 176.508 186.3650  0.00  0.00     0.000 OA
ENDBRANCH 43 52
BRANCH 39 55
ATOM     55  O4  SGN C   4     122.637 175.134 182.2300  0.00  0.00     0.000 O
BRANCH 55 59
ATOM     56  C1  SGN C   4     124.899 171.695 182.9790  0.00  0.00     0.000 C
ATOM     57  C2  SGN C   4     125.569 172.786 182.1270  0.00  0.00     0.000 C
ATOM     58  C3  SGN C   4     124.823 174.111 182.2590  0.00  0.00     0.000 C
ATOM     59  C4  SGN C   4     123.333 173.917 182.0010  0.00  0.00     0.000 C
ATOM     60  C5  SGN C   4     122.809 172.833 182.9400  0.00  0.00     0.000 C
ATOM     61  O5  SGN C   4     123.519 171.610 182.6610  0.00  0.00     0.000 O
ATOM     62   O  SGN C   4     125.370 175.058 181.3520  0.00  0.00     0.000 O
ATOM     64  HD  SGN C   4     126.028 174.525 181.5320  0.00  0.00     0.000 HD
BRANCH 57 66
ATOM     64   N  SGN C   4     126.545 171.827 181.5850  0.00  0.00     0.000 N
ATOM     66  HD  SGN C   4     127.185 171.848 181.0020  0.00  0.00     0.000 HD
ATOM     66   S  SGN C   4     128.106 172.156 181.6100  0.00  0.00     0.000 S
ATOM     67   O  SGN C   4     128.777 171.084 180.9700  0.00  0.00     0.000 OA
ATOM     68   O  SGN C   4     128.261 173.477 181.1060  0.00  0.00     0.000 OA
ATOM     69   O  SGN C   4     128.461 172.156 183.1320  0.00  0.00     0.000 OA
ENDBRANCH 57 66
BRANCH 60 70
ATOM     70   C  SGN C   4     121.330 172.553 182.7860  0.00  0.00     0.000 C
ATOM     71   O  SGN C   4     118.523 174.125 184.7240  0.00  0.00     0.000 OA
ATOM     72   O  SGN C   4     119.249 174.665 182.4820  0.00  0.00     0.000 OA
ATOM     73   O  SGN C   4     120.583 173.189 183.8410  0.00  0.00     0.000 O
ATOM     74   S  SGN C   4     119.090 173.639 183.4870  0.00  0.00     0.000 S
ATOM     75   O  SGN C   4     118.449 172.439 182.9900  0.00  0.00     0.000 OA
ENDBRANCH 60 70
BRANCH 56 76
ATOM     76  O4  IDS C   5     125.059 171.214 184.2260  0.00  0.00     0.000 O
BRANCH 76 80
ATOM     77  C1  IDS C   5     123.285 173.139 187.3580  0.00  0.00     0.000 C
ATOM     78  C2  IDS C   5     124.754 173.501 187.1410  0.00  0.00     0.000 C
ATOM     79  C3  IDS C   5     125.182 173.098 185.7430  0.00  0.00     0.000 C
ATOM     80  C4  IDS C   5     125.134 171.578 185.6130  0.00  0.00     0.000 C
ATOM     81  C5  IDS C   5     123.915 171.041 186.3750  0.00  0.00     0.000 C
ATOM     82  O5  IDS C   5     122.915 172.056 186.5050  0.00  0.00     0.000 O
BRANCH 78 83
ATOM     83   O  IDS C   5     124.962 174.960 187.2920  0.00  0.00     0.000 O
ATOM     84   S  IDS C   5     125.969 175.506 188.4020  0.00  0.00     0.000 S
ATOM     85   O  IDS C   5     125.622 174.825 189.6200  0.00  0.00     0.000 OA
ATOM     86   O  IDS C   5     127.286 175.168 187.9180  0.00  0.00     0.000 OA
ATOM     87   O  IDS C   5     125.747 176.930 188.4630  0.00  0.00     0.000 OA
ENDBRANCH 78 83
BRANCH 81 88
ATOM     88   C  IDS C   5     123.262 169.836 185.7220  0.00  0.00     0.000 C
ATOM     89   O  IDS C   5     123.809 168.767 185.7550  0.00  0.00     0.000 OA
ATOM     90   O  IDS C   5     122.192 169.960 185.1710  0.00  0.00     0.000 OA
ENDBRANCH 81 88
ENDBRANCH 76 80
ENDBRANCH 56 76
ENDBRANCH 55 59
ENDBRANCH 39 55
ENDBRANCH 38 42
ENDBRANCH 18 38
ENDBRANCH 17 21
ENDBRANCH 1 17
TORSDOF 18
ENDMDL
MODEL 39
REMARK VINA RESULT:      -1.9    160.068    167.343
ROOT
ATOM      1  C1  IDS C   1      85.069  74.620 199.7280  0.00  0.00     0.000 C
ATOM      2  C2  IDS C   1      83.633  74.362 199.2610  0.00  0.00     0.000 C
ATOM      3  C3  IDS C   1      82.756  73.926 200.4260  0.00  0.00     0.000 C
ATOM      4  C4  IDS C   1      83.309  72.663 201.0710  0.00  0.00     0.000 C
ATOM      5  C5  IDS C   1      84.833  72.726 201.1240  0.00  0.00     0.000 C
ATOM      6  O5  IDS C   1      85.272  74.081 201.0280  0.00  0.00     0.000 O
ATOM      7   O  IDS C   1      81.418  73.695 199.9650  0.00  0.00     0.000 O
ATOM      9  HD  IDS C   1      81.235  74.281 199.3540  0.00  0.00     0.000 HD
ENDROOT
BRANCH 2 9
ATOM      9   O  IDS C   1      83.037  75.590 198.6880  0.00  0.00     0.000 O
ATOM     10   S  IDS C   1      82.405  75.545 197.2250  0.00  0.00     0.000 S
ATOM     11   O  IDS C   1      81.903  76.876 196.9690  0.00  0.00     0.000 OA
ATOM     12   O  IDS C   1      83.491  75.172 196.3420  0.00  0.00     0.000 OA
ATOM     13   O  IDS C   1      81.356  74.550 197.2780  0.00  0.00     0.000 OA
ENDBRANCH 2 9
BRANCH 5 14
ATOM     14   C  IDS C   1      85.387  72.130 202.4060  0.00  0.00     0.000 C
ATOM     15   O  IDS C   1      86.137  72.784 203.0890  0.00  0.00     0.000 OA
ATOM     16   O  IDS C   1      85.072  70.998 202.7330  0.00  0.00     0.000 OA
ENDBRANCH 5 14
BRANCH 1 17
ATOM     17  O4  SGN C   2      85.789  75.669 199.3210  0.00  0.00     0.000 O
BRANCH 17 21
ATOM     18  C1  SGN C   2      87.572  79.439 199.6900  0.00  0.00     0.000 C
ATOM     19  C2  SGN C   2      87.158  78.744 200.9940  0.00  0.00     0.000 C
ATOM     20  C3  SGN C   2      86.929  77.250 200.7360  0.00  0.00     0.000 C
ATOM     21  C4  SGN C   2      85.940  77.060 199.5910  0.00  0.00     0.000 C
ATOM     22  C5  SGN C   2      86.462  77.789 198.3560  0.00  0.00     0.000 C
ATOM     23  O5  SGN C   2      86.642  79.192 198.6570  0.00  0.00     0.000 O
ATOM     24   O  SGN C   2      86.462  76.622 201.9180  0.00  0.00     0.000 O
ATOM     26  HD  SGN C   2      86.932  76.703 201.1950  0.00  0.00     0.000 HD
BRANCH 19 28
ATOM     26   N  SGN C   2      87.974  79.465 201.9810  0.00  0.00     0.000 N
ATOM     28  HD  SGN C   2      87.815  80.059 201.3710  0.00  0.00     0.000 HD
ATOM     28   O  SGN C   2      88.638  79.811 204.3600  0.00  0.00     0.000 OA
ATOM     29   S  SGN C   2      87.395  79.910 203.4130  0.00  0.00     0.000 S
ATOM     30   O  SGN C   2      87.010  81.266 203.3130  0.00  0.00     0.000 OA
ATOM     31   O  SGN C   2      86.440  78.936 203.8150  0.00  0.00     0.000 OA
ENDBRANCH 19 28
BRANCH 22 32
ATOM     32   C  SGN C   2      85.525  77.713 197.1760  0.00  0.00     0.000 C
ATOM     33   S  SGN C   2      84.566  79.269 195.3590  0.00  0.00     0.000 S
ATOM     34   O  SGN C   2      83.630  79.873 196.2730  0.00  0.00     0.000 OA
ATOM     35   O  SGN C   2      85.150  80.206 194.4220  0.00  0.00     0.000 OA
ATOM     36   O  SGN C   2      84.083  78.059 194.7360  0.00  0.00     0.000 OA
ATOM     37   O  SGN C   2      85.780  78.807 196.2870  0.00  0.00     0.000 O
ENDBRANCH 22 32
BRANCH 18 38
ATOM     38  O4  IDS C   3      88.751  79.467 199.0660  0.00  0.00     0.000 O
BRANCH 38 42
ATOM     39  C1  IDS C   3      92.171  79.222 198.4580  0.00  0.00     0.000 C
ATOM     40  C2  IDS C   3      91.641  79.820 199.7710  0.00  0.00     0.000 C
ATOM     41  C3  IDS C   3      90.621  80.926 199.5030  0.00  0.00     0.000 C
ATOM     42  C4  IDS C   3      89.580  80.480 198.4850  0.00  0.00     0.000 C
ATOM     43  C5  IDS C   3      90.278  79.931 197.2350  0.00  0.00     0.000 C
ATOM     44  O5  IDS C   3      91.106  78.831 197.6070  0.00  0.00     0.000 O
ATOM     45   O  IDS C   3      91.299  82.088 199.0220  0.00  0.00     0.000 O
ATOM     47  HD  IDS C   3      91.841  82.253 198.3670  0.00  0.00     0.000 HD
BRANCH 40 47
ATOM     47   O  IDS C   3      90.965  78.778 200.5820  0.00  0.00     0.000 O
ATOM     48   S  IDS C   3      91.593  78.329 201.9830  0.00  0.00     0.000 S
ATOM     49   O  IDS C   3      92.704  77.460 201.6600  0.00  0.00     0.000 OA
ATOM     50   O  IDS C   3      90.528  77.633 202.6700  0.00  0.00     0.000 OA
ATOM     51   O  IDS C   3      92.004  79.535 202.6500  0.00  0.00     0.000 OA
ENDBRANCH 40 47
BRANCH 43 52
ATOM     52   C  IDS C   3      89.303  79.493 196.1640  0.00  0.00     0.000 C
ATOM     53   O  IDS C   3      88.669  80.320 195.5510  0.00  0.00     0.000 OA
ATOM     54   O  IDS C   3      89.164  78.320 195.9280  0.00  0.00     0.000 OA
ENDBRANCH 43 52
BRANCH 39 55
ATOM     55  O4  SGN C   4      93.239  79.690 197.8120  0.00  0.00     0.000 O
BRANCH 55 59
ATOM     56  C1  SGN C   4      95.644  77.039 195.6460  0.00  0.00     0.000 C
ATOM     57  C2  SGN C   4      95.713  76.934 197.1790  0.00  0.00     0.000 C
ATOM     58  C3  SGN C   4      94.531  77.651 197.8250  0.00  0.00     0.000 C
ATOM     59  C4  SGN C   4      94.402  79.070 197.2820  0.00  0.00     0.000 C
ATOM     60  C5  SGN C   4      94.312  79.007 195.7590  0.00  0.00     0.000 C
ATOM     61  O5  SGN C   4      95.518  78.397 195.2580  0.00  0.00     0.000 O
ATOM     62   O  SGN C   4      94.697  77.667 199.2360  0.00  0.00     0.000 O
ATOM     64  HD  SGN C   4      95.115  76.955 198.9770  0.00  0.00     0.000 HD
BRANCH 57 66
ATOM     64   N  SGN C   4      97.005  76.232 197.1180  0.00  0.00     0.000 N
ATOM     66  HD  SGN C   4      97.583  75.934 197.6910  0.00  0.00     0.000 HD
ATOM     66   S  SGN C   4      97.227  74.869 197.9180  0.00  0.00     0.000 S
ATOM     67   O  SGN C   4      98.573  74.472 197.7160  0.00  0.00     0.000 OA
ATOM     68   O  SGN C   4      96.752  75.081 199.2420  0.00  0.00     0.000 OA
ATOM     69   O  SGN C   4      96.276  73.859 197.2000  0.00  0.00     0.000 OA
ENDBRANCH 57 66
BRANCH 60 70
ATOM     70   C  SGN C   4      94.170  80.362 195.0990  0.00  0.00     0.000 C
ATOM     71   O  SGN C   4      90.971  82.099 194.1760  0.00  0.00     0.000 OA
ATOM     72   O  SGN C   4      92.384  82.530 196.0910  0.00  0.00     0.000 OA
ATOM     73   O  SGN C   4      92.802  80.597 194.7160  0.00  0.00     0.000 O
ATOM     74   S  SGN C   4      92.315  82.120 194.7070  0.00  0.00     0.000 S
ATOM     75   O  SGN C   4      93.263  82.807 193.8530  0.00  0.00     0.000 OA
ENDBRANCH 60 70
BRANCH 56 76
ATOM     76  O4  IDS C   5      95.142  76.284 194.6510  0.00  0.00     0.000 O
BRANCH 76 80
ATOM     77  C1  IDS C   5      91.185  76.593 193.7020  0.00  0.00     0.000 C
ATOM     78  C2  IDS C   5      91.526  75.425 194.6280  0.00  0.00     0.000 C
ATOM     79  C3  IDS C   5      92.886  75.650 195.2600  0.00  0.00     0.000 C
ATOM     80  C4  IDS C   5      93.963  75.615 194.1800  0.00  0.00     0.000 C
ATOM     81  C5  IDS C   5      93.432  76.296 192.9100  0.00  0.00     0.000 C
ATOM     82  O5  IDS C   5      92.382  77.213 193.2330  0.00  0.00     0.000 O
BRANCH 78 83
ATOM     83   O  IDS C   5      90.521  75.303 195.7100  0.00  0.00     0.000 O
ATOM     84   S  IDS C   5      89.690  73.951 195.8700  0.00  0.00     0.000 S
ATOM     85   O  IDS C   5      89.194  73.633 194.5580  0.00  0.00     0.000 OA
ATOM     86   O  IDS C   5      90.636  72.982 196.3700  0.00  0.00     0.000 OA
ATOM     87   O  IDS C   5      88.643  74.246 196.8190  0.00  0.00     0.000 OA
ENDBRANCH 78 83
BRANCH 81 88
ATOM     88   C  IDS C   5      94.488  77.065 192.1360  0.00  0.00     0.000 C
ATOM     89   O  IDS C   5      95.328  76.469 191.5170  0.00  0.00     0.000 OA
ATOM     90   O  IDS C   5      94.476  78.274 192.1460  0.00  0.00     0.000 OA
ENDBRANCH 81 88
ENDBRANCH 76 80
ENDBRANCH 56 76
ENDBRANCH 55 59
ENDBRANCH 39 55
ENDBRANCH 38 42
ENDBRANCH 18 38
ENDBRANCH 17 21
ENDBRANCH 1 17
TORSDOF 18
ENDMDL
MODEL 40
REMARK VINA RESULT:      -1.9    151.427    158.585
ROOT
ATOM      1  C1  IDS C   1      95.454  36.734 196.8150  0.00  0.00     0.000 C
ATOM      2  C2  IDS C   1      94.775  37.586 195.7380  0.00  0.00     0.000 C
ATOM      3  C3  IDS C   1      94.093  36.704 194.7030  0.00  0.00     0.000 C
ATOM      4  C4  IDS C   1      95.100  35.771 194.0440  0.00  0.00     0.000 C
ATOM      5  C5  IDS C   1      96.095  35.260 195.0810  0.00  0.00     0.000 C
ATOM      6  O5  IDS C   1      95.543  35.380 196.3930  0.00  0.00     0.000 O
ATOM      7   O  IDS C   1      93.461  37.523 193.7080  0.00  0.00     0.000 O
ATOM      9  HD  IDS C   1      93.142  38.227 194.0990  0.00  0.00     0.000 HD
ENDROOT
BRANCH 2 9
ATOM      9   O  IDS C   1      93.738  38.459 196.3330  0.00  0.00     0.000 O
ATOM     10   S  IDS C   1      93.784  40.029 196.0570  0.00  0.00     0.000 S
ATOM     11   O  IDS C   1      92.647  40.587 196.7540  0.00  0.00     0.000 OA
ATOM     12   O  IDS C   1      95.052  40.482 196.5930  0.00  0.00     0.000 OA
ATOM     13   O  IDS C   1      93.692  40.181 194.6220  0.00  0.00     0.000 OA
ENDBRANCH 2 9
BRANCH 5 14
ATOM     14   C  IDS C   1      96.470  33.806 194.8480  0.00  0.00     0.000 C
ATOM     15   O  IDS C   1      96.313  33.003 195.7350  0.00  0.00     0.000 OA
ATOM     16   O  IDS C   1      96.928  33.465 193.7710  0.00  0.00     0.000 OA
ENDBRANCH 5 14
BRANCH 1 17
ATOM     17  O4  SGN C   2      95.392  37.024 198.1180  0.00  0.00     0.000 O
BRANCH 17 21
ATOM     18  C1  SGN C   2      94.047  36.584 202.0580  0.00  0.00     0.000 C
ATOM     19  C2  SGN C   2      93.811  35.398 201.1150  0.00  0.00     0.000 C
ATOM     20  C3  SGN C   2      94.709  35.530 199.8790  0.00  0.00     0.000 C
ATOM     21  C4  SGN C   2      94.504  36.892 199.2250  0.00  0.00     0.000 C
ATOM     22  C5  SGN C   2      94.771  37.985 200.2550  0.00  0.00     0.000 C
ATOM     23  O5  SGN C   2      93.885  37.816 201.3870  0.00  0.00     0.000 O
ATOM     24   O  SGN C   2      94.430  34.482 198.9660  0.00  0.00     0.000 O
ATOM     26  HD  SGN C   2      94.926  35.029 199.4190  0.00  0.00     0.000 HD
BRANCH 19 28
ATOM     26   N  SGN C   2      93.599  34.303 202.0720  0.00  0.00     0.000 N
ATOM     28  HD  SGN C   2      93.289  34.999 202.4840  0.00  0.00     0.000 HD
ATOM     28   O  SGN C   2      93.095  31.895 202.4860  0.00  0.00     0.000 OA
ATOM     29   S  SGN C   2      92.464  33.184 201.8590  0.00  0.00     0.000 S
ATOM     30   O  SGN C   2      91.344  33.561 202.6320  0.00  0.00     0.000 OA
ATOM     31   O  SGN C   2      92.315  32.981 200.4590  0.00  0.00     0.000 OA
ENDBRANCH 19 28
BRANCH 22 32
ATOM     32   C  SGN C   2      94.538  39.378 199.7240  0.00  0.00     0.000 C
ATOM     33   S  SGN C   2      93.423  41.577 200.4730  0.00  0.00     0.000 S
ATOM     34   O  SGN C   2      92.098  41.076 200.2060  0.00  0.00     0.000 OA
ATOM     35   O  SGN C   2      93.506  42.395 201.6650  0.00  0.00     0.000 OA
ATOM     36   O  SGN C   2      94.072  42.166 199.3250  0.00  0.00     0.000 OA
ATOM     37   O  SGN C   2      94.276  40.271 200.8120  0.00  0.00     0.000 O
ENDBRANCH 22 32
BRANCH 18 38
ATOM     38  O4  IDS C   3      95.037  36.814 202.9230  0.00  0.00     0.000 O
BRANCH 38 42
ATOM     39  C1  IDS C   3      97.748  36.305 205.0480  0.00  0.00     0.000 C
ATOM     40  C2  IDS C   3      96.584  35.302 204.9950  0.00  0.00     0.000 C
ATOM     41  C3  IDS C   3      95.240  36.004 205.1860  0.00  0.00     0.000 C
ATOM     42  C4  IDS C   3      95.128  37.231 204.2900  0.00  0.00     0.000 C
ATOM     43  C5  IDS C   3      96.356  38.129 204.4820  0.00  0.00     0.000 C
ATOM     44  O5  IDS C   3      97.531  37.388 204.1590  0.00  0.00     0.000 O
ATOM     45   O  IDS C   3      95.099  36.392 206.5540  0.00  0.00     0.000 O
ATOM     47  HD  IDS C   3      95.568  36.863 207.1080  0.00  0.00     0.000 HD
BRANCH 40 47
ATOM     47   O  IDS C   3      96.547  34.618 203.6810  0.00  0.00     0.000 O
ATOM     48   S  IDS C   3      96.840  33.048 203.5920  0.00  0.00     0.000 S
ATOM     49   O  IDS C   3      98.275  32.905 203.7070  0.00  0.00     0.000 OA
ATOM     50   O  IDS C   3      96.346  32.642 202.2950  0.00  0.00     0.000 OA
ATOM     51   O  IDS C   3      96.129  32.439 204.6850  0.00  0.00     0.000 OA
ENDBRANCH 40 47
BRANCH 43 52
ATOM     52   C  IDS C   3      96.300  39.385 203.6420  0.00  0.00     0.000 C
ATOM     53   O  IDS C   3      97.043  39.511 202.6960  0.00  0.00     0.000 OA
ATOM     54   O  IDS C   3      95.515  40.255 203.9200  0.00  0.00     0.000 OA
ENDBRANCH 43 52
BRANCH 39 55
ATOM     55  O4  SGN C   4      98.380  36.644 206.1720  0.00  0.00     0.000 O
BRANCH 55 59
ATOM     56  C1  SGN C   4     102.445  37.624 206.0180  0.00  0.00     0.000 C
ATOM     57  C2  SGN C   4     102.086  36.143 205.8050  0.00  0.00     0.000 C
ATOM     58  C3  SGN C   4     100.600  35.985 205.4920  0.00  0.00     0.000 C
ATOM     59  C4  SGN C   4      99.753  36.709 206.5320  0.00  0.00     0.000 C
ATOM     60  C5  SGN C   4     100.203  38.167 206.6040  0.00  0.00     0.000 C
ATOM     61  O5  SGN C   4     101.590  38.193 206.9960  0.00  0.00     0.000 O
ATOM     62   O  SGN C   4     100.267  34.604 205.4470  0.00  0.00     0.000 O
ATOM     64  HD  SGN C   4     101.102  34.634 205.2190  0.00  0.00     0.000 HD
BRANCH 57 66
ATOM     64   N  SGN C   4     103.456  35.717 206.1330  0.00  0.00     0.000 N
ATOM     66  HD  SGN C   4     103.872  34.963 206.2200  0.00  0.00     0.000 HD
ATOM     66   S  SGN C   4     104.252  34.728 205.1660  0.00  0.00     0.000 S
ATOM     67   O  SGN C   4     105.504  34.456 205.7730  0.00  0.00     0.000 OA
ATOM     68   O  SGN C   4     103.376  33.651 204.8580  0.00  0.00     0.000 OA
ATOM     69   O  SGN C   4     104.477  35.575 203.8720  0.00  0.00     0.000 OA
ENDBRANCH 57 66
BRANCH 60 70
ATOM     70   C  SGN C   4      99.425  38.998 207.6010  0.00  0.00     0.000 C
ATOM     71   O  SGN C   4      96.367  41.067 206.9150  0.00  0.00     0.000 OA
ATOM     72   O  SGN C   4      96.467  38.877 207.9360  0.00  0.00     0.000 OA
ATOM     73   O  SGN C   4      98.445  39.810 206.9260  0.00  0.00     0.000 O
ATOM     74   S  SGN C   4      97.117  40.154 207.7470  0.00  0.00     0.000 S
ATOM     75   O  SGN C   4      97.587  40.751 208.9800  0.00  0.00     0.000 OA
ENDBRANCH 60 70
BRANCH 56 76
ATOM     76  O4  IDS C   5     102.899  38.625 205.2420  0.00  0.00     0.000 O
BRANCH 76 80
ATOM     77  C1  IDS C   5     100.258  40.775 202.9930  0.00  0.00     0.000 C
ATOM     78  C2  IDS C   5     100.970  39.655 202.2360  0.00  0.00     0.000 C
ATOM     79  C3  IDS C   5     101.567  38.667 203.2200  0.00  0.00     0.000 C
ATOM     80  C4  IDS C   5     102.668  39.351 204.0250  0.00  0.00     0.000 C
ATOM     81  C5  IDS C   5     102.249  40.796 204.3350  0.00  0.00     0.000 C
ATOM     82  O5  IDS C   5     100.824  40.925 204.2950  0.00  0.00     0.000 O
BRANCH 78 83
ATOM     83   O  IDS C   5     100.021  38.928 201.3600  0.00  0.00     0.000 O
ATOM     84   S  IDS C   5     100.286  38.860 199.7890  0.00  0.00     0.000 S
ATOM     85   O  IDS C   5     100.563  40.209 199.3750  0.00  0.00     0.000 OA
ATOM     86   O  IDS C   5     101.416  37.974 199.6330  0.00  0.00     0.000 OA
ATOM     87   O  IDS C   5      99.076  38.325 199.2120  0.00  0.00     0.000 OA
ENDBRANCH 78 83
BRANCH 81 88
ATOM     88   C  IDS C   5     102.715  41.295 205.6910  0.00  0.00     0.000 C
ATOM     89   O  IDS C   5     103.876  41.548 205.8680  0.00  0.00     0.000 OA
ATOM     90   O  IDS C   5     101.913  41.436 206.5850  0.00  0.00     0.000 OA
ENDBRANCH 81 88
ENDBRANCH 76 80
ENDBRANCH 56 76
ENDBRANCH 55 59
ENDBRANCH 39 55
ENDBRANCH 38 42
ENDBRANCH 18 38
ENDBRANCH 17 21
ENDBRANCH 1 17
TORSDOF 18
ENDMDL
MODEL 41
REMARK VINA RESULT:      -1.9    144.529    151.243
ROOT
ATOM      1  C1  IDS C   1      94.304  40.317 188.1570  0.00  0.00     0.000 C
ATOM      2  C2  IDS C   1      94.362  40.578 186.6490  0.00  0.00     0.000 C
ATOM      3  C3  IDS C   1      93.241  39.843 185.9300  0.00  0.00     0.000 C
ATOM      4  C4  IDS C   1      93.331  38.344 186.1840  0.00  0.00     0.000 C
ATOM      5  C5  IDS C   1      93.735  38.082 187.6320  0.00  0.00     0.000 C
ATOM      6  O5  IDS C   1      93.440  39.223 188.4380  0.00  0.00     0.000 O
ATOM      7   O  IDS C   1      93.313  40.106 184.5220  0.00  0.00     0.000 O
ATOM      9  HD  IDS C   1      93.567  40.926 184.4110  0.00  0.00     0.000 HD
ENDROOT
BRANCH 2 9
ATOM      9   O  IDS C   1      94.209  42.021 186.3580  0.00  0.00     0.000 O
ATOM     10   S  IDS C   1      95.304  42.761 185.4660  0.00  0.00     0.000 S
ATOM     11   O  IDS C   1      94.864  44.134 185.3570  0.00  0.00     0.000 OA
ATOM     12   O  IDS C   1      96.552  42.624 186.1880  0.00  0.00     0.000 OA
ATOM     13   O  IDS C   1      95.309  42.071 184.1940  0.00  0.00     0.000 OA
ENDBRANCH 2 9
BRANCH 5 14
ATOM     14   C  IDS C   1      93.017  36.879 188.2190  0.00  0.00     0.000 C
ATOM     15   O  IDS C   1      92.409  36.998 189.2540  0.00  0.00     0.000 OA
ATOM     16   O  IDS C   1      93.063  35.806 187.6420  0.00  0.00     0.000 OA
ENDBRANCH 5 14
BRANCH 1 17
ATOM     17  O4  SGN C   2      94.483  41.277 189.0690  0.00  0.00     0.000 O
BRANCH 17 21
ATOM     18  C1  SGN C   2      93.281  44.056 191.9600  0.00  0.00     0.000 C
ATOM     19  C2  SGN C   2      92.282  42.944 191.6190  0.00  0.00     0.000 C
ATOM     20  C3  SGN C   2      93.004  41.800 190.8960  0.00  0.00     0.000 C
ATOM     21  C4  SGN C   2      93.765  42.340 189.6910  0.00  0.00     0.000 C
ATOM     22  C5  SGN C   2      94.726  43.430 190.1560  0.00  0.00     0.000 C
ATOM     23  O5  SGN C   2      93.987  44.485 190.8140  0.00  0.00     0.000 O
ATOM     24   O  SGN C   2      92.068  40.811 190.5030  0.00  0.00     0.000 O
ATOM     26  HD  SGN C   2      92.812  41.116 190.8220  0.00  0.00     0.000 HD
BRANCH 19 28
ATOM     26   N  SGN C   2      91.402  42.972 192.7960  0.00  0.00     0.000 N
ATOM     28  HD  SGN C   2      91.657  43.795 192.7100  0.00  0.00     0.000 HD
ATOM     28   O  SGN C   2      89.404  42.076 193.9920  0.00  0.00     0.000 OA
ATOM     29   S  SGN C   2      89.805  42.828 192.6780  0.00  0.00     0.000 S
ATOM     30   O  SGN C   2      89.256  44.129 192.7160  0.00  0.00     0.000 OA
ATOM     31   O  SGN C   2      89.529  41.981 191.5690  0.00  0.00     0.000 OA
ENDBRANCH 19 28
BRANCH 22 32
ATOM     32   C  SGN C   2      95.492  44.075 189.0260  0.00  0.00     0.000 C
ATOM     33   S  SGN C   2      96.184  46.433 188.2520  0.00  0.00     0.000 S
ATOM     34   O  SGN C   2      94.867  46.729 187.7470  0.00  0.00     0.000 OA
ATOM     35   O  SGN C   2      96.825  47.559 188.8980  0.00  0.00     0.000 OA
ATOM     36   O  SGN C   2      97.037  45.751 187.3070  0.00  0.00     0.000 OA
ATOM     37   O  SGN C   2      95.929  45.379 189.4230  0.00  0.00     0.000 O
ENDBRANCH 22 32
BRANCH 18 38
ATOM     38  O4  IDS C   3      94.182  44.135 192.9420  0.00  0.00     0.000 O
BRANCH 38 42
ATOM     39  C1  IDS C   3      95.867  43.536 195.9300  0.00  0.00     0.000 C
ATOM     40  C2  IDS C   3      94.332  43.570 195.8810  0.00  0.00     0.000 C
ATOM     41  C3  IDS C   3      93.828  44.851 195.2180  0.00  0.00     0.000 C
ATOM     42  C4  IDS C   3      94.560  45.120 193.9100  0.00  0.00     0.000 C
ATOM     43  C5  IDS C   3      96.075  45.069 194.1430  0.00  0.00     0.000 C
ATOM     44  O5  IDS C   3      96.426  43.783 194.6510  0.00  0.00     0.000 O
ATOM     45   O  IDS C   3      94.015  45.951 196.1100  0.00  0.00     0.000 O
ATOM     47  HD  IDS C   3      94.691  46.285 196.5360  0.00  0.00     0.000 HD
BRANCH 40 47
ATOM     47   O  IDS C   3      93.812  42.427 195.0930  0.00  0.00     0.000 O
ATOM     48   S  IDS C   3      92.957  41.285 195.8160  0.00  0.00     0.000 S
ATOM     49   O  IDS C   3      93.915  40.458 196.5190  0.00  0.00     0.000 OA
ATOM     50   O  IDS C   3      92.292  40.573 194.7470  0.00  0.00     0.000 OA
ATOM     51   O  IDS C   3      92.045  41.958 196.7010  0.00  0.00     0.000 OA
ENDBRANCH 40 47
BRANCH 43 52
ATOM     52   C  IDS C   3      96.871  45.355 192.8890  0.00  0.00     0.000 C
ATOM     53   O  IDS C   3      96.893  46.475 192.4320  0.00  0.00     0.000 OA
ATOM     54   O  IDS C   3      97.479  44.465 192.3520  0.00  0.00     0.000 OA
ENDBRANCH 43 52
BRANCH 39 55
ATOM     55  O4  SGN C   4      96.585  44.030 196.9400  0.00  0.00     0.000 O
BRANCH 55 59
ATOM     56  C1  SGN C   4     100.227  42.229 197.9350  0.00  0.00     0.000 C
ATOM     57  C2  SGN C   4      98.953  41.434 198.2710  0.00  0.00     0.000 C
ATOM     58  C3  SGN C   4      97.750  41.998 197.5180  0.00  0.00     0.000 C
ATOM     59  C4  SGN C   4      97.643  43.504 197.7280  0.00  0.00     0.000 C
ATOM     60  C5  SGN C   4      98.966  44.151 197.3220  0.00  0.00     0.000 C
ATOM     61  O5  SGN C   4     100.009  43.612 198.1580  0.00  0.00     0.000 O
ATOM     62   O  SGN C   4      96.566  41.345 197.9570  0.00  0.00     0.000 O
ATOM     64  HD  SGN C   4      97.193  40.760 198.0760  0.00  0.00     0.000 HD
BRANCH 57 66
ATOM     64   N  SGN C   4      99.674  40.601 199.2460  0.00  0.00     0.000 N
ATOM     66  HD  SGN C   4      99.469  39.973 199.8050  0.00  0.00     0.000 HD
ATOM     66   S  SGN C   4      99.566  39.010 199.1920  0.00  0.00     0.000 S
ATOM     67   O  SGN C   4     100.311  38.496 200.2830  0.00  0.00     0.000 OA
ATOM     68   O  SGN C   4      98.184  38.691 199.0770  0.00  0.00     0.000 OA
ATOM     69   O  SGN C   4     100.279  38.635 197.8540  0.00  0.00     0.000 OA
ENDBRANCH 57 66
BRANCH 60 70
ATOM     70   C  SGN C   4      98.982  45.657 197.4760  0.00  0.00     0.000 C
ATOM     71   O  SGN C   4      98.129  48.202 194.8490  0.00  0.00     0.000 OA
ATOM     72   O  SGN C   4      96.737  47.446 196.6760  0.00  0.00     0.000 OA
ATOM     73   O  SGN C   4      98.800  46.297 196.1980  0.00  0.00     0.000 O
ATOM     74   S  SGN C   4      98.077  47.723 196.2110  0.00  0.00     0.000 S
ATOM     75   O  SGN C   4      98.854  48.524 197.1350  0.00  0.00     0.000 OA
ENDBRANCH 60 70
BRANCH 56 76
ATOM     76  O4  IDS C   5     101.225  42.113 197.0390  0.00  0.00     0.000 O
BRANCH 76 80
ATOM     77  C1  IDS C   5     100.703  43.571 193.2630  0.00  0.00     0.000 C
ATOM     78  C2  IDS C   5     100.448  42.071 193.4050  0.00  0.00     0.000 C
ATOM     79  C3  IDS C   5     100.234  41.721 194.8640  0.00  0.00     0.000 C
ATOM     80  C4  IDS C   5     101.523  41.970 195.6430  0.00  0.00     0.000 C
ATOM     81  C5  IDS C   5     102.204  43.237 195.1070  0.00  0.00     0.000 C
ATOM     82  O5  IDS C   5     101.247  44.093 194.4750  0.00  0.00     0.000 O
BRANCH 78 83
ATOM     83   O  IDS C   5      99.239  41.671 192.6460  0.00  0.00     0.000 O
ATOM     84   S  IDS C   5      99.355  40.579 191.4890  0.00  0.00     0.000 S
ATOM     85   O  IDS C   5     100.466  40.986 190.6700  0.00  0.00     0.000 OA
ATOM     86   O  IDS C   5      99.583  39.327 192.1720  0.00  0.00     0.000 OA
ATOM     87   O  IDS C   5      98.092  40.611 190.7930  0.00  0.00     0.000 OA
ENDBRANCH 78 83
BRANCH 81 88
ATOM     88   C  IDS C   5     102.914  44.053 196.1720  0.00  0.00     0.000 C
ATOM     89   O  IDS C   5     102.447  45.099 196.5360  0.00  0.00     0.000 OA
ATOM     90   O  IDS C   5     103.947  43.643 196.6510  0.00  0.00     0.000 OA
ENDBRANCH 81 88
ENDBRANCH 76 80
ENDBRANCH 56 76
ENDBRANCH 55 59
ENDBRANCH 39 55
ENDBRANCH 38 42
ENDBRANCH 18 38
ENDBRANCH 17 21
ENDBRANCH 1 17
TORSDOF 18
ENDMDL
MODEL 42
REMARK VINA RESULT:      -1.9    163.110    171.349
ROOT
ATOM      1  C1  IDS C   1      91.271  76.025 208.3830  0.00  0.00     0.000 C
ATOM      2  C2  IDS C   1      90.076  76.641 209.1160  0.00  0.00     0.000 C
ATOM      3  C3  IDS C   1      89.698  75.806 210.3300  0.00  0.00     0.000 C
ATOM      4  C4  IDS C   1      89.353  74.382 209.9150  0.00  0.00     0.000 C
ATOM      5  C5  IDS C   1      90.300  73.913 208.8150  0.00  0.00     0.000 C
ATOM      6  O5  IDS C   1      91.495  74.694 208.8310  0.00  0.00     0.000 O
ATOM      7   O  IDS C   1      88.581  76.405 211.0020  0.00  0.00     0.000 O
ATOM      9  HD  IDS C   1      88.664  77.265 210.9550  0.00  0.00     0.000 HD
ENDROOT
BRANCH 2 9
ATOM      9   O  IDS C   1      90.398  78.005 209.5950  0.00  0.00     0.000 O
ATOM     10   S  IDS C   1      89.444  79.220 209.2010  0.00  0.00     0.000 S
ATOM     11   O  IDS C   1      90.016  80.392 209.8260  0.00  0.00     0.000 OA
ATOM     12   O  IDS C   1      89.471  79.282 207.7540  0.00  0.00     0.000 OA
ATOM     13   O  IDS C   1      88.139  78.884 209.7270  0.00  0.00     0.000 OA
ENDBRANCH 2 9
BRANCH 5 14
ATOM     14   C  IDS C   1      90.679  72.450 208.9710  0.00  0.00     0.000 C
ATOM     15   O  IDS C   1      91.842  72.130 208.9210  0.00  0.00     0.000 OA
ATOM     16   O  IDS C   1      89.808  71.614 209.1410  0.00  0.00     0.000 OA
ENDBRANCH 5 14
BRANCH 1 17
ATOM     17  O4  SGN C   2      92.290  76.751 207.9130  0.00  0.00     0.000 O
BRANCH 17 21
ATOM     18  C1  SGN C   2      96.183  78.290 207.9040  0.00  0.00     0.000 C
ATOM     19  C2  SGN C   2      95.937  77.050 208.7720  0.00  0.00     0.000 C
ATOM     20  C3  SGN C   2      94.628  76.372 208.3500  0.00  0.00     0.000 C
ATOM     21  C4  SGN C   2      93.484  77.380 208.3710  0.00  0.00     0.000 C
ATOM     22  C5  SGN C   2      93.844  78.559 207.4710  0.00  0.00     0.000 C
ATOM     23  O5  SGN C   2      95.075  79.165 207.9270  0.00  0.00     0.000 O
ATOM     24   O  SGN C   2      94.354  75.277 209.2080  0.00  0.00     0.000 O
ATOM     26  HD  SGN C   2      94.410  75.700 208.4540  0.00  0.00     0.000 HD
BRANCH 19 28
ATOM     26   N  SGN C   2      97.304  76.540 208.9470  0.00  0.00     0.000 N
ATOM     28  HD  SGN C   2      97.411  77.397 208.8850  0.00  0.00     0.000 HD
ATOM     28   O  SGN C   2      98.842  74.846 209.9410  0.00  0.00     0.000 OA
ATOM     29   S  SGN C   2      97.836  75.973 210.3540  0.00  0.00     0.000 S
ATOM     30   O  SGN C   2      98.556  77.011 210.9860  0.00  0.00     0.000 OA
ATOM     31   O  SGN C   2      96.733  75.374 211.0230  0.00  0.00     0.000 OA
ENDBRANCH 19 28
BRANCH 22 32
ATOM     32   C  SGN C   2      92.798  79.647 207.4650  0.00  0.00     0.000 C
ATOM     33   S  SGN C   2      92.677  82.218 207.5960  0.00  0.00     0.000 S
ATOM     34   O  SGN C   2      92.914  82.225 209.0180  0.00  0.00     0.000 OA
ATOM     35   O  SGN C   2      93.338  83.297 206.8920  0.00  0.00     0.000 OA
ATOM     36   O  SGN C   2      91.289  82.059 207.2310  0.00  0.00     0.000 OA
ATOM     37   O  SGN C   2      93.400  80.890 207.0840  0.00  0.00     0.000 O
ENDBRANCH 22 32
BRANCH 18 38
ATOM     38  O4  IDS C   3      96.649  78.390 206.6570  0.00  0.00     0.000 O
BRANCH 38 42
ATOM     39  C1  IDS C   3      98.218  77.617 203.6450  0.00  0.00     0.000 C
ATOM     40  C2  IDS C   3      98.844  77.215 204.9910  0.00  0.00     0.000 C
ATOM     41  C3  IDS C   3      98.948  78.415 205.9320  0.00  0.00     0.000 C
ATOM     42  C4  IDS C   3      97.636  79.185 205.9910  0.00  0.00     0.000 C
ATOM     43  C5  IDS C   3      97.167  79.521 204.5700  0.00  0.00     0.000 C
ATOM     44  O5  IDS C   3      96.996  78.310 203.8360  0.00  0.00     0.000 O
ATOM     45   O  IDS C   3      99.995  79.279 205.4830  0.00  0.00     0.000 O
ATOM     47  HD  IDS C   3     100.177  79.684 204.7400  0.00  0.00     0.000 HD
BRANCH 40 47
ATOM     47   O  IDS C   3      98.012  76.191 205.6660  0.00  0.00     0.000 O
ATOM     48   S  IDS C   3      98.586  74.713 205.8770  0.00  0.00     0.000 S
ATOM     49   O  IDS C   3      98.478  74.058 204.5910  0.00  0.00     0.000 OA
ATOM     50   O  IDS C   3      97.731  74.113 206.8770  0.00  0.00     0.000 OA
ATOM     51   O  IDS C   3      99.948  74.864 206.3140  0.00  0.00     0.000 OA
ENDBRANCH 40 47
BRANCH 43 52
ATOM     52   C  IDS C   3      95.878  80.313 204.5510  0.00  0.00     0.000 C
ATOM     53   O  IDS C   3      94.855  79.790 204.1740  0.00  0.00     0.000 OA
ATOM     54   O  IDS C   3      95.878  81.462 204.9130  0.00  0.00     0.000 OA
ENDBRANCH 43 52
BRANCH 39 55
ATOM     55  O4  SGN C   4      98.926  78.045 202.6000  0.00  0.00     0.000 O
BRANCH 55 59
ATOM     56  C1  SGN C   4      97.581  77.193 198.7310  0.00  0.00     0.000 C
ATOM     57  C2  SGN C   4      98.129  76.008 199.5440  0.00  0.00     0.000 C
ATOM     58  C3  SGN C   4      98.208  76.361 201.0270  0.00  0.00     0.000 C
ATOM     59  C4  SGN C   4      98.951  77.677 201.2280  0.00  0.00     0.000 C
ATOM     60  C5  SGN C   4      98.273  78.756 200.3870  0.00  0.00     0.000 C
ATOM     61  O5  SGN C   4      98.340  78.360 199.0030  0.00  0.00     0.000 O
ATOM     62   O  SGN C   4      98.853  75.308 201.7320  0.00  0.00     0.000 O
ATOM     64  HD  SGN C   4      98.483  74.919 201.0530  0.00  0.00     0.000 HD
BRANCH 57 66
ATOM     64   N  SGN C   4      98.347  75.214 198.3250  0.00  0.00     0.000 N
ATOM     66  HD  SGN C   4      98.684  74.439 198.1350  0.00  0.00     0.000 HD
ATOM     66   S  SGN C   4      97.797  73.719 198.2210  0.00  0.00     0.000 S
ATOM     67   O  SGN C   4      98.212  73.200 196.9690  0.00  0.00     0.000 OA
ATOM     68   O  SGN C   4      98.180  73.051 199.4160  0.00  0.00     0.000 OA
ATOM     69   O  SGN C   4      96.245  73.894 198.2210  0.00  0.00     0.000 OA
ENDBRANCH 57 66
BRANCH 60 70
ATOM     70   C  SGN C   4      98.916  80.120 200.5090  0.00  0.00     0.000 C
ATOM     71   O  SGN C   4      97.966  82.857 202.8990  0.00  0.00     0.000 OA
ATOM     72   O  SGN C   4      99.824  81.320 203.0820  0.00  0.00     0.000 OA
ATOM     73   O  SGN C   4      98.148  80.964 201.3880  0.00  0.00     0.000 O
ATOM     74   S  SGN C   4      98.961  82.075 202.2020  0.00  0.00     0.000 S
ATOM     75   O  SGN C   4      99.680  82.823 201.1910  0.00  0.00     0.000 OA
ENDBRANCH 60 70
BRANCH 56 76
ATOM     76  O4  IDS C   5      96.367  77.588 198.3040  0.00  0.00     0.000 O
BRANCH 76 80
ATOM     77  C1  IDS C   5      93.941  79.683 200.8300  0.00  0.00     0.000 C
ATOM     78  C2  IDS C   5      93.647  78.184 200.7660  0.00  0.00     0.000 C
ATOM     79  C3  IDS C   5      94.836  77.452 200.1750  0.00  0.00     0.000 C
ATOM     80  C4  IDS C   5      95.023  77.873 198.7200  0.00  0.00     0.000 C
ATOM     81  C5  IDS C   5      94.725  79.372 198.5820  0.00  0.00     0.000 C
ATOM     82  O5  IDS C   5      94.902  80.038 199.8360  0.00  0.00     0.000 O
BRANCH 78 83
ATOM     83   O  IDS C   5      93.389  77.642 202.1200  0.00  0.00     0.000 O
ATOM     84   S  IDS C   5      91.991  76.945 202.4420  0.00  0.00     0.000 S
ATOM     85   O  IDS C   5      90.979  77.845 201.9580  0.00  0.00     0.000 OA
ATOM     86   O  IDS C   5      92.022  75.689 201.7300  0.00  0.00     0.000 OA
ATOM     87   O  IDS C   5      91.961  76.771 203.8740  0.00  0.00     0.000 OA
ENDBRANCH 78 83
BRANCH 81 88
ATOM     88   C  IDS C   5      95.596  80.082 197.5610  0.00  0.00     0.000 C
ATOM     89   O  IDS C   5      96.461  80.831 197.9290  0.00  0.00     0.000 OA
ATOM     90   O  IDS C   5      95.415  79.887 196.3810  0.00  0.00     0.000 OA
ENDBRANCH 81 88
ENDBRANCH 76 80
ENDBRANCH 56 76
ENDBRANCH 55 59
ENDBRANCH 39 55
ENDBRANCH 38 42
ENDBRANCH 18 38
ENDBRANCH 17 21
ENDBRANCH 1 17
TORSDOF 18
ENDMDL
MODEL 43
REMARK VINA RESULT:      -1.9    139.832    144.821
ROOT
ATOM      1  C1  IDS C   1     127.361 151.406  99.9990  0.00  0.00     0.000 C
ATOM      2  C2  IDS C   1     128.336 150.260  99.7170  0.00  0.00     0.000 C
ATOM      3  C3  IDS C   1     129.719 150.579 100.2650  0.00  0.00     0.000 C
ATOM      4  C4  IDS C   1     130.259 151.861  99.6470  0.00  0.00     0.000 C
ATOM      5  C5  IDS C   1     129.138 152.885  99.5030  0.00  0.00     0.000 C
ATOM      6  O5  IDS C   1     128.070 152.573 100.3970  0.00  0.00     0.000 O
ATOM      7   O  IDS C   1     130.612 149.490  99.9930  0.00  0.00     0.000 O
ATOM      9  HD  IDS C   1     130.170 148.749 100.0680  0.00  0.00     0.000 HD
ENDROOT
BRANCH 2 9
ATOM      9   O  IDS C   1     127.879 149.008 100.3620  0.00  0.00     0.000 O
ATOM     10   S  IDS C   1     127.715 147.688  99.4820  0.00  0.00     0.000 S
ATOM     11   O  IDS C   1     127.274 146.656 100.3940  0.00  0.00     0.000 OA
ATOM     12   O  IDS C   1     126.724 148.011  98.4750  0.00  0.00     0.000 OA
ATOM     13   O  IDS C   1     129.021 147.422  98.9220  0.00  0.00     0.000 OA
ENDBRANCH 2 9
BRANCH 5 14
ATOM     14   C  IDS C   1     129.613 154.299  99.7960  0.00  0.00     0.000 C
ATOM     15   O  IDS C   1     129.023 154.967 100.6090  0.00  0.00     0.000 OA
ATOM     16   O  IDS C   1     130.582 154.746  99.2050  0.00  0.00     0.000 OA
ENDBRANCH 5 14
BRANCH 1 17
ATOM     17  O4  SGN C   2     126.110 151.209 100.4220  0.00  0.00     0.000 O
BRANCH 17 21
ATOM     18  C1  SGN C   2     123.011 151.112 103.2350  0.00  0.00     0.000 C
ATOM     19  C2  SGN C   2     124.252 151.931 103.6090  0.00  0.00     0.000 C
ATOM     20  C3  SGN C   2     125.083 152.219 102.3520  0.00  0.00     0.000 C
ATOM     21  C4  SGN C   2     125.395 150.919 101.6210  0.00  0.00     0.000 C
ATOM     22  C5  SGN C   2     124.088 150.201 101.3010  0.00  0.00     0.000 C
ATOM     23  O5  SGN C   2     123.359 149.943 102.5230  0.00  0.00     0.000 O
ATOM     24   O  SGN C   2     126.274 152.901 102.7070  0.00  0.00     0.000 O
ATOM     26  HD  SGN C   2     125.568 152.729 102.2350  0.00  0.00     0.000 HD
BRANCH 19 28
ATOM     26   N  SGN C   2     123.720 152.804 104.6650  0.00  0.00     0.000 N
ATOM     28  HD  SGN C   2     123.256 152.077 104.7450  0.00  0.00     0.000 HD
ATOM     28   O  SGN C   2     124.110 154.597 106.3550  0.00  0.00     0.000 OA
ATOM     29   S  SGN C   2     124.545 153.134 106.0050  0.00  0.00     0.000 S
ATOM     30   O  SGN C   2     124.075 152.268 107.0180  0.00  0.00     0.000 OA
ATOM     31   O  SGN C   2     125.927 153.139 105.6700  0.00  0.00     0.000 OA
ENDBRANCH 19 28
BRANCH 22 32
ATOM     32   C  SGN C   2     124.287 148.867 100.6240  0.00  0.00     0.000 C
ATOM     33   S  SGN C   2     123.375 146.461 100.7730  0.00  0.00     0.000 S
ATOM     34   O  SGN C   2     124.152 146.166 101.9510  0.00  0.00     0.000 OA
ATOM     35   O  SGN C   2     122.046 145.886 100.7950  0.00  0.00     0.000 OA
ATOM     36   O  SGN C   2     124.078 146.237  99.5320  0.00  0.00     0.000 OA
ATOM     37   O  SGN C   2     123.139 148.039 100.8420  0.00  0.00     0.000 O
ENDBRANCH 22 32
BRANCH 18 38
ATOM     38  O4  IDS C   3     121.859 151.497 102.6830  0.00  0.00     0.000 O
BRANCH 38 42
ATOM     39  C1  IDS C   3     119.220 153.498 101.6050  0.00  0.00     0.000 C
ATOM     40  C2  IDS C   3     119.876 153.724 102.9760  0.00  0.00     0.000 C
ATOM     41  C3  IDS C   3     119.927 152.429 103.7850  0.00  0.00     0.000 C
ATOM     42  C4  IDS C   3     120.469 151.278 102.9490  0.00  0.00     0.000 C
ATOM     43  C5  IDS C   3     119.692 151.182 101.6300  0.00  0.00     0.000 C
ATOM     44  O5  IDS C   3     119.824 152.413 100.9210  0.00  0.00     0.000 O
ATOM     45   O  IDS C   3     118.614 152.110 104.2510  0.00  0.00     0.000 O
ATOM     47  HD  IDS C   3     117.842 151.994 103.8740  0.00  0.00     0.000 HD
BRANCH 40 47
ATOM     47   O  IDS C   3     121.270 154.202 102.8130  0.00  0.00     0.000 O
ATOM     48   S  IDS C   3     121.665 155.679 103.2820  0.00  0.00     0.000 S
ATOM     49   O  IDS C   3     121.163 156.568 102.2570  0.00  0.00     0.000 OA
ATOM     50   O  IDS C   3     123.109 155.681 103.3570  0.00  0.00     0.000 OA
ATOM     51   O  IDS C   3     121.031 155.884 104.5580  0.00  0.00     0.000 OA
ENDBRANCH 40 47
BRANCH 43 52
ATOM     52   C  IDS C   3     120.159 150.040 100.7560  0.00  0.00     0.000 C
ATOM     53   O  IDS C   3     120.772 150.270  99.7400  0.00  0.00     0.000 OA
ATOM     54   O  IDS C   3     119.917 148.904 101.0790  0.00  0.00     0.000 OA
ENDBRANCH 43 52
BRANCH 39 55
ATOM     55  O4  SGN C   4     117.910 153.616 101.3840  0.00  0.00     0.000 O
BRANCH 55 59
ATOM     56  C1  SGN C   4     116.575 154.937  97.6460  0.00  0.00     0.000 C
ATOM     57  C2  SGN C   4     117.258 155.985  98.5410  0.00  0.00     0.000 C
ATOM     58  C3  SGN C   4     118.033 155.310  99.6700  0.00  0.00     0.000 C
ATOM     59  C4  SGN C   4     117.149 154.311 100.4070  0.00  0.00     0.000 C
ATOM     60  C5  SGN C   4     116.574 153.323  99.3950  0.00  0.00     0.000 C
ATOM     61  O5  SGN C   4     115.789 154.061  98.4370  0.00  0.00     0.000 O
ATOM     62   O  SGN C   4     118.528 156.297 100.5640  0.00  0.00     0.000 O
ATOM     64  HD  SGN C   4     118.479 156.702  99.8000  0.00  0.00     0.000 HD
BRANCH 57 66
ATOM     64   N  SGN C   4     116.653 157.092  97.7850  0.00  0.00     0.000 N
ATOM     66  HD  SGN C   4     116.640 157.956  97.8440  0.00  0.00     0.000 HD
ATOM     66   S  SGN C   4     117.554 158.292  97.2410  0.00  0.00     0.000 S
ATOM     67   O  SGN C   4     116.688 159.224  96.6150  0.00  0.00     0.000 OA
ATOM     68   O  SGN C   4     118.376 158.717  98.3200  0.00  0.00     0.000 OA
ATOM     69   O  SGN C   4     118.457 157.616  96.1600  0.00  0.00     0.000 OA
ENDBRANCH 57 66
BRANCH 60 70
ATOM     70   C  SGN C   4     115.680 152.268 100.0100  0.00  0.00     0.000 C
ATOM     71   O  SGN C   4     116.704 148.853 101.1920  0.00  0.00     0.000 OA
ATOM     72   O  SGN C   4     116.296 150.819 102.5400  0.00  0.00     0.000 OA
ATOM     73   O  SGN C   4     116.388 151.020 100.1410  0.00  0.00     0.000 O
ATOM     74   S  SGN C   4     115.947 150.074 101.3520  0.00  0.00     0.000 S
ATOM     75   O  SGN C   4     114.519 149.895 101.1820  0.00  0.00     0.000 OA
ENDBRANCH 60 70
BRANCH 56 76
ATOM     76  O4  IDS C   5     116.895 154.285  96.5130  0.00  0.00     0.000 O
BRANCH 76 80
ATOM     77  C1  IDS C   5     119.205 150.927  96.7170  0.00  0.00     0.000 C
ATOM     78  C2  IDS C   5     119.973 152.205  96.3830  0.00  0.00     0.000 C
ATOM     79  C3  IDS C   5     119.143 153.417  96.7580  0.00  0.00     0.000 C
ATOM     80  C4  IDS C   5     117.896 153.473  95.8800  0.00  0.00     0.000 C
ATOM     81  C5  IDS C   5     117.368 152.049  95.6550  0.00  0.00     0.000 C
ATOM     82  O5  IDS C   5     117.801 151.180  96.7060  0.00  0.00     0.000 O
BRANCH 78 83
ATOM     83   O  IDS C   5     121.249 152.261  97.1340  0.00  0.00     0.000 O
ATOM     84   S  IDS C   5     122.632 152.350  96.3420  0.00  0.00     0.000 S
ATOM     85   O  IDS C   5     122.577 151.324  95.3360  0.00  0.00     0.000 OA
ATOM     86   O  IDS C   5     122.668 153.684  95.7920  0.00  0.00     0.000 OA
ATOM     87   O  IDS C   5     123.661 152.127  97.3280  0.00  0.00     0.000 OA
ENDBRANCH 78 83
BRANCH 81 88
ATOM     88   C  IDS C   5     115.854 151.958  95.5810  0.00  0.00     0.000 C
ATOM     89   O  IDS C   5     115.277 152.372  94.6120  0.00  0.00     0.000 OA
ATOM     90   O  IDS C   5     115.238 151.468  96.4990  0.00  0.00     0.000 OA
ENDBRANCH 81 88
ENDBRANCH 76 80
ENDBRANCH 56 76
ENDBRANCH 55 59
ENDBRANCH 39 55
ENDBRANCH 38 42
ENDBRANCH 18 38
ENDBRANCH 17 21
ENDBRANCH 1 17
TORSDOF 18
ENDMDL
MODEL 44
REMARK VINA RESULT:      -1.9    184.028    189.142
ROOT
ATOM      1  C1  IDS C   1      71.830 120.488 187.4240  0.00  0.00     0.000 C
ATOM      2  C2  IDS C   1      72.535 121.033 186.1780  0.00  0.00     0.000 C
ATOM      3  C3  IDS C   1      71.531 121.321 185.0720  0.00  0.00     0.000 C
ATOM      4  C4  IDS C   1      70.762 120.060 184.7020  0.00  0.00     0.000 C
ATOM      5  C5  IDS C   1      70.444 119.255 185.9580  0.00  0.00     0.000 C
ATOM      6  O5  IDS C   1      70.500 120.098 187.1090  0.00  0.00     0.000 O
ATOM      7   O  IDS C   1      72.214 121.834 183.9190  0.00  0.00     0.000 O
ATOM      9  HD  IDS C   1      72.865 122.337 184.1890  0.00  0.00     0.000 HD
ENDROOT
BRANCH 2 9
ATOM      9   O  IDS C   1      73.240 122.299 186.4830  0.00  0.00     0.000 O
ATOM     10   S  IDS C   1      74.790 122.436 186.1340  0.00  0.00     0.000 S
ATOM     11   O  IDS C   1      75.169 123.773 186.5340  0.00  0.00     0.000 OA
ATOM     12   O  IDS C   1      75.456 121.406 186.9050  0.00  0.00     0.000 OA
ATOM     13   O  IDS C   1      74.893 122.228 184.7060  0.00  0.00     0.000 OA
ENDBRANCH 2 9
BRANCH 5 14
ATOM     14   C  IDS C   1      69.066 118.617 185.8960  0.00  0.00     0.000 C
ATOM     15   O  IDS C   1      68.299 118.770 186.8140  0.00  0.00     0.000 OA
ATOM     16   O  IDS C   1      68.750 117.955 184.9220  0.00  0.00     0.000 OA
ENDBRANCH 5 14
BRANCH 1 17
ATOM     17  O4  SGN C   2      72.134 120.884 188.6630  0.00  0.00     0.000 O
BRANCH 17 21
ATOM     18  C1  SGN C   2      71.565 122.991 192.2350  0.00  0.00     0.000 C
ATOM     19  C2  SGN C   2      70.336 122.824 191.3340  0.00  0.00     0.000 C
ATOM     20  C3  SGN C   2      70.587 121.704 190.3160  0.00  0.00     0.000 C
ATOM     21  C4  SGN C   2      71.882 121.965 189.5560  0.00  0.00     0.000 C
ATOM     22  C5  SGN C   2      73.026 122.108 190.5560  0.00  0.00     0.000 C
ATOM     23  O5  SGN C   2      72.740 123.187 191.4760  0.00  0.00     0.000 O
ATOM     24   O  SGN C   2      69.487 121.607 189.4260  0.00  0.00     0.000 O
ATOM     26  HD  SGN C   2      70.118 121.315 189.9440  0.00  0.00     0.000 HD
BRANCH 19 28
ATOM     26   N  SGN C   2      69.242 123.073 192.2820  0.00  0.00     0.000 N
ATOM     28  HD  SGN C   2      69.887 123.570 192.5770  0.00  0.00     0.000 HD
ATOM     28   O  SGN C   2      66.794 123.280 192.7140  0.00  0.00     0.000 OA
ATOM     29   S  SGN C   2      67.949 123.946 191.8920  0.00  0.00     0.000 S
ATOM     30   O  SGN C   2      68.155 125.254 192.3820  0.00  0.00     0.000 OA
ATOM     31   O  SGN C   2      67.694 123.745 190.5080  0.00  0.00     0.000 OA
ENDBRANCH 19 28
BRANCH 22 32
ATOM     32   C  SGN C   2      74.351 122.427 189.9090  0.00  0.00     0.000 C
ATOM     33   S  SGN C   2      76.350 124.015 190.2650  0.00  0.00     0.000 S
ATOM     34   O  SGN C   2      75.631 125.148 189.7380  0.00  0.00     0.000 OA
ATOM     35   O  SGN C   2      77.193 124.336 191.3970  0.00  0.00     0.000 OA
ATOM     36   O  SGN C   2      77.016 123.221 189.2590  0.00  0.00     0.000 OA
ATOM     37   O  SGN C   2      75.210 123.068 190.8590  0.00  0.00     0.000 O
ENDBRANCH 22 32
BRANCH 18 38
ATOM     38  O4  IDS C   3      71.972 122.268 193.2810  0.00  0.00     0.000 O
BRANCH 38 42
ATOM     39  C1  IDS C   3      71.961 120.055 195.9700  0.00  0.00     0.000 C
ATOM     40  C2  IDS C   3      70.781 121.009 195.7250  0.00  0.00     0.000 C
ATOM     41  C3  IDS C   3      71.259 122.453 195.5770  0.00  0.00     0.000 C
ATOM     42  C4  IDS C   3      72.430 122.550 194.6080  0.00  0.00     0.000 C
ATOM     43  C5  IDS C   3      73.520 121.549 195.0090  0.00  0.00     0.000 C
ATOM     44  O5  IDS C   3      72.973 120.231 194.9930  0.00  0.00     0.000 O
ATOM     45   O  IDS C   3      71.650 122.956 196.8560  0.00  0.00     0.000 O
ATOM     47  HD  IDS C   3      72.205 122.700 197.4710  0.00  0.00     0.000 HD
BRANCH 40 47
ATOM     47   O  IDS C   3      70.069 120.646 194.4770  0.00  0.00     0.000 O
ATOM     48   S  IDS C   3      68.567 120.103 194.5470  0.00  0.00     0.000 S
ATOM     49   O  IDS C   3      68.663 118.725 194.9790  0.00  0.00     0.000 OA
ATOM     50   O  IDS C   3      68.055 120.225 193.1990  0.00  0.00     0.000 OA
ATOM     51   O  IDS C   3      67.876 120.937 195.4930  0.00  0.00     0.000 OA
ENDBRANCH 40 47
BRANCH 43 52
ATOM     52   C  IDS C   3      74.730 121.607 194.1040  0.00  0.00     0.000 C
ATOM     53   O  IDS C   3      74.952 120.700 193.3340  0.00  0.00     0.000 OA
ATOM     54   O  IDS C   3      75.468 122.558 194.1540  0.00  0.00     0.000 OA
ENDBRANCH 43 52
BRANCH 39 55
ATOM     55  O4  SGN C   4      72.425 119.750 197.1830  0.00  0.00     0.000 O
BRANCH 55 59
ATOM     56  C1  SGN C   4      74.050 115.955 197.8570  0.00  0.00     0.000 C
ATOM     57  C2  SGN C   4      72.527 116.025 197.6590  0.00  0.00     0.000 C
ATOM     58  C3  SGN C   4      72.121 117.360 197.0410  0.00  0.00     0.000 C
ATOM     59  C4  SGN C   4      72.722 118.520 197.8270  0.00  0.00     0.000 C
ATOM     60  C5  SGN C   4      74.235 118.327 197.9090  0.00  0.00     0.000 C
ATOM     61  O5  SGN C   4      74.496 117.084 198.5900  0.00  0.00     0.000 O
ATOM     62   O  SGN C   4      70.704 117.458 197.0070  0.00  0.00     0.000 O
ATOM     64  HD  SGN C   4      70.863 116.608 196.9640  0.00  0.00     0.000 HD
BRANCH 57 66
ATOM     64   N  SGN C   4      72.335 114.715 198.3020  0.00  0.00     0.000 N
ATOM     66  HD  SGN C   4      71.660 114.218 198.5210  0.00  0.00     0.000 HD
ATOM     66   S  SGN C   4      71.469 113.579 197.5900  0.00  0.00     0.000 S
ATOM     67   O  SGN C   4      71.416 112.470 198.4710  0.00  0.00     0.000 OA
ATOM     68   O  SGN C   4      70.258 114.188 197.1600  0.00  0.00     0.000 OA
ATOM     69   O  SGN C   4      72.315 113.203 196.3320  0.00  0.00     0.000 OA
ENDBRANCH 57 66
BRANCH 60 70
ATOM     70   C  SGN C   4      74.951 119.426 198.6620  0.00  0.00     0.000 C
ATOM     71   O  SGN C   4      76.477 122.535 197.2070  0.00  0.00     0.000 OA
ATOM     72   O  SGN C   4      74.357 122.330 198.3540  0.00  0.00     0.000 OA
ATOM     73   O  SGN C   4      75.576 120.344 197.7440  0.00  0.00     0.000 O
ATOM     74   S  SGN C   4      75.718 121.859 198.2340  0.00  0.00     0.000 S
ATOM     75   O  SGN C   4      76.413 121.774 199.5030  0.00  0.00     0.000 OA
ENDBRANCH 60 70
BRANCH 56 76
ATOM     76  O4  IDS C   5      75.094 115.497 197.1400  0.00  0.00     0.000 O
BRANCH 76 80
ATOM     77  C1  IDS C   5      76.732 117.869 194.2500  0.00  0.00     0.000 C
ATOM     78  C2  IDS C   5      75.725 116.842 193.7320  0.00  0.00     0.000 C
ATOM     79  C3  IDS C   5      74.872 116.335 194.8780  0.00  0.00     0.000 C
ATOM     80  C4  IDS C   5      75.744 115.561 195.8620  0.00  0.00     0.000 C
ATOM     81  C5  IDS C   5      77.108 116.255 195.9880  0.00  0.00     0.000 C
ATOM     82  O5  IDS C   5      77.003 117.637 195.6320  0.00  0.00     0.000 O
BRANCH 78 83
ATOM     83   O  IDS C   5      74.834 117.448 192.7160  0.00  0.00     0.000 O
ATOM     84   S  IDS C   5      74.789 116.846 191.2400  0.00  0.00     0.000 S
ATOM     85   O  IDS C   5      76.161 116.713 190.8260  0.00  0.00     0.000 OA
ATOM     86   O  IDS C   5      74.109 115.579 191.3680  0.00  0.00     0.000 OA
ATOM     87   O  IDS C   5      74.046 117.799 190.4520  0.00  0.00     0.000 OA
ENDBRANCH 78 83
BRANCH 81 88
ATOM     88   C  IDS C   5      77.708 116.186 197.3800  0.00  0.00     0.000 C
ATOM     89   O  IDS C   5      78.150 115.146 197.7900  0.00  0.00     0.000 OA
ATOM     90   O  IDS C   5      77.738 117.179 198.0700  0.00  0.00     0.000 OA
ENDBRANCH 81 88
ENDBRANCH 76 80
ENDBRANCH 56 76
ENDBRANCH 55 59
ENDBRANCH 39 55
ENDBRANCH 38 42
ENDBRANCH 18 38
ENDBRANCH 17 21
ENDBRANCH 1 17
TORSDOF 18
ENDMDL
MODEL 45
REMARK VINA RESULT:      -1.9    118.514    124.124
ROOT
ATOM      1  C1  IDS C   1     122.501  12.495 174.6310  0.00  0.00     0.000 C
ATOM      2  C2  IDS C   1     121.120  12.691 175.2620  0.00  0.00     0.000 C
ATOM      3  C3  IDS C   1     120.097  11.762 174.6230  0.00  0.00     0.000 C
ATOM      4  C4  IDS C   1     120.006  12.014 173.1250  0.00  0.00     0.000 C
ATOM      5  C5  IDS C   1     121.395  12.280 172.5530  0.00  0.00     0.000 C
ATOM      6  O5  IDS C   1     122.394  11.751 173.4240  0.00  0.00     0.000 O
ATOM      7   O  IDS C   1     118.814  11.961 175.2330  0.00  0.00     0.000 O
ATOM      9  HD  IDS C   1     118.934  12.118 176.0760  0.00  0.00     0.000 HD
ENDROOT
BRANCH 2 9
ATOM      9   O  IDS C   1     121.154  12.388 176.7110  0.00  0.00     0.000 O
ATOM     10   S  IDS C   1     120.622  13.474 177.7510  0.00  0.00     0.000 S
ATOM     11   O  IDS C   1     120.775  12.878 179.0590  0.00  0.00     0.000 OA
ATOM     12   O  IDS C   1     121.461  14.640 177.5600  0.00  0.00     0.000 OA
ATOM     13   O  IDS C   1     119.239  13.711 177.4010  0.00  0.00     0.000 OA
ENDBRANCH 2 9
BRANCH 5 14
ATOM     14   C  IDS C   1     121.577  11.660 171.1780  0.00  0.00     0.000 C
ATOM     15   O  IDS C   1     121.272  10.505 171.0020  0.00  0.00     0.000 OA
ATOM     16   O  IDS C   1     122.032  12.330 170.2670  0.00  0.00     0.000 OA
ENDBRANCH 5 14
BRANCH 1 17
ATOM     17  O4  SGN C   2     123.628  12.444 175.3480  0.00  0.00     0.000 O
BRANCH 17 21
ATOM     18  C1  SGN C   2     126.881  10.574 177.2040  0.00  0.00     0.000 C
ATOM     19  C2  SGN C   2     126.152   9.769 176.1220  0.00  0.00     0.000 C
ATOM     20  C3  SGN C   2     125.294  10.708 175.2650  0.00  0.00     0.000 C
ATOM     21  C4  SGN C   2     124.369  11.531 176.1530  0.00  0.00     0.000 C
ATOM     22  C5  SGN C   2     125.208  12.287 177.1800  0.00  0.00     0.000 C
ATOM     23  O5  SGN C   2     125.980  11.349 177.9660  0.00  0.00     0.000 O
ATOM     24   O  SGN C   2     124.552   9.955 174.3200  0.00  0.00     0.000 O
ATOM     26  HD  SGN C   2     125.037  10.613 174.6050  0.00  0.00     0.000 HD
BRANCH 19 28
ATOM     26   N  SGN C   2     127.164   8.760 175.7770  0.00  0.00     0.000 N
ATOM     28  HD  SGN C   2     127.308   8.918 176.6160  0.00  0.00     0.000 HD
ATOM     28   O  SGN C   2     127.820   6.765 174.4310  0.00  0.00     0.000 OA
ATOM     29   S  SGN C   2     126.787   7.219 175.5170  0.00  0.00     0.000 S
ATOM     30   O  SGN C   2     127.045   6.511 176.7110  0.00  0.00     0.000 OA
ATOM     31   O  SGN C   2     125.484   7.184 174.9470  0.00  0.00     0.000 OA
ENDBRANCH 19 28
BRANCH 22 32
ATOM     32   C  SGN C   2     124.381  13.093 178.1520  0.00  0.00     0.000 C
ATOM     33   S  SGN C   2     124.279  13.566 180.6830  0.00  0.00     0.000 S
ATOM     34   O  SGN C   2     123.670  12.291 180.9670  0.00  0.00     0.000 OA
ATOM     35   O  SGN C   2     125.254  13.977 181.6720  0.00  0.00     0.000 OA
ATOM     36   O  SGN C   2     123.337  14.604 180.3380  0.00  0.00     0.000 OA
ATOM     37   O  SGN C   2     125.127  13.310 179.3550  0.00  0.00     0.000 O
ENDBRANCH 22 32
BRANCH 18 38
ATOM     38  O4  IDS C   3     127.974  11.336 177.1210  0.00  0.00     0.000 O
BRANCH 38 42
ATOM     39  C1  IDS C   3     130.951  12.724 175.9650  0.00  0.00     0.000 C
ATOM     40  C2  IDS C   3     130.691  11.212 175.8660  0.00  0.00     0.000 C
ATOM     41  C3  IDS C   3     130.279  10.633 177.2180  0.00  0.00     0.000 C
ATOM     42  C4  IDS C   3     129.188  11.473 177.8680  0.00  0.00     0.000 C
ATOM     43  C5  IDS C   3     129.618  12.945 177.9030  0.00  0.00     0.000 C
ATOM     44  O5  IDS C   3     129.858  13.393 176.5700  0.00  0.00     0.000 O
ATOM     45   O  IDS C   3     131.420  10.576 178.0760  0.00  0.00     0.000 O
ATOM     47  HD  IDS C   3     132.003  11.150 178.3570  0.00  0.00     0.000 HD
BRANCH 40 47
ATOM     47   O  IDS C   3     129.593  10.935 174.9090  0.00  0.00     0.000 O
ATOM     48   S  IDS C   3     129.901  10.151 173.5500  0.00  0.00     0.000 S
ATOM     49   O  IDS C   3     130.524  11.114 172.6680  0.00  0.00     0.000 OA
ATOM     50   O  IDS C   3     128.612   9.710 173.0650  0.00  0.00     0.000 OA
ATOM     51   O  IDS C   3     130.778   9.064 173.8970  0.00  0.00     0.000 OA
ENDBRANCH 40 47
BRANCH 43 52
ATOM     52   C  IDS C   3     128.592  13.839 178.5630  0.00  0.00     0.000 C
ATOM     53   O  IDS C   3     128.414  13.773 179.7580  0.00  0.00     0.000 OA
ATOM     54   O  IDS C   3     127.957  14.614 177.8940  0.00  0.00     0.000 OA
ENDBRANCH 43 52
BRANCH 39 55
ATOM     55  O4  SGN C   4     132.140  13.251 176.2590  0.00  0.00     0.000 O
BRANCH 55 59
ATOM     56  C1  SGN C   4     133.203  16.949 174.6150  0.00  0.00     0.000 C
ATOM     57  C2  SGN C   4     133.158  15.754 173.6480  0.00  0.00     0.000 C
ATOM     58  C3  SGN C   4     132.393  14.586 174.2650  0.00  0.00     0.000 C
ATOM     59  C4  SGN C   4     132.928  14.268 175.6560  0.00  0.00     0.000 C
ATOM     60  C5  SGN C   4     132.878  15.537 176.5040  0.00  0.00     0.000 C
ATOM     61  O5  SGN C   4     133.707  16.534 175.8750  0.00  0.00     0.000 O
ATOM     62   O  SGN C   4     132.493  13.450 173.4170  0.00  0.00     0.000 O
ATOM     64  HD  SGN C   4     132.562  14.127 172.8810  0.00  0.00     0.000 HD
BRANCH 57 66
ATOM     64   N  SGN C   4     134.008  16.453 172.6710  0.00  0.00     0.000 N
ATOM     66  HD  SGN C   4     134.369  16.263 171.9070  0.00  0.00     0.000 HD
ATOM     66   S  SGN C   4     133.570  16.553 171.1390  0.00  0.00     0.000 S
ATOM     67   O  SGN C   4     134.608  17.221 170.4430  0.00  0.00     0.000 OA
ATOM     68   O  SGN C   4     133.184  15.246 170.7310  0.00  0.00     0.000 OA
ATOM     69   O  SGN C   4     132.300  17.462 171.1750  0.00  0.00     0.000 OA
ENDBRANCH 57 66
BRANCH 60 70
ATOM     70   C  SGN C   4     133.378  15.346 177.9190  0.00  0.00     0.000 C
ATOM     71   O  SGN C   4     131.319  14.494 180.9430  0.00  0.00     0.000 OA
ATOM     72   O  SGN C   4     132.702  13.004 179.6330  0.00  0.00     0.000 OA
ATOM     73   O  SGN C   4     132.271  15.236 178.8350  0.00  0.00     0.000 O
ATOM     74   S  SGN C   4     132.511  14.344 180.1400  0.00  0.00     0.000 S
ATOM     75   O  SGN C   4     133.698  14.902 180.7570  0.00  0.00     0.000 OA
ENDBRANCH 60 70
BRANCH 56 76
ATOM     76  O4  IDS C   5     132.458  18.051 174.8180  0.00  0.00     0.000 O
BRANCH 76 80
ATOM     77  C1  IDS C   5     129.087  17.795 177.1060  0.00  0.00     0.000 C
ATOM     78  C2  IDS C   5     128.839  17.715 175.6000  0.00  0.00     0.000 C
ATOM     79  C3  IDS C   5     130.132  17.379 174.8830  0.00  0.00     0.000 C
ATOM     80  C4  IDS C   5     131.123  18.526 175.0520  0.00  0.00     0.000 C
ATOM     81  C5  IDS C   5     130.999  19.101 176.4700  0.00  0.00     0.000 C
ATOM     82  O5  IDS C   5     130.453  18.125 177.3620  0.00  0.00     0.000 O
BRANCH 78 83
ATOM     83   O  IDS C   5     127.843  16.664 175.2880  0.00  0.00     0.000 O
ATOM     84   S  IDS C   5     126.504  17.046 174.5100  0.00  0.00     0.000 S
ATOM     85   O  IDS C   5     125.966  18.195 175.1890  0.00  0.00     0.000 OA
ATOM     86   O  IDS C   5     126.921  17.331 173.1570  0.00  0.00     0.000 OA
ATOM     87   O  IDS C   5     125.655  15.883 174.5980  0.00  0.00     0.000 OA
ENDBRANCH 78 83
BRANCH 81 88
ATOM     88   C  IDS C   5     132.316  19.573 177.0600  0.00  0.00     0.000 C
ATOM     89   O  IDS C   5     132.840  18.940 177.9360  0.00  0.00     0.000 OA
ATOM     90   O  IDS C   5     132.829  20.586 176.6430  0.00  0.00     0.000 OA
ENDBRANCH 81 88
ENDBRANCH 76 80
ENDBRANCH 56 76
ENDBRANCH 55 59
ENDBRANCH 39 55
ENDBRANCH 38 42
ENDBRANCH 18 38
ENDBRANCH 17 21
ENDBRANCH 1 17
TORSDOF 18
ENDMDL
MODEL 46
REMARK VINA RESULT:      -1.9    129.758    135.265
ROOT
ATOM      1  C1  IDS C   1      66.542 117.053  81.7140  0.00  0.00     0.000 C
ATOM      2  C2  IDS C   1      65.269 116.657  82.4670  0.00  0.00     0.000 C
ATOM      3  C3  IDS C   1      65.576 115.625  83.5420  0.00  0.00     0.000 C
ATOM      4  C4  IDS C   1      66.204 114.381  82.9280  0.00  0.00     0.000 C
ATOM      5  C5  IDS C   1      67.174 114.777  81.8200  0.00  0.00     0.000 C
ATOM      6  O5  IDS C   1      67.589 116.132  81.9920  0.00  0.00     0.000 O
ATOM      7   O  IDS C   1      64.370 115.274  84.2360  0.00  0.00     0.000 O
ATOM      9  HD  IDS C   1      63.880 115.984  84.3070  0.00  0.00     0.000 HD
ENDROOT
BRANCH 2 9
ATOM      9   O  IDS C   1      64.665 117.832  83.1360  0.00  0.00     0.000 O
ATOM     10   S  IDS C   1      63.134 118.187  82.8650  0.00  0.00     0.000 S
ATOM     11   O  IDS C   1      62.852 119.359  83.6630  0.00  0.00     0.000 OA
ATOM     12   O  IDS C   1      63.038 118.437  81.4420  0.00  0.00     0.000 OA
ATOM     13   O  IDS C   1      62.380 117.027  83.2860  0.00  0.00     0.000 OA
ENDBRANCH 2 9
BRANCH 5 14
ATOM     14   C  IDS C   1      68.411 113.895  81.7980  0.00  0.00     0.000 C
ATOM     15   O  IDS C   1      68.578 113.129  80.8810  0.00  0.00     0.000 OA
ATOM     16   O  IDS C   1      69.221 113.965  82.7070  0.00  0.00     0.000 OA
ENDBRANCH 5 14
BRANCH 1 17
ATOM     17  O4  SGN C   2      66.832 118.316  81.3900  0.00  0.00     0.000 O
BRANCH 17 21
ATOM     18  C1  SGN C   2      68.805 121.989  81.7710  0.00  0.00     0.000 C
ATOM     19  C2  SGN C   2      69.456 120.785  82.4640  0.00  0.00     0.000 C
ATOM     20  C3  SGN C   2      68.878 119.483  81.8940  0.00  0.00     0.000 C
ATOM     21  C4  SGN C   2      67.356 119.502  81.9820  0.00  0.00     0.000 C
ATOM     22  C5  SGN C   2      66.830 120.737  81.2570  0.00  0.00     0.000 C
ATOM     23  O5  SGN C   2      67.396 121.929  81.8470  0.00  0.00     0.000 O
ATOM     24   O  SGN C   2      69.413 118.372  82.5930  0.00  0.00     0.000 O
ATOM     26  HD  SGN C   2      69.150 118.823  81.9020  0.00  0.00     0.000 HD
BRANCH 19 28
ATOM     26   N  SGN C   2      70.834 121.261  82.6430  0.00  0.00     0.000 N
ATOM     28  HD  SGN C   2      70.359 121.983  82.6950  0.00  0.00     0.000 HD
ATOM     28   O  SGN C   2      73.143 120.850  83.4940  0.00  0.00     0.000 OA
ATOM     29   S  SGN C   2      71.666 120.996  83.9930  0.00  0.00     0.000 S
ATOM     30   O  SGN C   2      71.570 122.160  84.7870  0.00  0.00     0.000 OA
ATOM     31   O  SGN C   2      71.241 119.746  84.5240  0.00  0.00     0.000 OA
ENDBRANCH 19 28
BRANCH 22 32
ATOM     32   C  SGN C   2      65.330 120.883  81.3340  0.00  0.00     0.000 C
ATOM     33   S  SGN C   2      63.583 122.716  81.8120  0.00  0.00     0.000 S
ATOM     34   O  SGN C   2      63.817 122.664  83.2340  0.00  0.00     0.000 OA
ATOM     35   O  SGN C   2      63.363 124.056  81.3090  0.00  0.00     0.000 OA
ATOM     36   O  SGN C   2      62.612 121.758  81.3390  0.00  0.00     0.000 OA
ATOM     37   O  SGN C   2      64.971 122.260  81.1690  0.00  0.00     0.000 O
ENDBRANCH 22 32
BRANCH 18 38
ATOM     38  O4  IDS C   3      69.042 122.524  80.5710  0.00  0.00     0.000 O
BRANCH 38 42
ATOM     39  C1  IDS C   3      70.604 123.351  77.5700  0.00  0.00     0.000 C
ATOM     40  C2  IDS C   3      71.398 123.289  78.8850  0.00  0.00     0.000 C
ATOM     41  C3  IDS C   3      70.735 124.135  79.9720  0.00  0.00     0.000 C
ATOM     42  C4  IDS C   3      69.242 123.847  80.0600  0.00  0.00     0.000 C
ATOM     43  C5  IDS C   3      68.606 123.971  78.6700  0.00  0.00     0.000 C
ATOM     44  O5  IDS C   3      69.236 123.047  77.7840  0.00  0.00     0.000 O
ATOM     45   O  IDS C   3      70.943 125.519  79.6870  0.00  0.00     0.000 O
ATOM     47  HD  IDS C   3      70.784 126.035  79.0090  0.00  0.00     0.000 HD
BRANCH 40 47
ATOM     47   O  IDS C   3      71.467 121.896  79.3860  0.00  0.00     0.000 O
ATOM     48   S  IDS C   3      72.872 121.134  79.4290  0.00  0.00     0.000 S
ATOM     49   O  IDS C   3      73.149 120.735  78.0660  0.00  0.00     0.000 OA
ATOM     50   O  IDS C   3      72.665 120.002  80.3050  0.00  0.00     0.000 OA
ATOM     51   O  IDS C   3      73.831 122.077  79.9390  0.00  0.00     0.000 OA
ENDBRANCH 40 47
BRANCH 43 52
ATOM     52   C  IDS C   3      67.114 123.725  78.6840  0.00  0.00     0.000 C
ATOM     53   O  IDS C   3      66.665 122.714  78.1940  0.00  0.00     0.000 OA
ATOM     54   O  IDS C   3      66.379 124.538  79.1840  0.00  0.00     0.000 OA
ENDBRANCH 43 52
BRANCH 39 55
ATOM     55  O4  SGN C   4      70.816 124.264  76.6230  0.00  0.00     0.000 O
BRANCH 55 59
ATOM     56  C1  SGN C   4      70.179 123.239  72.6170  0.00  0.00     0.000 C
ATOM     57  C2  SGN C   4      71.405 122.609  73.3010  0.00  0.00     0.000 C
ATOM     58  C3  SGN C   4      71.302 122.737  74.8190  0.00  0.00     0.000 C
ATOM     59  C4  SGN C   4      71.012 124.179  75.2180  0.00  0.00     0.000 C
ATOM     60  C5  SGN C   4      69.756 124.648  74.4870  0.00  0.00     0.000 C
ATOM     61  O5  SGN C   4      70.003 124.571  73.0690  0.00  0.00     0.000 O
ATOM     62   O  SGN C   4      72.509 122.283  75.4170  0.00  0.00     0.000 O
ATOM     64  HD  SGN C   4      72.452 121.836  74.6770  0.00  0.00     0.000 HD
BRANCH 57 66
ATOM     64   N  SGN C   4      72.030 122.311  72.0030  0.00  0.00     0.000 N
ATOM     66  HD  SGN C   4      72.783 121.978  71.7330  0.00  0.00     0.000 HD
ATOM     66   S  SGN C   4      72.589 120.850  71.6870  0.00  0.00     0.000 S
ATOM     67   O  SGN C   4      73.181 120.891  70.4000  0.00  0.00     0.000 OA
ATOM     68   O  SGN C   4      73.374 120.455  72.8050  0.00  0.00     0.000 OA
ATOM     69   O  SGN C   4      71.304 119.964  71.6390  0.00  0.00     0.000 OA
ENDBRANCH 57 66
BRANCH 60 70
ATOM     70   C  SGN C   4      69.357 126.072  74.8100  0.00  0.00     0.000 C
ATOM     71   O  SGN C   4      66.957 127.192  77.4730  0.00  0.00     0.000 OA
ATOM     72   O  SGN C   4      69.374 127.234  77.5540  0.00  0.00     0.000 OA
ATOM     73   O  SGN C   4      68.264 126.089  75.7480  0.00  0.00     0.000 O
ATOM     74   S  SGN C   4      68.189 127.346  76.7340  0.00  0.00     0.000 S
ATOM     75   O  SGN C   4      68.199 128.503  75.8610  0.00  0.00     0.000 OA
ENDBRANCH 60 70
BRANCH 56 76
ATOM     76  O4  IDS C   5      68.985 122.794  72.1840  0.00  0.00     0.000 O
BRANCH 76 80
ATOM     77  C1  IDS C   5      65.893 122.448  74.8260  0.00  0.00     0.000 C
ATOM     78  C2  IDS C   5      66.653 121.148  74.5650  0.00  0.00     0.000 C
ATOM     79  C3  IDS C   5      68.003 121.456  73.9470  0.00  0.00     0.000 C
ATOM     80  C4  IDS C   5      67.804 122.073  72.5660  0.00  0.00     0.000 C
ATOM     81  C5  IDS C   5      66.589 123.011  72.5980  0.00  0.00     0.000 C
ATOM     82  O5  IDS C   5      66.341 123.466  73.9320  0.00  0.00     0.000 O
BRANCH 78 83
ATOM     83   O  IDS C   5      66.873 120.406  75.8280  0.00  0.00     0.000 O
ATOM     84   S  IDS C   5      66.270 118.940  76.0030  0.00  0.00     0.000 S
ATOM     85   O  IDS C   5      64.893 119.027  75.5960  0.00  0.00     0.000 OA
ATOM     86   O  IDS C   5      67.065 118.098  75.1390  0.00  0.00     0.000 OA
ATOM     87   O  IDS C   5      66.433 118.614  77.3990  0.00  0.00     0.000 OA
ENDBRANCH 78 83
BRANCH 81 88
ATOM     88   C  IDS C   5      66.735 124.238  71.7160  0.00  0.00     0.000 C
ATOM     89   O  IDS C   5      66.666 124.127  70.5210  0.00  0.00     0.000 OA
ATOM     90   O  IDS C   5      66.919 125.321  72.2220  0.00  0.00     0.000 OA
ENDBRANCH 81 88
ENDBRANCH 76 80
ENDBRANCH 56 76
ENDBRANCH 55 59
ENDBRANCH 39 55
ENDBRANCH 38 42
ENDBRANCH 18 38
ENDBRANCH 17 21
ENDBRANCH 1 17
TORSDOF 18
ENDMDL
MODEL 47
REMARK VINA RESULT:      -1.9    130.888    137.445
ROOT
ATOM      1  C1  IDS C   1     141.014 133.112 120.3500  0.00  0.00     0.000 C
ATOM      2  C2  IDS C   1     142.188 132.421 119.6520  0.00  0.00     0.000 C
ATOM      3  C3  IDS C   1     142.032 132.485 118.1400  0.00  0.00     0.000 C
ATOM      4  C4  IDS C   1     140.731 131.824 117.7060  0.00  0.00     0.000 C
ATOM      5  C5  IDS C   1     139.619 132.157 118.6960  0.00  0.00     0.000 C
ATOM      6  O5  IDS C   1     139.953 133.335 119.4300  0.00  0.00     0.000 O
ATOM      7   O  IDS C   1     143.146 131.835 117.5100  0.00  0.00     0.000 O
ATOM      9  HD  IDS C   1     143.856 131.998 117.9770  0.00  0.00     0.000 HD
ENDROOT
BRANCH 2 9
ATOM      9   O  IDS C   1     143.468 133.081 119.9970  0.00  0.00     0.000 O
ATOM     10   S  IDS C   1     144.654 132.214 120.6190  0.00  0.00     0.000 S
ATOM     11   O  IDS C   1     145.750 133.134 120.8260  0.00  0.00     0.000 OA
ATOM     12   O  IDS C   1     144.132 131.671 121.8560  0.00  0.00     0.000 OA
ATOM     13   O  IDS C   1     144.954 131.195 119.6380  0.00  0.00     0.000 OA
ENDBRANCH 2 9
BRANCH 5 14
ATOM     14   C  IDS C   1     138.285 132.382 118.0050  0.00  0.00     0.000 C
ATOM     15   O  IDS C   1     137.653 133.381 118.2460  0.00  0.00     0.000 OA
ATOM     16   O  IDS C   1     137.864 131.552 117.2170  0.00  0.00     0.000 OA
ENDBRANCH 5 14
BRANCH 1 17
ATOM     17  O4  SGN C   2     141.166 133.922 121.4020  0.00  0.00     0.000 O
BRANCH 17 21
ATOM     18  C1  SGN C   2     141.076 137.613 123.3750  0.00  0.00     0.000 C
ATOM     19  C2  SGN C   2     140.371 137.544 122.0150  0.00  0.00     0.000 C
ATOM     20  C3  SGN C   2     140.123 136.080 121.6320  0.00  0.00     0.000 C
ATOM     21  C4  SGN C   2     141.426 135.292 121.6950  0.00  0.00     0.000 C
ATOM     22  C5  SGN C   2     142.025 135.433 123.0920  0.00  0.00     0.000 C
ATOM     23  O5  SGN C   2     142.251 136.831 123.3880  0.00  0.00     0.000 O
ATOM     24   O  SGN C   2     139.551 136.011 120.3360  0.00  0.00     0.000 O
ATOM     26  HD  SGN C   2     139.652 135.805 121.1710  0.00  0.00     0.000 HD
BRANCH 19 28
ATOM     26   N  SGN C   2     139.496 138.722 122.0800  0.00  0.00     0.000 N
ATOM     28  HD  SGN C   2     140.195 138.961 122.5300  0.00  0.00     0.000 HD
ATOM     28   O  SGN C   2     137.771 140.166 120.9990  0.00  0.00     0.000 OA
ATOM     29   S  SGN C   2     139.248 139.680 120.8120  0.00  0.00     0.000 S
ATOM     30   O  SGN C   2     140.110 140.792 120.9440  0.00  0.00     0.000 OA
ATOM     31   O  SGN C   2     139.316 138.874 119.6420  0.00  0.00     0.000 OA
ENDBRANCH 19 28
BRANCH 22 32
ATOM     32   C  SGN C   2     143.354 134.735 123.2460  0.00  0.00     0.000 C
ATOM     33   S  SGN C   2     145.101 134.277 125.0840  0.00  0.00     0.000 S
ATOM     34   O  SGN C   2     145.627 135.617 125.0140  0.00  0.00     0.000 OA
ATOM     35   O  SGN C   2     145.034 133.749 126.4310  0.00  0.00     0.000 OA
ATOM     36   O  SGN C   2     145.694 133.362 124.1370  0.00  0.00     0.000 OA
ATOM     37   O  SGN C   2     143.579 134.427 124.6270  0.00  0.00     0.000 O
ENDBRANCH 22 32
BRANCH 18 38
ATOM     38  O4  IDS C   3     140.583 137.477 124.6090  0.00  0.00     0.000 O
BRANCH 38 42
ATOM     39  C1  IDS C   3     138.271 137.352 127.2100  0.00  0.00     0.000 C
ATOM     40  C2  IDS C   3     138.139 138.388 126.0820  0.00  0.00     0.000 C
ATOM     41  C3  IDS C   3     139.439 139.168 125.8920  0.00  0.00     0.000 C
ATOM     42  C4  IDS C   3     140.638 138.232 125.8240  0.00  0.00     0.000 C
ATOM     43  C5  IDS C   3     140.626 137.284 127.0290  0.00  0.00     0.000 C
ATOM     44  O5  IDS C   3     139.413 136.534 127.0210  0.00  0.00     0.000 O
ATOM     45   O  IDS C   3     139.604 140.084 126.9770  0.00  0.00     0.000 O
ATOM     47  HD  IDS C   3     139.622 140.014 127.8400  0.00  0.00     0.000 HD
BRANCH 40 47
ATOM     47   O  IDS C   3     137.829 137.719 124.7960  0.00  0.00     0.000 O
ATOM     48   S  IDS C   3     136.427 137.990 124.0750  0.00  0.00     0.000 S
ATOM     49   O  IDS C   3     135.450 137.208 124.8010  0.00  0.00     0.000 OA
ATOM     50   O  IDS C   3     136.604 137.532 122.7150  0.00  0.00     0.000 OA
ATOM     51   O  IDS C   3     136.189 139.406 124.1690  0.00  0.00     0.000 OA
ENDBRANCH 40 47
BRANCH 43 52
ATOM     52   C  IDS C   3     141.808 136.340 127.0440  0.00  0.00     0.000 C
ATOM     53   O  IDS C   3     141.628 135.150 127.1690  0.00  0.00     0.000 OA
ATOM     54   O  IDS C   3     142.924 136.778 126.9290  0.00  0.00     0.000 OA
ENDBRANCH 43 52
BRANCH 39 55
ATOM     55  O4  SGN C   4     137.995 137.613 128.4880  0.00  0.00     0.000 O
BRANCH 55 59
ATOM     56  C1  SGN C   4     136.268 134.613 130.8390  0.00  0.00     0.000 C
ATOM     57  C2  SGN C   4     135.362 135.265 129.7810  0.00  0.00     0.000 C
ATOM     58  C3  SGN C   4     136.192 136.032 128.7550  0.00  0.00     0.000 C
ATOM     59  C4  SGN C   4     137.158 136.984 129.4490  0.00  0.00     0.000 C
ATOM     60  C5  SGN C   4     138.007 136.188 130.4380  0.00  0.00     0.000 C
ATOM     61  O5  SGN C   4     137.127 135.588 131.4090  0.00  0.00     0.000 O
ATOM     62   O  SGN C   4     135.327 136.744 127.8800  0.00  0.00     0.000 O
ATOM     64  HD  SGN C   4     134.861 136.060 128.1360  0.00  0.00     0.000 HD
BRANCH 57 66
ATOM     64   N  SGN C   4     134.591 134.024 129.5990  0.00  0.00     0.000 N
ATOM     66  HD  SGN C   4     133.986 133.593 130.0430  0.00  0.00     0.000 HD
ATOM     66   S  SGN C   4     132.997 134.040 129.6780  0.00  0.00     0.000 S
ATOM     67   O  SGN C   4     132.552 132.703 129.5260  0.00  0.00     0.000 OA
ATOM     68   O  SGN C   4     132.646 134.765 130.8490  0.00  0.00     0.000 OA
ATOM     69   O  SGN C   4     132.572 134.873 128.4260  0.00  0.00     0.000 OA
ENDBRANCH 57 66
BRANCH 60 70
ATOM     70   C  SGN C   4     139.019 137.027 131.1880  0.00  0.00     0.000 C
ATOM     71   O  SGN C   4     142.555 137.756 130.1530  0.00  0.00     0.000 OA
ATOM     72   O  SGN C   4     140.631 139.208 129.9530  0.00  0.00     0.000 OA
ATOM     73   O  SGN C   4     140.322 136.904 130.5860  0.00  0.00     0.000 O
ATOM     74   S  SGN C   4     141.290 138.171 130.7140  0.00  0.00     0.000 S
ATOM     75   O  SGN C   4     141.351 138.448 132.1350  0.00  0.00     0.000 OA
ENDBRANCH 60 70
BRANCH 56 76
ATOM     76  O4  IDS C   5     136.857 133.413 130.9940  0.00  0.00     0.000 O
BRANCH 76 80
ATOM     77  C1  IDS C   5     140.517 132.739 129.3190  0.00  0.00     0.000 C
ATOM     78  C2  IDS C   5     139.338 132.233 128.4900  0.00  0.00     0.000 C
ATOM     79  C3  IDS C   5     138.058 132.901 128.9540  0.00  0.00     0.000 C
ATOM     80  C4  IDS C   5     137.743 132.464 130.3820  0.00  0.00     0.000 C
ATOM     81  C5  IDS C   5     139.050 132.359 131.1810  0.00  0.00     0.000 C
ATOM     82  O5  IDS C   5     140.064 133.183 130.5980  0.00  0.00     0.000 O
BRANCH 78 83
ATOM     83   O  IDS C   5     139.534 132.545 127.0550  0.00  0.00     0.000 O
ATOM     84   S  IDS C   5     139.471 131.374 125.9730  0.00  0.00     0.000 S
ATOM     85   O  IDS C   5     140.316 130.324 126.4760  0.00  0.00     0.000 OA
ATOM     86   O  IDS C   5     138.078 130.998 125.9040  0.00  0.00     0.000 OA
ATOM     87   O  IDS C   5     139.952 131.952 124.7420  0.00  0.00     0.000 OA
ENDBRANCH 78 83
BRANCH 81 88
ATOM     88   C  IDS C   5     138.915 132.762 132.6380  0.00  0.00     0.000 C
ATOM     89   O  IDS C   5     138.349 132.035 133.4110  0.00  0.00     0.000 OA
ATOM     90   O  IDS C   5     139.379 133.813 133.0140  0.00  0.00     0.000 OA
ENDBRANCH 81 88
ENDBRANCH 76 80
ENDBRANCH 56 76
ENDBRANCH 55 59
ENDBRANCH 39 55
ENDBRANCH 38 42
ENDBRANCH 18 38
ENDBRANCH 17 21
ENDBRANCH 1 17
TORSDOF 18
ENDMDL
MODEL 48
REMARK VINA RESULT:      -1.9    164.870    172.685
ROOT
ATOM      1  C1  IDS C   1      69.099 128.661 149.4880  0.00  0.00     0.000 C
ATOM      2  C2  IDS C   1      69.275 127.279 148.8520  0.00  0.00     0.000 C
ATOM      3  C3  IDS C   1      70.602 126.659 149.2650  0.00  0.00     0.000 C
ATOM      4  C4  IDS C   1      71.764 127.553 148.8550  0.00  0.00     0.000 C
ATOM      5  C5  IDS C   1      71.399 129.018 149.0730  0.00  0.00     0.000 C
ATOM      6  O5  IDS C   1      70.334 129.124 150.0180  0.00  0.00     0.000 O
ATOM      7   O  IDS C   1      70.742 125.366 148.6610  0.00  0.00     0.000 O
ATOM      9  HD  IDS C   1      69.963 124.988 148.6420  0.00  0.00     0.000 HD
ENDROOT
BRANCH 2 9
ATOM      9   O  IDS C   1      68.199 126.359 149.2830  0.00  0.00     0.000 O
ATOM     10   S  IDS C   1      67.314 125.618 148.1830  0.00  0.00     0.000 S
ATOM     11   O  IDS C   1      66.377 124.795 148.9150  0.00  0.00     0.000 OA
ATOM     12   O  IDS C   1      66.667 126.673 147.4290  0.00  0.00     0.000 OA
ATOM     13   O  IDS C   1      68.239 124.843 147.3870  0.00  0.00     0.000 OA
ENDBRANCH 2 9
BRANCH 5 14
ATOM     14   C  IDS C   1      72.577 129.833 149.5810  0.00  0.00     0.000 C
ATOM     15   O  IDS C   1      72.373 130.847 150.2020  0.00  0.00     0.000 OA
ATOM     16   O  IDS C   1      73.715 129.457 149.3560  0.00  0.00     0.000 OA
ENDBRANCH 5 14
BRANCH 1 17
ATOM     17  O4  SGN C   2      67.947 129.073 150.0240  0.00  0.00     0.000 O
BRANCH 17 21
ATOM     18  C1  SGN C   2      65.424 130.195 153.1710  0.00  0.00     0.000 C
ATOM     19  C2  SGN C   2      66.923 130.124 153.4850  0.00  0.00     0.000 C
ATOM     20  C3  SGN C   2      67.728 130.125 152.1790  0.00  0.00     0.000 C
ATOM     21  C4  SGN C   2      67.235 129.016 151.2570  0.00  0.00     0.000 C
ATOM     22  C5  SGN C   2      65.739 129.197 151.0170  0.00  0.00     0.000 C
ATOM     23  O5  SGN C   2      65.034 129.171 152.2800  0.00  0.00     0.000 O
ATOM     24   O  SGN C   2      69.109 129.972 152.4630  0.00  0.00     0.000 O
ATOM     26  HD  SGN C   2      68.412 130.299 152.0670  0.00  0.00     0.000 HD
BRANCH 19 28
ATOM     26   N  SGN C   2      67.004 130.931 154.7110  0.00  0.00     0.000 N
ATOM     28  HD  SGN C   2      66.229 130.548 154.7660  0.00  0.00     0.000 HD
ATOM     28   O  SGN C   2      68.392 131.910 156.5370  0.00  0.00     0.000 OA
ATOM     29   S  SGN C   2      67.956 130.529 155.9430  0.00  0.00     0.000 S
ATOM     30   O  SGN C   2      67.157 129.858 156.8960  0.00  0.00     0.000 OA
ATOM     31   O  SGN C   2      69.104 129.882 155.4080  0.00  0.00     0.000 OA
ENDBRANCH 19 28
BRANCH 22 32
ATOM     32   C  SGN C   2      65.135 128.112 150.1600  0.00  0.00     0.000 C
ATOM     33   S  SGN C   2      62.842 127.473 149.1720  0.00  0.00     0.000 S
ATOM     34   O  SGN C   2      62.361 126.971 150.4340  0.00  0.00     0.000 OA
ATOM     35   O  SGN C   2      61.838 128.186 148.4090  0.00  0.00     0.000 OA
ATOM     36   O  SGN C   2      63.573 126.502 148.3920  0.00  0.00     0.000 OA
ATOM     37   O  SGN C   2      63.916 128.584 149.5730  0.00  0.00     0.000 O
ENDBRANCH 22 32
BRANCH 18 38
ATOM     38  O4  IDS C   3      64.665 131.236 152.8200  0.00  0.00     0.000 O
BRANCH 38 42
ATOM     39  C1  IDS C   3      63.657 134.539 152.3750  0.00  0.00     0.000 C
ATOM     40  C2  IDS C   3      64.416 134.107 153.6390  0.00  0.00     0.000 C
ATOM     41  C3  IDS C   3      63.747 132.903 154.3010  0.00  0.00     0.000 C
ATOM     42  C4  IDS C   3      63.440 131.814 153.2820  0.00  0.00     0.000 C
ATOM     43  C5  IDS C   3      62.665 132.412 152.1020  0.00  0.00     0.000 C
ATOM     44  O5  IDS C   3      63.449 133.442 151.5020  0.00  0.00     0.000 O
ATOM     45   O  IDS C   3      62.539 133.324 154.9370  0.00  0.00     0.000 O
ATOM     47  HD  IDS C   3      61.825 133.740 154.6800  0.00  0.00     0.000 HD
BRANCH 40 47
ATOM     47   O  IDS C   3      65.806 133.715 153.3020  0.00  0.00     0.000 O
ATOM     48   S  IDS C   3      67.033 134.565 153.8750  0.00  0.00     0.000 S
ATOM     49   O  IDS C   3      67.098 135.763 153.0660  0.00  0.00     0.000 OA
ATOM     50   O  IDS C   3      68.194 133.719 153.7040  0.00  0.00     0.000 OA
ATOM     51   O  IDS C   3      66.730 134.839 155.2540  0.00  0.00     0.000 OA
ENDBRANCH 40 47
BRANCH 43 52
ATOM     52   C  IDS C   3      62.299 131.380 151.0580  0.00  0.00     0.000 C
ATOM     53   O  IDS C   3      62.565 131.577 149.8950  0.00  0.00     0.000 OA
ATOM     54   O  IDS C   3      61.743 130.364 151.3920  0.00  0.00     0.000 OA
ENDBRANCH 43 52
BRANCH 39 55
ATOM     55  O4  SGN C   4      62.661 135.425 152.3790  0.00  0.00     0.000 O
BRANCH 55 59
ATOM     56  C1  SGN C   4      62.266 138.039 149.1360  0.00  0.00     0.000 C
ATOM     57  C2  SGN C   4      63.439 138.305 150.0940  0.00  0.00     0.000 C
ATOM     58  C3  SGN C   4      63.705 137.088 150.9750  0.00  0.00     0.000 C
ATOM     59  C4  SGN C   4      62.419 136.619 151.6470  0.00  0.00     0.000 C
ATOM     60  C5  SGN C   4      61.367 136.366 150.5690  0.00  0.00     0.000 C
ATOM     61  O5  SGN C   4      61.132 137.602 149.8670  0.00  0.00     0.000 O
ATOM     62   O  SGN C   4      64.690 137.410 151.9480  0.00  0.00     0.000 O
ATOM     64  HD  SGN C   4      64.870 137.928 151.2780  0.00  0.00     0.000 HD
BRANCH 57 66
ATOM     64   N  SGN C   4      64.263 138.859 149.0080  0.00  0.00     0.000 N
ATOM     66  HD  SGN C   4      64.292 139.599 148.5590  0.00  0.00     0.000 HD
ATOM     66   S  SGN C   4      64.982 140.274 149.1750  0.00  0.00     0.000 S
ATOM     67   O  SGN C   4      65.643 140.562 147.9550  0.00  0.00     0.000 OA
ATOM     68   O  SGN C   4      64.006 141.181 149.6720  0.00  0.00     0.000 OA
ATOM     69   O  SGN C   4      66.044 140.021 150.2930  0.00  0.00     0.000 OA
ENDBRANCH 57 66
BRANCH 60 70
ATOM     70   C  SGN C   4      60.040 135.883 151.1130  0.00  0.00     0.000 C
ATOM     71   O  SGN C   4      58.997 132.321 151.6860  0.00  0.00     0.000 OA
ATOM     72   O  SGN C   4      59.755 133.918 153.3360  0.00  0.00     0.000 OA
ATOM     73   O  SGN C   4      59.935 134.451 150.9930  0.00  0.00     0.000 O
ATOM     74   S  SGN C   4      59.047 133.706 152.0940  0.00  0.00     0.000 S
ATOM     75   O  SGN C   4      57.759 134.370 152.0430  0.00  0.00     0.000 OA
ENDBRANCH 60 70
BRANCH 56 76
ATOM     76  O4  IDS C   5      62.137 137.585 147.8760  0.00  0.00     0.000 O
BRANCH 76 80
ATOM     77  C1  IDS C   5      61.894 133.567 147.2010  0.00  0.00     0.000 C
ATOM     78  C2  IDS C   5      63.292 134.157 147.0200  0.00  0.00     0.000 C
ATOM     79  C3  IDS C   5      63.372 135.509 147.7010  0.00  0.00     0.000 C
ATOM     80  C4  IDS C   5      62.442 136.492 146.9960  0.00  0.00     0.000 C
ATOM     81  C5  IDS C   5      61.156 135.765 146.5770  0.00  0.00     0.000 C
ATOM     82  O5  IDS C   5      60.942 134.612 147.3970  0.00  0.00     0.000 O
BRANCH 78 83
ATOM     83   O  IDS C   5      64.317 133.269 147.6170  0.00  0.00     0.000 O
ATOM     84   S  IDS C   5      65.536 132.753 146.7270  0.00  0.00     0.000 S
ATOM     85   O  IDS C   5      64.953 132.255 145.5100  0.00  0.00     0.000 OA
ATOM     86   O  IDS C   5      66.373 133.912 146.5230  0.00  0.00     0.000 OA
ATOM     87   O  IDS C   5      66.185 131.729 147.5090  0.00  0.00     0.000 OA
ENDBRANCH 78 83
BRANCH 81 88
ATOM     88   C  IDS C   5      59.908 136.624 146.6610  0.00  0.00     0.000 C
ATOM     89   O  IDS C   5      59.717 137.484 145.8430  0.00  0.00     0.000 OA
ATOM     90   O  IDS C   5      59.111 136.438 147.5520  0.00  0.00     0.000 OA
ENDBRANCH 81 88
ENDBRANCH 76 80
ENDBRANCH 56 76
ENDBRANCH 55 59
ENDBRANCH 39 55
ENDBRANCH 38 42
ENDBRANCH 18 38
ENDBRANCH 17 21
ENDBRANCH 1 17
TORSDOF 18
ENDMDL
MODEL 49
REMARK VINA RESULT:      -1.9    191.073    197.954
ROOT
ATOM      1  C1  IDS C   1      57.421 184.531  89.8780  0.00  0.00     0.000 C
ATOM      2  C2  IDS C   1      56.503 184.340  88.6680  0.00  0.00     0.000 C
ATOM      3  C3  IDS C   1      55.917 182.936  88.6500  0.00  0.00     0.000 C
ATOM      4  C4  IDS C   1      57.025 181.892  88.6100  0.00  0.00     0.000 C
ATOM      5  C5  IDS C   1      58.184 182.325  89.5020  0.00  0.00     0.000 C
ATOM      6  O5  IDS C   1      57.732 183.275  90.4670  0.00  0.00     0.000 O
ATOM      7   O  IDS C   1      55.058 182.782  87.5110  0.00  0.00     0.000 O
ATOM      9  HD  IDS C   1      54.644 183.532  87.3800  0.00  0.00     0.000 HD
ENDROOT
BRANCH 2 9
ATOM      9   O  IDS C   1      55.372 185.295  88.7080  0.00  0.00     0.000 O
ATOM     10   S  IDS C   1      55.093 186.232  87.4480  0.00  0.00     0.000 S
ATOM     11   O  IDS C   1      53.933 187.023  87.7930  0.00  0.00     0.000 OA
ATOM     12   O  IDS C   1      56.291 187.029  87.2820  0.00  0.00     0.000 OA
ATOM     13   O  IDS C   1      54.852 185.338  86.3370  0.00  0.00     0.000 OA
ENDBRANCH 2 9
BRANCH 5 14
ATOM     14   C  IDS C   1      58.809 181.152  90.2380  0.00  0.00     0.000 C
ATOM     15   O  IDS C   1      59.142 180.171  89.6180  0.00  0.00     0.000 OA
ATOM     16   O  IDS C   1      58.968 181.210  91.4460  0.00  0.00     0.000 OA
ENDBRANCH 5 14
BRANCH 1 17
ATOM     17  O4  SGN C   2      57.415 185.637  90.6280  0.00  0.00     0.000 O
BRANCH 17 21
ATOM     18  C1  SGN C   2      56.517 187.945  94.0030  0.00  0.00     0.000 C
ATOM     19  C2  SGN C   2      56.433 186.423  94.1700  0.00  0.00     0.000 C
ATOM     20  C3  SGN C   2      57.181 185.732  93.0230  0.00  0.00     0.000 C
ATOM     21  C4  SGN C   2      56.666 186.238  91.6810  0.00  0.00     0.000 C
ATOM     22  C5  SGN C   2      56.805 187.757  91.6340  0.00  0.00     0.000 C
ATOM     23  O5  SGN C   2      56.067 188.350  92.7270  0.00  0.00     0.000 O
ATOM     24   O  SGN C   2      57.031 184.326  93.1270  0.00  0.00     0.000 O
ATOM     26  HD  SGN C   2      57.450 185.072  92.9880  0.00  0.00     0.000 HD
BRANCH 19 28
ATOM     26   N  SGN C   2      56.515 186.284  95.6310  0.00  0.00     0.000 N
ATOM     28  HD  SGN C   2      56.115 187.044  95.5180  0.00  0.00     0.000 HD
ATOM     28   O  SGN C   2      56.516 184.806  97.6400  0.00  0.00     0.000 OA
ATOM     29   S  SGN C   2      55.601 185.245  96.4480  0.00  0.00     0.000 S
ATOM     30   O  SGN C   2      54.499 185.962  96.9640  0.00  0.00     0.000 OA
ATOM     31   O  SGN C   2      55.375 184.117  95.6110  0.00  0.00     0.000 OA
ENDBRANCH 19 28
BRANCH 22 32
ATOM     32   C  SGN C   2      56.268 188.368  90.3630  0.00  0.00     0.000 C
ATOM     33   S  SGN C   2      54.812 190.368  89.6390  0.00  0.00     0.000 S
ATOM     34   O  SGN C   2      53.592 189.712  90.0350  0.00  0.00     0.000 OA
ATOM     35   O  SGN C   2      54.830 191.787  89.9310  0.00  0.00     0.000 OA
ATOM     36   O  SGN C   2      55.243 190.052  88.2970  0.00  0.00     0.000 OA
ATOM     37   O  SGN C   2      55.925 189.740  90.5950  0.00  0.00     0.000 O
ENDBRANCH 22 32
BRANCH 18 38
ATOM     38  O4  IDS C   3      57.514 188.789  94.2780  0.00  0.00     0.000 O
BRANCH 38 42
ATOM     39  C1  IDS C   3      60.443 190.116  95.6150  0.00  0.00     0.000 C
ATOM     40  C2  IDS C   3      59.493 189.268  96.4760  0.00  0.00     0.000 C
ATOM     41  C3  IDS C   3      58.060 189.795  96.4000  0.00  0.00     0.000 C
ATOM     42  C4  IDS C   3      57.640 190.042  94.9580  0.00  0.00     0.000 C
ATOM     43  C5  IDS C   3      58.685 190.917  94.2550  0.00  0.00     0.000 C
ATOM     44  O5  IDS C   3      59.949 190.256  94.2940  0.00  0.00     0.000 O
ATOM     45   O  IDS C   3      57.963 191.010  97.1460  0.00  0.00     0.000 O
ATOM     47  HD  IDS C   3      58.379 191.770  97.1350  0.00  0.00     0.000 HD
BRANCH 40 47
ATOM     47   O  IDS C   3      59.476 187.863  96.0030  0.00  0.00     0.000 O
ATOM     48   S  IDS C   3      60.052 186.701  96.9380  0.00  0.00     0.000 S
ATOM     49   O  IDS C   3      61.493 186.793  96.8430  0.00  0.00     0.000 OA
ATOM     50   O  IDS C   3      59.537 185.471  96.3780  0.00  0.00     0.000 OA
ATOM     51   O  IDS C   3      59.563 186.967  98.2650  0.00  0.00     0.000 OA
ENDBRANCH 40 47
BRANCH 43 52
ATOM     52   C  IDS C   3      58.319 191.228  92.8200  0.00  0.00     0.000 C
ATOM     53   O  IDS C   3      58.943 190.723  91.9160  0.00  0.00     0.000 OA
ATOM     54   O  IDS C   3      57.406 191.979  92.5870  0.00  0.00     0.000 OA
ENDBRANCH 43 52
BRANCH 39 55
ATOM     55  O4  SGN C   4      61.092 191.188  96.0690  0.00  0.00     0.000 O
BRANCH 55 59
ATOM     56  C1  SGN C   4      64.875 192.096  94.5290  0.00  0.00     0.000 C
ATOM     57  C2  SGN C   4      64.782 190.863  95.4440  0.00  0.00     0.000 C
ATOM     58  C3  SGN C   4      63.332 190.418  95.6080  0.00  0.00     0.000 C
ATOM     59  C4  SGN C   4      62.453 191.593  96.0220  0.00  0.00     0.000 C
ATOM     60  C5  SGN C   4      62.627 192.718  95.0040  0.00  0.00     0.000 C
ATOM     61  O5  SGN C   4      64.012 193.117  95.0040  0.00  0.00     0.000 O
ATOM     62   O  SGN C   4      63.260 189.375  96.5710  0.00  0.00     0.000 O
ATOM     64  HD  SGN C   4      64.053 189.301  96.2310  0.00  0.00     0.000 HD
BRANCH 57 66
ATOM     64   N  SGN C   4      66.176 190.746  94.9860  0.00  0.00     0.000 N
ATOM     66  HD  SGN C   4      66.956 190.697  95.3610  0.00  0.00     0.000 HD
ATOM     66   S  SGN C   4      67.114 189.576  95.5330  0.00  0.00     0.000 S
ATOM     67   O  SGN C   4      68.400 189.761  94.9650  0.00  0.00     0.000 OA
ATOM     68   O  SGN C   4      66.972 189.556  96.9480  0.00  0.00     0.000 OA
ATOM     69   O  SGN C   4      66.470 188.279  94.9470  0.00  0.00     0.000 OA
ENDBRANCH 57 66
BRANCH 60 70
ATOM     70   C  SGN C   4      61.793 193.945  95.3020  0.00  0.00     0.000 C
ATOM     71   O  SGN C   4      58.353 194.704  93.9990  0.00  0.00     0.000 OA
ATOM     72   O  SGN C   4      58.948 193.862  96.1870  0.00  0.00     0.000 OA
ATOM     73   O  SGN C   4      60.624 193.977  94.4600  0.00  0.00     0.000 O
ATOM     74   S  SGN C   4      59.328 194.691  95.0650  0.00  0.00     0.000 S
ATOM     75   O  SGN C   4      59.779 196.013  95.4510  0.00  0.00     0.000 OA
ENDBRANCH 60 70
BRANCH 56 76
ATOM     76  O4  IDS C   5      65.068 192.306  93.2140  0.00  0.00     0.000 O
BRANCH 76 80
ATOM     77  C1  IDS C   5      61.877 192.107  90.6770  0.00  0.00     0.000 C
ATOM     78  C2  IDS C   5      62.715 190.830  90.7430  0.00  0.00     0.000 C
ATOM     79  C3  IDS C   5      63.573 190.843  91.9930  0.00  0.00     0.000 C
ATOM     80  C4  IDS C   5      64.595 191.972  91.9000  0.00  0.00     0.000 C
ATOM     81  C5  IDS C   5      63.943 193.195  91.2390  0.00  0.00     0.000 C
ATOM     82  O5  IDS C   5      62.522 193.155  91.4000  0.00  0.00     0.000 O
BRANCH 78 83
ATOM     83   O  IDS C   5      61.844 189.633  90.7850  0.00  0.00     0.000 O
ATOM     84   S  IDS C   5      61.932 188.547  89.6200  0.00  0.00     0.000 S
ATOM     85   O  IDS C   5      61.873 189.284  88.3870  0.00  0.00     0.000 OA
ATOM     86   O  IDS C   5      63.196 187.878  89.8220  0.00  0.00     0.000 OA
ATOM     87   O  IDS C   5      60.803 187.671  89.8160  0.00  0.00     0.000 OA
ENDBRANCH 78 83
BRANCH 81 88
ATOM     88   C  IDS C   5      64.429 194.524  91.7880  0.00  0.00     0.000 C
ATOM     89   O  IDS C   5      63.704 195.186  92.4810  0.00  0.00     0.000 OA
ATOM     90   O  IDS C   5      65.545 194.909  91.5230  0.00  0.00     0.000 OA
ENDBRANCH 81 88
ENDBRANCH 76 80
ENDBRANCH 56 76
ENDBRANCH 55 59
ENDBRANCH 39 55
ENDBRANCH 38 42
ENDBRANCH 18 38
ENDBRANCH 17 21
ENDBRANCH 1 17
TORSDOF 18
ENDMDL
MODEL 50
REMARK VINA RESULT:      -1.9    118.271    124.713
ROOT
ATOM      1  C1  IDS C   1     123.058   9.418 175.9270  0.00  0.00     0.000 C
ATOM      2  C2  IDS C   1     121.723   9.655 176.6370  0.00  0.00     0.000 C
ATOM      3  C3  IDS C   1     120.717   8.573 176.2730  0.00  0.00     0.000 C
ATOM      4  C4  IDS C   1     120.487   8.538 174.7680  0.00  0.00     0.000 C
ATOM      5  C5  IDS C   1     121.803   8.766 174.0320  0.00  0.00     0.000 C
ATOM      6  O5  IDS C   1     122.904   8.460 174.8880  0.00  0.00     0.000 O
ATOM      7   O  IDS C   1     119.477   8.814 176.9530  0.00  0.00     0.000 O
ATOM      9  HD  IDS C   1     119.655   9.130 177.7390  0.00  0.00     0.000 HD
ENDROOT
BRANCH 2 9
ATOM      9   O  IDS C   1     121.895   9.627 178.1070  0.00  0.00     0.000 O
ATOM     10   S  IDS C   1     121.378  10.858 178.9800  0.00  0.00     0.000 S
ATOM     11   O  IDS C   1     121.677  10.522 180.3550  0.00  0.00     0.000 OA
ATOM     12   O  IDS C   1     122.119  12.009 178.5070  0.00  0.00     0.000 OA
ATOM     13   O  IDS C   1     119.958  10.956 178.7230  0.00  0.00     0.000 OA
ENDBRANCH 2 9
BRANCH 5 14
ATOM     14   C  IDS C   1     121.915   7.913 172.7800  0.00  0.00     0.000 C
ATOM     15   O  IDS C   1     122.877   7.199 172.6320  0.00  0.00     0.000 OA
ATOM     16   O  IDS C   1     121.036   7.958 171.9360  0.00  0.00     0.000 OA
ENDBRANCH 5 14
BRANCH 1 17
ATOM     17  O4  SGN C   2     124.240   9.558 176.5350  0.00  0.00     0.000 O
BRANCH 17 21
ATOM     18  C1  SGN C   2     127.757   8.233 178.3790  0.00  0.00     0.000 C
ATOM     19  C2  SGN C   2     126.998   7.206 177.5290  0.00  0.00     0.000 C
ATOM     20  C3  SGN C   2     126.010   7.927 176.6040  0.00  0.00     0.000 C
ATOM     21  C4  SGN C   2     125.107   8.848 177.4150  0.00  0.00     0.000 C
ATOM     22  C5  SGN C   2     125.973   9.821 178.2100  0.00  0.00     0.000 C
ATOM     23  O5  SGN C   2     126.869   9.085 179.0730  0.00  0.00     0.000 O
ATOM     24   O  SGN C   2     125.247   6.976 175.8800  0.00  0.00     0.000 O
ATOM     26  HD  SGN C   2     125.707   7.700 175.9980  0.00  0.00     0.000 HD
BRANCH 19 28
ATOM     26   N  SGN C   2     128.045   6.208 177.2740  0.00  0.00     0.000 N
ATOM     28  HD  SGN C   2     128.248   6.523 178.0550  0.00  0.00     0.000 HD
ATOM     28   O  SGN C   2     128.724   4.038 176.2470  0.00  0.00     0.000 OA
ATOM     29   S  SGN C   2     127.756   4.627 177.3280  0.00  0.00     0.000 S
ATOM     30   O  SGN C   2     128.162   4.163 178.5990  0.00  0.00     0.000 OA
ATOM     31   O  SGN C   2     126.417   4.418 176.8990  0.00  0.00     0.000 OA
ENDBRANCH 19 28
BRANCH 22 32
ATOM     32   C  SGN C   2     125.175  10.745 179.0970  0.00  0.00     0.000 C
ATOM     33   S  SGN C   2     125.248  11.663 181.5040  0.00  0.00     0.000 S
ATOM     34   O  SGN C   2     124.752  10.430 182.0630  0.00  0.00     0.000 OA
ATOM     35   O  SGN C   2     126.270  12.297 182.3110  0.00  0.00     0.000 OA
ATOM     36   O  SGN C   2     124.213  12.571 181.0700  0.00  0.00     0.000 OA
ATOM     37   O  SGN C   2     126.000  11.216 180.1690  0.00  0.00     0.000 O
ENDBRANCH 22 32
BRANCH 18 38
ATOM     38  O4  IDS C   3     128.784   9.024 178.0620  0.00  0.00     0.000 O
BRANCH 38 42
ATOM     39  C1  IDS C   3     131.553  10.337 176.4080  0.00  0.00     0.000 C
ATOM     40  C2  IDS C   3     131.391   8.820 176.6010  0.00  0.00     0.000 C
ATOM     41  C3  IDS C   3     131.132   8.475 178.0670  0.00  0.00     0.000 C
ATOM     42  C4  IDS C   3     130.042   9.359 178.6570  0.00  0.00     0.000 C
ATOM     43  C5  IDS C   3     130.370  10.834 178.3920  0.00  0.00     0.000 C
ATOM     44  O5  IDS C   3     130.468  11.044 176.9850  0.00  0.00     0.000 O
ATOM     45   O  IDS C   3     132.340   8.636 178.8120  0.00  0.00     0.000 O
ATOM     47  HD  IDS C   3     132.904   9.283 178.9320  0.00  0.00     0.000 HD
BRANCH 40 47
ATOM     47   O  IDS C   3     130.241   8.315 175.8150  0.00  0.00     0.000 O
ATOM     48   S  IDS C   3     130.490   7.313 174.5930  0.00  0.00     0.000 S
ATOM     49   O  IDS C   3     130.972   8.131 173.5010  0.00  0.00     0.000 OA
ATOM     50   O  IDS C   3     129.199   6.723 174.3160  0.00  0.00     0.000 OA
ATOM     51   O  IDS C   3     131.465   6.356 175.0450  0.00  0.00     0.000 OA
ENDBRANCH 40 47
BRANCH 43 52
ATOM     52   C  IDS C   3     129.342  11.777 178.9760  0.00  0.00     0.000 C
ATOM     53   O  IDS C   3     129.266  11.918 180.1750  0.00  0.00     0.000 OA
ATOM     54   O  IDS C   3     128.603  12.383 178.2430  0.00  0.00     0.000 OA
ENDBRANCH 43 52
BRANCH 39 55
ATOM     55  O4  SGN C   4     132.722  10.972 176.4930  0.00  0.00     0.000 O
BRANCH 55 59
ATOM     56  C1  SGN C   4     133.393  14.350 174.1180  0.00  0.00     0.000 C
ATOM     57  C2  SGN C   4     133.355  12.995 173.3900  0.00  0.00     0.000 C
ATOM     58  C3  SGN C   4     132.723  11.923 174.2750  0.00  0.00     0.000 C
ATOM     59  C4  SGN C   4     133.387  11.899 175.6470  0.00  0.00     0.000 C
ATOM     60  C5  SGN C   4     133.316  13.300 176.2520  0.00  0.00     0.000 C
ATOM     61  O5  SGN C   4     134.022  14.205 175.3800  0.00  0.00     0.000 O
ATOM     62   O  SGN C   4     132.835  10.656 173.6410  0.00  0.00     0.000 O
ATOM     64  HD  SGN C   4     132.814  11.225 172.9880  0.00  0.00     0.000 HD
BRANCH 57 66
ATOM     64   N  SGN C   4     133.432  13.908 172.2390  0.00  0.00     0.000 N
ATOM     66  HD  SGN C   4     133.958  14.013 171.5580  0.00  0.00     0.000 HD
ATOM     66   S  SGN C   4     133.511  13.334 170.7520  0.00  0.00     0.000 S
ATOM     67   O  SGN C   4     133.637  14.440 169.8750  0.00  0.00     0.000 OA
ATOM     68   O  SGN C   4     134.510  12.322 170.7490  0.00  0.00     0.000 OA
ATOM     69   O  SGN C   4     132.117  12.661 170.5400  0.00  0.00     0.000 OA
ENDBRANCH 57 66
BRANCH 60 70
ATOM     70   C  SGN C   4     133.939  13.403 177.6270  0.00  0.00     0.000 C
ATOM     71   O  SGN C   4     132.190  13.015 180.9290  0.00  0.00     0.000 OA
ATOM     72   O  SGN C   4     133.567  11.386 179.7900  0.00  0.00     0.000 OA
ATOM     73   O  SGN C   4     132.918  13.404 178.6440  0.00  0.00     0.000 O
ATOM     74   S  SGN C   4     133.322  12.784 180.0620  0.00  0.00     0.000 S
ATOM     75   O  SGN C   4     134.512  13.511 180.4580  0.00  0.00     0.000 OA
ENDBRANCH 60 70
BRANCH 56 76
ATOM     76  O4  IDS C   5     132.591  15.429 174.1840  0.00  0.00     0.000 O
BRANCH 76 80
ATOM     77  C1  IDS C   5     129.465  15.425 176.8080  0.00  0.00     0.000 C
ATOM     78  C2  IDS C   5     129.089  15.056 175.3730  0.00  0.00     0.000 C
ATOM     79  C3  IDS C   5     130.333  14.660 174.6020  0.00  0.00     0.000 C
ATOM     80  C4  IDS C   5     131.253  15.869 174.4620  0.00  0.00     0.000 C
ATOM     81  C5  IDS C   5     131.217  16.689 175.7600  0.00  0.00     0.000 C
ATOM     82  O5  IDS C   5     130.821  15.867 176.8620  0.00  0.00     0.000 O
BRANCH 78 83
ATOM     83   O  IDS C   5     128.145  13.914 175.3560  0.00  0.00     0.000 O
ATOM     84   S  IDS C   5     126.692  14.097 174.7230  0.00  0.00     0.000 S
ATOM     85   O  IDS C   5     126.159  15.303 175.2970  0.00  0.00     0.000 OA
ATOM     86   O  IDS C   5     126.910  14.194 173.2980  0.00  0.00     0.000 OA
ATOM     87   O  IDS C   5     125.953  12.914 175.0930  0.00  0.00     0.000 OA
ENDBRANCH 78 83
BRANCH 81 88
ATOM     88   C  IDS C   5     132.544  17.330 176.1210  0.00  0.00     0.000 C
ATOM     89   O  IDS C   5     133.185  16.902 177.0430  0.00  0.00     0.000 OA
ATOM     90   O  IDS C   5     132.950  18.269 175.4760  0.00  0.00     0.000 OA
ENDBRANCH 81 88
ENDBRANCH 76 80
ENDBRANCH 56 76
ENDBRANCH 55 59
ENDBRANCH 39 55
ENDBRANCH 38 42
ENDBRANCH 18 38
ENDBRANCH 17 21
ENDBRANCH 1 17
TORSDOF 18
ENDMDL
MODEL 51
REMARK VINA RESULT:      -1.9    166.703    173.055
ROOT
ATOM      1  C1  IDS C   1      67.011 125.923 153.4850  0.00  0.00     0.000 C
ATOM      2  C2  IDS C   1      67.407 124.457 153.2890  0.00  0.00     0.000 C
ATOM      3  C3  IDS C   1      68.602 124.099 154.1600  0.00  0.00     0.000 C
ATOM      4  C4  IDS C   1      69.793 124.989 153.8300  0.00  0.00     0.000 C
ATOM      5  C5  IDS C   1      69.322 126.416 153.5670  0.00  0.00     0.000 C
ATOM      6  O5  IDS C   1      68.042 126.629 154.1630  0.00  0.00     0.000 O
ATOM      7   O  IDS C   1      68.951 122.722 153.9630  0.00  0.00     0.000 O
ATOM      9  HD  IDS C   1      68.221 122.269 153.8520  0.00  0.00     0.000 HD
ENDROOT
BRANCH 2 9
ATOM      9   O  IDS C   1      66.295 123.556 153.6660  0.00  0.00     0.000 O
ATOM     10   S  IDS C   1      65.784 122.463 152.6230  0.00  0.00     0.000 S
ATOM     11   O  IDS C   1      64.718 121.748 153.2890  0.00  0.00     0.000 OA
ATOM     12   O  IDS C   1      65.327 123.209 151.4690  0.00  0.00     0.000 OA
ATOM     13   O  IDS C   1      66.928 121.626 152.3370  0.00  0.00     0.000 OA
ENDBRANCH 2 9
BRANCH 5 14
ATOM     14   C  IDS C   1      70.288 127.450 154.1210  0.00  0.00     0.000 C
ATOM     15   O  IDS C   1      70.547 128.431 153.4670  0.00  0.00     0.000 OA
ATOM     16   O  IDS C   1      70.796 127.279 155.2160  0.00  0.00     0.000 OA
ENDBRANCH 5 14
BRANCH 1 17
ATOM     17  O4  SGN C   2      65.742 126.325 153.5980  0.00  0.00     0.000 O
BRANCH 17 21
ATOM     18  C1  SGN C   2      62.332 127.650 155.6340  0.00  0.00     0.000 C
ATOM     19  C2  SGN C   2      63.671 127.800 156.3660  0.00  0.00     0.000 C
ATOM     20  C3  SGN C   2      64.827 127.681 155.3660  0.00  0.00     0.000 C
ATOM     21  C4  SGN C   2      64.699 126.389 154.5670  0.00  0.00     0.000 C
ATOM     22  C5  SGN C   2      63.335 126.359 153.8840  0.00  0.00     0.000 C
ATOM     23  O5  SGN C   2      62.289 126.458 154.8780  0.00  0.00     0.000 O
ATOM     24   O  SGN C   2      66.067 127.732 156.0520  0.00  0.00     0.000 O
ATOM     26  HD  SGN C   2      65.501 127.910 155.4200  0.00  0.00     0.000 HD
BRANCH 19 28
ATOM     26   N  SGN C   2      63.339 128.812 157.3790  0.00  0.00     0.000 N
ATOM     28  HD  SGN C   2      62.596 128.379 157.2680  0.00  0.00     0.000 HD
ATOM     28   O  SGN C   2      64.052 130.210 159.3180  0.00  0.00     0.000 OA
ATOM     29   S  SGN C   2      63.863 128.713 158.8960  0.00  0.00     0.000 S
ATOM     30   O  SGN C   2      62.823 128.153 159.6700  0.00  0.00     0.000 OA
ATOM     31   O  SGN C   2      65.138 128.085 158.8720  0.00  0.00     0.000 OA
ENDBRANCH 19 28
BRANCH 22 32
ATOM     32   C  SGN C   2      63.081 125.088 153.1100  0.00  0.00     0.000 C
ATOM     33   S  SGN C   2      61.186 123.377 152.7610  0.00  0.00     0.000 S
ATOM     34   O  SGN C   2      61.426 122.748 154.0350  0.00  0.00     0.000 OA
ATOM     35   O  SGN C   2      59.782 123.482 152.4210  0.00  0.00     0.000 OA
ATOM     36   O  SGN C   2      62.001 122.861 151.6870  0.00  0.00     0.000 OA
ATOM     37   O  SGN C   2      61.670 124.884 152.9690  0.00  0.00     0.000 O
ENDBRANCH 22 32
BRANCH 18 38
ATOM     38  O4  IDS C   3      61.652 128.528 154.8940  0.00  0.00     0.000 O
BRANCH 38 42
ATOM     39  C1  IDS C   3      60.545 131.530 153.5190  0.00  0.00     0.000 C
ATOM     40  C2  IDS C   3      60.869 131.417 155.0180  0.00  0.00     0.000 C
ATOM     41  C3  IDS C   3      60.132 130.239 155.6550  0.00  0.00     0.000 C
ATOM     42  C4  IDS C   3      60.293 128.974 154.8230  0.00  0.00     0.000 C
ATOM     43  C5  IDS C   3      59.911 129.259 153.3650  0.00  0.00     0.000 C
ATOM     44  O5  IDS C   3      60.751 130.294 152.8570  0.00  0.00     0.000 O
ATOM     45   O  IDS C   3      58.746 130.560 155.7810  0.00  0.00     0.000 O
ATOM     47  HD  IDS C   3      58.125 130.818 155.2350  0.00  0.00     0.000 HD
BRANCH 40 47
ATOM     47   O  IDS C   3      62.320 131.197 155.2210  0.00  0.00     0.000 O
ATOM     48   S  IDS C   3      63.202 132.319 155.9430  0.00  0.00     0.000 S
ATOM     49   O  IDS C   3      63.423 133.349 154.9510  0.00  0.00     0.000 OA
ATOM     50   O  IDS C   3      64.425 131.652 156.3290  0.00  0.00     0.000 OA
ATOM     51   O  IDS C   3      62.431 132.783 157.0650  0.00  0.00     0.000 OA
ENDBRANCH 40 47
BRANCH 43 52
ATOM     52   C  IDS C   3      60.020 128.036 152.4820  0.00  0.00     0.000 C
ATOM     53   O  IDS C   3      59.224 127.133 152.6010  0.00  0.00     0.000 OA
ATOM     54   O  IDS C   3      60.900 127.968 151.6620  0.00  0.00     0.000 OA
ENDBRANCH 43 52
BRANCH 39 55
ATOM     55  O4  SGN C   4      59.527 132.242 153.0350  0.00  0.00     0.000 O
BRANCH 55 59
ATOM     56  C1  SGN C   4      59.906 134.071 149.2910  0.00  0.00     0.000 C
ATOM     57  C2  SGN C   4      60.735 134.674 150.4380  0.00  0.00     0.000 C
ATOM     58  C3  SGN C   4      60.818 133.705 151.6140  0.00  0.00     0.000 C
ATOM     59  C4  SGN C   4      59.427 133.221 152.0110  0.00  0.00     0.000 C
ATOM     60  C5  SGN C   4      58.747 132.622 150.7820  0.00  0.00     0.000 C
ATOM     61  O5  SGN C   4      58.642 133.649 149.7760  0.00  0.00     0.000 O
ATOM     62   O  SGN C   4      61.459 134.342 152.7110  0.00  0.00     0.000 O
ATOM     64  HD  SGN C   4      61.788 134.732 152.0110  0.00  0.00     0.000 HD
BRANCH 57 66
ATOM     64   N  SGN C   4      61.252 135.455 149.3020  0.00  0.00     0.000 N
ATOM     66  HD  SGN C   4      61.325 136.294 149.1020  0.00  0.00     0.000 HD
ATOM     66   S  SGN C   4      62.343 136.597 149.5320  0.00  0.00     0.000 S
ATOM     67   O  SGN C   4      62.593 137.204 148.2750  0.00  0.00     0.000 OA
ATOM     68   O  SGN C   4      61.886 137.396 150.6160  0.00  0.00     0.000 OA
ATOM     69   O  SGN C   4      63.612 135.810 149.9900  0.00  0.00     0.000 OA
ENDBRANCH 57 66
BRANCH 60 70
ATOM     70   C  SGN C   4      57.355 132.094 151.0510  0.00  0.00     0.000 C
ATOM     71   O  SGN C   4      56.418 128.580 151.9920  0.00  0.00     0.000 OA
ATOM     72   O  SGN C   4      56.604 130.498 153.4530  0.00  0.00     0.000 OA
ATOM     73   O  SGN C   4      57.375 130.659 151.1760  0.00  0.00     0.000 O
ATOM     74   S  SGN C   4      56.270 130.011 152.1340  0.00  0.00     0.000 S
ATOM     75   O  SGN C   4      55.006 130.514 151.6360  0.00  0.00     0.000 OA
ENDBRANCH 60 70
BRANCH 56 76
ATOM     76  O4  IDS C   5      60.175 133.357 148.1820  0.00  0.00     0.000 O
BRANCH 76 80
ATOM     77  C1  IDS C   5      60.579 129.306 148.4730  0.00  0.00     0.000 C
ATOM     78  C2  IDS C   5      61.899 130.077 148.4710  0.00  0.00     0.000 C
ATOM     79  C3  IDS C   5      61.644 131.534 148.8020  0.00  0.00     0.000 C
ATOM     80  C4  IDS C   5      60.820 132.174 147.6880  0.00  0.00     0.000 C
ATOM     81  C5  IDS C   5      59.778 131.165 147.1830  0.00  0.00     0.000 C
ATOM     82  O5  IDS C   5      59.494 130.189 148.1890  0.00  0.00     0.000 O
BRANCH 78 83
ATOM     83   O  IDS C   5      62.831 129.523 149.4820  0.00  0.00     0.000 O
ATOM     84   S  IDS C   5      64.236 128.926 149.0210  0.00  0.00     0.000 S
ATOM     85   O  IDS C   5      63.949 128.038 147.9260  0.00  0.00     0.000 OA
ATOM     86   O  IDS C   5      65.025 130.071 148.6320  0.00  0.00     0.000 OA
ATOM     87   O  IDS C   5      64.771 128.249 150.1780  0.00  0.00     0.000 OA
ENDBRANCH 78 83
BRANCH 81 88
ATOM     88   C  IDS C   5      58.460 131.796 146.7720  0.00  0.00     0.000 C
ATOM     89   O  IDS C   5      58.396 132.445 145.7620  0.00  0.00     0.000 OA
ATOM     90   O  IDS C   5      57.480 131.639 147.4640  0.00  0.00     0.000 OA
ENDBRANCH 81 88
ENDBRANCH 76 80
ENDBRANCH 56 76
ENDBRANCH 55 59
ENDBRANCH 39 55
ENDBRANCH 38 42
ENDBRANCH 18 38
ENDBRANCH 17 21
ENDBRANCH 1 17
TORSDOF 18
ENDMDL
MODEL 52
REMARK VINA RESULT:      -1.9    136.585    143.146
ROOT
ATOM      1  C1  IDS C   1     137.121 144.184 109.1440  0.00  0.00     0.000 C
ATOM      2  C2  IDS C   1     136.948 143.285 107.9160  0.00  0.00     0.000 C
ATOM      3  C3  IDS C   1     135.777 142.332 108.1040  0.00  0.00     0.000 C
ATOM      4  C4  IDS C   1     135.985 141.463 109.3370  0.00  0.00     0.000 C
ATOM      5  C5  IDS C   1     136.606 142.288 110.4600  0.00  0.00     0.000 C
ATOM      6  O5  IDS C   1     136.368 143.678 110.2380  0.00  0.00     0.000 O
ATOM      7   O  IDS C   1     135.632 141.505 106.9410  0.00  0.00     0.000 O
ATOM      9  HD  IDS C   1     135.822 141.982 106.2430  0.00  0.00     0.000 HD
ENDROOT
BRANCH 2 9
ATOM      9   O  IDS C   1     136.675 144.093 106.7060  0.00  0.00     0.000 O
ATOM     10   S  IDS C   1     137.585 143.896 105.4110  0.00  0.00     0.000 S
ATOM     11   O  IDS C   1     137.060 144.806 104.4160  0.00  0.00     0.000 OA
ATOM     12   O  IDS C   1     138.932 144.230 105.8260  0.00  0.00     0.000 OA
ATOM     13   O  IDS C   1     137.439 142.508 105.0330  0.00  0.00     0.000 OA
ENDBRANCH 2 9
BRANCH 5 14
ATOM     14   C  IDS C   1     136.047 141.915 111.8220  0.00  0.00     0.000 C
ATOM     15   O  IDS C   1     136.546 141.006 112.4400  0.00  0.00     0.000 OA
ATOM     16   O  IDS C   1     135.100 142.533 112.2780  0.00  0.00     0.000 OA
ENDBRANCH 5 14
BRANCH 1 17
ATOM     17  O4  SGN C   2     137.376 145.492 109.0580  0.00  0.00     0.000 O
BRANCH 17 21
ATOM     18  C1  SGN C   2     136.456 149.573 109.2130  0.00  0.00     0.000 C
ATOM     19  C2  SGN C   2     135.484 148.623 109.9220  0.00  0.00     0.000 C
ATOM     20  C3  SGN C   2     136.156 147.262 110.1430  0.00  0.00     0.000 C
ATOM     21  C4  SGN C   2     136.698 146.724 108.8240  0.00  0.00     0.000 C
ATOM     22  C5  SGN C   2     137.652 147.751 108.2210  0.00  0.00     0.000 C
ATOM     23  O5  SGN C   2     136.958 149.004 108.0220  0.00  0.00     0.000 O
ATOM     24   O  SGN C   2     135.231 146.355 110.7200  0.00  0.00     0.000 O
ATOM     26  HD  SGN C   2     135.996 146.747 110.6110  0.00  0.00     0.000 HD
BRANCH 19 28
ATOM     26   N  SGN C   2     134.786 149.543 110.8310  0.00  0.00     0.000 N
ATOM     28  HD  SGN C   2     134.974 150.035 110.1430  0.00  0.00     0.000 HD
ATOM     28   O  SGN C   2     133.045 149.909 112.5790  0.00  0.00     0.000 OA
ATOM     29   S  SGN C   2     133.201 149.459 111.0870  0.00  0.00     0.000 S
ATOM     30   O  SGN C   2     132.584 150.423 110.2580  0.00  0.00     0.000 OA
ATOM     31   O  SGN C   2     132.818 148.094 110.9820  0.00  0.00     0.000 OA
ENDBRANCH 19 28
BRANCH 22 32
ATOM     32   C  SGN C   2     138.203 147.340 106.8780  0.00  0.00     0.000 C
ATOM     33   S  SGN C   2     138.751 148.409 104.5980  0.00  0.00     0.000 S
ATOM     34   O  SGN C   2     137.365 148.444 104.2040  0.00  0.00     0.000 OA
ATOM     35   O  SGN C   2     139.501 149.577 104.1860  0.00  0.00     0.000 OA
ATOM     36   O  SGN C   2     139.417 147.163 104.3000  0.00  0.00     0.000 OA
ATOM     37   O  SGN C   2     138.709 148.491 106.1920  0.00  0.00     0.000 O
ENDBRANCH 22 32
BRANCH 18 38
ATOM     38  O4  IDS C   3     137.486 150.272 109.6970  0.00  0.00     0.000 O
BRANCH 38 42
ATOM     39  C1  IDS C   3     139.609 151.867 111.9500  0.00  0.00     0.000 C
ATOM     40  C2  IDS C   3     138.082 151.936 112.1160  0.00  0.00     0.000 C
ATOM     41  C3  IDS C   3     137.406 152.401 110.8270  0.00  0.00     0.000 C
ATOM     42  C4  IDS C   3     137.929 151.631 109.6220  0.00  0.00     0.000 C
ATOM     43  C5  IDS C   3     139.462 151.681 109.5990  0.00  0.00     0.000 C
ATOM     44  O5  IDS C   3     139.966 151.111 110.8050  0.00  0.00     0.000 O
ATOM     45   O  IDS C   3     137.643 153.798 110.6460  0.00  0.00     0.000 O
ATOM     47  HD  IDS C   3     138.348 154.300 110.6080  0.00  0.00     0.000 HD
BRANCH 40 47
ATOM     47   O  IDS C   3     137.535 150.599 112.4480  0.00  0.00     0.000 O
ATOM     48   S  IDS C   3     136.854 150.350 113.8740  0.00  0.00     0.000 S
ATOM     49   O  IDS C   3     137.944 150.218 114.8160  0.00  0.00     0.000 OA
ATOM     50   O  IDS C   3     136.100 149.124 113.7260  0.00  0.00     0.000 OA
ATOM     51   O  IDS C   3     136.026 151.496 114.1350  0.00  0.00     0.000 OA
ENDBRANCH 40 47
BRANCH 43 52
ATOM     52   C  IDS C   3     140.054 150.958 108.4090  0.00  0.00     0.000 C
ATOM     53   O  IDS C   3     139.913 151.411 107.2970  0.00  0.00     0.000 OA
ATOM     54   O  IDS C   3     140.664 149.933 108.5770  0.00  0.00     0.000 OA
ENDBRANCH 43 52
BRANCH 39 55
ATOM     55  O4  SGN C   4     140.425 152.891 112.2000  0.00  0.00     0.000 O
BRANCH 55 59
ATOM     56  C1  SGN C   4     144.260 152.129 113.6910  0.00  0.00     0.000 C
ATOM     57  C2  SGN C   4     143.087 151.889 114.6560  0.00  0.00     0.000 C
ATOM     58  C3  SGN C   4     141.765 151.817 113.8950  0.00  0.00     0.000 C
ATOM     59  C4  SGN C   4     141.607 153.024 112.9780  0.00  0.00     0.000 C
ATOM     60  C5  SGN C   4     142.826 153.108 112.0620  0.00  0.00     0.000 C
ATOM     61  O5  SGN C   4     143.999 153.267 112.8850  0.00  0.00     0.000 O
ATOM     62   O  SGN C   4     140.688 151.744 114.8190  0.00  0.00     0.000 O
ATOM     64  HD  SGN C   4     141.355 151.383 115.2360  0.00  0.00     0.000 HD
BRANCH 57 66
ATOM     64   N  SGN C   4     143.798 150.804 115.3510  0.00  0.00     0.000 N
ATOM     66  HD  SGN C   4     144.452 150.746 115.9150  0.00  0.00     0.000 HD
ATOM     66   S  SGN C   4     143.946 150.818 116.9400  0.00  0.00     0.000 S
ATOM     67   O  SGN C   4     144.723 149.690 117.3040  0.00  0.00     0.000 OA
ATOM     68   O  SGN C   4     144.390 152.120 117.3050  0.00  0.00     0.000 OA
ATOM     69   O  SGN C   4     142.482 150.627 117.4510  0.00  0.00     0.000 OA
ENDBRANCH 57 66
BRANCH 60 70
ATOM     70   C  SGN C   4     142.782 154.268 111.0910  0.00  0.00     0.000 C
ATOM     71   O  SGN C   4     141.445 154.222 107.5820  0.00  0.00     0.000 OA
ATOM     72   O  SGN C   4     140.357 155.081 109.5630  0.00  0.00     0.000 OA
ATOM     73   O  SGN C   4     142.394 153.814 109.7800  0.00  0.00     0.000 O
ATOM     74   S  SGN C   4     141.604 154.862 108.8670  0.00  0.00     0.000 S
ATOM     75   O  SGN C   4     142.456 156.034 108.8270  0.00  0.00     0.000 OA
ENDBRANCH 60 70
BRANCH 56 76
ATOM     76  O4  IDS C   5     145.133 151.351 113.0250  0.00  0.00     0.000 O
BRANCH 76 80
ATOM     77  C1  IDS C   5     144.045 149.787 109.4160  0.00  0.00     0.000 C
ATOM     78  C2  IDS C   5     143.879 148.831 110.5970  0.00  0.00     0.000 C
ATOM     79  C3  IDS C   5     143.879 149.614 111.8950  0.00  0.00     0.000 C
ATOM     80  C4  IDS C   5     145.248 150.255 112.1050  0.00  0.00     0.000 C
ATOM     81  C5  IDS C   5     145.793 150.742 110.7550  0.00  0.00     0.000 C
ATOM     82  O5  IDS C   5     144.723 150.971 109.8340  0.00  0.00     0.000 O
BRANCH 78 83
ATOM     83   O  IDS C   5     142.599 148.091 110.4960  0.00  0.00     0.000 O
ATOM     84   S  IDS C   5     142.602 146.496 110.5220  0.00  0.00     0.000 S
ATOM     85   O  IDS C   5     143.603 146.086 109.5750  0.00  0.00     0.000 OA
ATOM     86   O  IDS C   5     142.929 146.140 111.8830  0.00  0.00     0.000 OA
ATOM     87   O  IDS C   5     141.267 146.097 110.1490  0.00  0.00     0.000 OA
ENDBRANCH 78 83
BRANCH 81 88
ATOM     88   C  IDS C   5     146.602 152.024 110.8450  0.00  0.00     0.000 C
ATOM     89   O  IDS C   5     146.144 153.051 110.4220  0.00  0.00     0.000 OA
ATOM     90   O  IDS C   5     147.704 152.003 111.3440  0.00  0.00     0.000 OA
ENDBRANCH 81 88
ENDBRANCH 76 80
ENDBRANCH 56 76
ENDBRANCH 55 59
ENDBRANCH 39 55
ENDBRANCH 38 42
ENDBRANCH 18 38
ENDBRANCH 17 21
ENDBRANCH 1 17
TORSDOF 18
ENDMDL
MODEL 53
REMARK VINA RESULT:      -1.9    108.531    112.752
ROOT
ATOM      1  C1  IDS C   1     111.356  31.073 158.5310  0.00  0.00     0.000 C
ATOM      2  C2  IDS C   1     110.445  30.180 159.3780  0.00  0.00     0.000 C
ATOM      3  C3  IDS C   1     110.609  28.717 158.9890  0.00  0.00     0.000 C
ATOM      4  C4  IDS C   1     110.283  28.514 157.5160  0.00  0.00     0.000 C
ATOM      5  C5  IDS C   1     110.819  29.683 156.6950  0.00  0.00     0.000 C
ATOM      6  O5  IDS C   1     111.856  30.352 157.4120  0.00  0.00     0.000 O
ATOM      7   O  IDS C   1     109.751  27.901 159.7980  0.00  0.00     0.000 O
ATOM      9  HD  IDS C   1     109.726  28.239 160.5950  0.00  0.00     0.000 HD
ENDROOT
BRANCH 2 9
ATOM      9   O  IDS C   1     110.779  30.299 160.8150  0.00  0.00     0.000 O
ATOM     10   S  IDS C   1     109.638  30.705 161.8530  0.00  0.00     0.000 S
ATOM     11   O  IDS C   1     110.273  30.721 163.1530  0.00  0.00     0.000 OA
ATOM     12   O  IDS C   1     109.177  32.013 161.4340  0.00  0.00     0.000 OA
ATOM     13   O  IDS C   1     108.619  29.685 161.7390  0.00  0.00     0.000 OA
ENDBRANCH 2 9
BRANCH 5 14
ATOM     14   C  IDS C   1     111.373  29.235 155.3530  0.00  0.00     0.000 C
ATOM     15   O  IDS C   1     112.489  29.561 155.0330  0.00  0.00     0.000 OA
ATOM     16   O  IDS C   1     110.685  28.553 154.6120  0.00  0.00     0.000 OA
ENDBRANCH 5 14
BRANCH 1 17
ATOM     17  O4  SGN C   2     112.063  32.085 159.0420  0.00  0.00     0.000 O
BRANCH 17 21
ATOM     18  C1  SGN C   2     115.587  34.058 160.1420  0.00  0.00     0.000 C
ATOM     19  C2  SGN C   2     115.740  32.840 159.2220  0.00  0.00     0.000 C
ATOM     20  C3  SGN C   2     114.389  32.500 158.5810  0.00  0.00     0.000 C
ATOM     21  C4  SGN C   2     113.324  32.334 159.6580  0.00  0.00     0.000 C
ATOM     22  C5  SGN C   2     113.263  33.606 160.4990  0.00  0.00     0.000 C
ATOM     23  O5  SGN C   2     114.558  33.863 161.0890  0.00  0.00     0.000 O
ATOM     24   O  SGN C   2     114.509  31.324 157.7990  0.00  0.00     0.000 O
ATOM     26  HD  SGN C   2     114.249  32.128 157.9880  0.00  0.00     0.000 HD
BRANCH 19 28
ATOM     26   N  SGN C   2     117.079  33.066 158.6590  0.00  0.00     0.000 N
ATOM     28  HD  SGN C   2     117.131  33.403 159.4550  0.00  0.00     0.000 HD
ATOM     28   O  SGN C   2     118.926  32.301 157.1670  0.00  0.00     0.000 OA
ATOM     29   S  SGN C   2     118.135  31.872 158.4490  0.00  0.00     0.000 S
ATOM     30   O  SGN C   2     119.018  31.886 159.5510  0.00  0.00     0.000 OA
ATOM     31   O  SGN C   2     117.399  30.692 158.1530  0.00  0.00     0.000 OA
ENDBRANCH 19 28
BRANCH 22 32
ATOM     32   C  SGN C   2     112.275  33.524 161.6370  0.00  0.00     0.000 C
ATOM     33   S  SGN C   2     111.365  35.024 163.5250  0.00  0.00     0.000 S
ATOM     34   O  SGN C   2     112.552  34.853 164.3260  0.00  0.00     0.000 OA
ATOM     35   O  SGN C   2     110.819  36.364 163.5750  0.00  0.00     0.000 OA
ATOM     36   O  SGN C   2     110.374  33.991 163.7150  0.00  0.00     0.000 OA
ATOM     37   O  SGN C   2     111.875  34.844 162.0230  0.00  0.00     0.000 O
ENDBRANCH 22 32
BRANCH 18 38
ATOM     38  O4  IDS C   3     115.513  35.357 159.8450  0.00  0.00     0.000 O
BRANCH 38 42
ATOM     39  C1  IDS C   3     115.540  38.390 158.1340  0.00  0.00     0.000 C
ATOM     40  C2  IDS C   3     116.617  37.325 157.8750  0.00  0.00     0.000 C
ATOM     41  C3  IDS C   3     117.270  36.870 159.1800  0.00  0.00     0.000 C
ATOM     42  C4  IDS C   3     116.221  36.540 160.2340  0.00  0.00     0.000 C
ATOM     43  C5  IDS C   3     115.243  37.712 160.3780  0.00  0.00     0.000 C
ATOM     44  O5  IDS C   3     114.618  37.956 159.1190  0.00  0.00     0.000 O
ATOM     45   O  IDS C   3     118.131  37.903 159.6640  0.00  0.00     0.000 O
ATOM     47  HD  IDS C   3     118.033  38.741 159.8570  0.00  0.00     0.000 HD
BRANCH 40 47
ATOM     47   O  IDS C   3     116.023  36.129 157.2340  0.00  0.00     0.000 O
ATOM     48   S  IDS C   3     116.791  35.406 156.0310  0.00  0.00     0.000 S
ATOM     49   O  IDS C   3     116.568  36.232 154.8640  0.00  0.00     0.000 OA
ATOM     50   O  IDS C   3     116.173  34.104 155.9130  0.00  0.00     0.000 OA
ATOM     51   O  IDS C   3     118.177  35.343 156.4130  0.00  0.00     0.000 OA
ENDBRANCH 40 47
BRANCH 43 52
ATOM     52   C  IDS C   3     114.185  37.466 161.4310  0.00  0.00     0.000 C
ATOM     53   O  IDS C   3     114.486  36.934 162.4750  0.00  0.00     0.000 OA
ATOM     54   O  IDS C   3     113.047  37.802 161.2250  0.00  0.00     0.000 OA
ENDBRANCH 43 52
BRANCH 39 55
ATOM     55  O4  SGN C   4     115.787  39.700 158.1620  0.00  0.00     0.000 O
BRANCH 55 59
ATOM     56  C1  SGN C   4     112.643  42.054 156.7190  0.00  0.00     0.000 C
ATOM     57  C2  SGN C   4     113.788  41.757 155.7350  0.00  0.00     0.000 C
ATOM     58  C3  SGN C   4     114.644  40.597 156.2350  0.00  0.00     0.000 C
ATOM     59  C4  SGN C   4     115.080  40.833 157.6770  0.00  0.00     0.000 C
ATOM     60  C5  SGN C   4     113.838  41.078 158.5310  0.00  0.00     0.000 C
ATOM     61  O5  SGN C   4     113.164  42.246 158.0250  0.00  0.00     0.000 O
ATOM     62   O  SGN C   4     115.775  40.441 155.3880  0.00  0.00     0.000 O
ATOM     64  HD  SGN C   4     115.166  40.782 154.8760  0.00  0.00     0.000 HD
BRANCH 57 66
ATOM     64   N  SGN C   4     112.831  42.415 154.8310  0.00  0.00     0.000 N
ATOM     66  HD  SGN C   4     112.837  43.107 154.3100  0.00  0.00     0.000 HD
ATOM     66   S  SGN C   4     113.216  42.699 153.3090  0.00  0.00     0.000 S
ATOM     67   O  SGN C   4     112.129  43.390 152.7170  0.00  0.00     0.000 OA
ATOM     68   O  SGN C   4     114.507  43.298 153.3110  0.00  0.00     0.000 OA
ATOM     69   O  SGN C   4     113.328  41.273 152.6820  0.00  0.00     0.000 OA
ENDBRANCH 57 66
BRANCH 60 70
ATOM     70   C  SGN C   4     114.142  41.317 159.9940  0.00  0.00     0.000 C
ATOM     71   O  SGN C   4     112.172  43.437 162.3890  0.00  0.00     0.000 OA
ATOM     72   O  SGN C   4     112.145  41.027 162.1880  0.00  0.00     0.000 OA
ATOM     73   O  SGN C   4     113.285  42.347 160.5260  0.00  0.00     0.000 O
ATOM     74   S  SGN C   4     112.921  42.241 162.0790  0.00  0.00     0.000 S
ATOM     75   O  SGN C   4     114.201  42.170 162.7550  0.00  0.00     0.000 OA
ENDBRANCH 60 70
BRANCH 56 76
ATOM     76  O4  IDS C   5     111.360  41.669 156.8460  0.00  0.00     0.000 O
BRANCH 76 80
ATOM     77  C1  IDS C   5     110.257  38.462 159.1160  0.00  0.00     0.000 C
ATOM     78  C2  IDS C   5     110.518  38.138 157.6450  0.00  0.00     0.000 C
ATOM     79  C3  IDS C   5     111.324  39.253 157.0090  0.00  0.00     0.000 C
ATOM     80  C4  IDS C   5     110.493  40.533 156.9820  0.00  0.00     0.000 C
ATOM     81  C5  IDS C   5     109.674  40.635 158.2770  0.00  0.00     0.000 C
ATOM     82  O5  IDS C   5     110.289  39.874 159.3210  0.00  0.00     0.000 O
BRANCH 78 83
ATOM     83   O  IDS C   5     111.281  36.875 157.5140  0.00  0.00     0.000 O
ATOM     84   S  IDS C   5     110.699  35.687 156.6230  0.00  0.00     0.000 S
ATOM     85   O  IDS C   5     109.332  35.516 157.0340  0.00  0.00     0.000 OA
ATOM     86   O  IDS C   5     110.831  36.139 155.2580  0.00  0.00     0.000 OA
ATOM     87   O  IDS C   5     111.528  34.541 156.9110  0.00  0.00     0.000 OA
ENDBRANCH 78 83
BRANCH 81 88
ATOM     88   C  IDS C   5     109.501  42.054 158.7860  0.00  0.00     0.000 C
ATOM     89   O  IDS C   5     108.737  42.799 158.2330  0.00  0.00     0.000 OA
ATOM     90   O  IDS C   5     110.134  42.427 159.7470  0.00  0.00     0.000 OA
ENDBRANCH 81 88
ENDBRANCH 76 80
ENDBRANCH 56 76
ENDBRANCH 55 59
ENDBRANCH 39 55
ENDBRANCH 38 42
ENDBRANCH 18 38
ENDBRANCH 17 21
ENDBRANCH 1 17
TORSDOF 18
ENDMDL
MODEL 54
REMARK VINA RESULT:      -1.9    133.836    140.063
ROOT
ATOM      1  C1  IDS C   1     131.947 141.580 107.5330  0.00  0.00     0.000 C
ATOM      2  C2  IDS C   1     131.430 141.300 106.1200  0.00  0.00     0.000 C
ATOM      3  C3  IDS C   1     130.224 140.371 106.1600  0.00  0.00     0.000 C
ATOM      4  C4  IDS C   1     130.583 139.054 106.8340  0.00  0.00     0.000 C
ATOM      5  C5  IDS C   1     131.507 139.309 108.0210  0.00  0.00     0.000 C
ATOM      6  O5  IDS C   1     131.382 140.662 108.4590  0.00  0.00     0.000 O
ATOM      7   O  IDS C   1     129.756 140.127 104.8260  0.00  0.00     0.000 O
ATOM      9  HD  IDS C   1     129.850 140.855 104.3670  0.00  0.00     0.000 HD
ENDROOT
BRANCH 2 9
ATOM      9   O  IDS C   1     131.006 142.553 105.4550  0.00  0.00     0.000 O
ATOM     10   S  IDS C   1     131.621 142.933 104.0340  0.00  0.00     0.000 S
ATOM     11   O  IDS C   1     131.004 144.185 103.6570  0.00  0.00     0.000 OA
ATOM     12   O  IDS C   1     133.049 143.050 104.2470  0.00  0.00     0.000 OA
ATOM     13   O  IDS C   1     131.271 141.845 103.1480  0.00  0.00     0.000 OA
ENDBRANCH 2 9
BRANCH 5 14
ATOM     14   C  IDS C   1     131.200 138.392 109.1930  0.00  0.00     0.000 C
ATOM     15   O  IDS C   1     132.032 138.229 110.0520  0.00  0.00     0.000 OA
ATOM     16   O  IDS C   1     130.121 137.829 109.2540  0.00  0.00     0.000 OA
ENDBRANCH 5 14
BRANCH 1 17
ATOM     17  O4  SGN C   2     132.321 142.796 107.9430  0.00  0.00     0.000 O
BRANCH 17 21
ATOM     18  C1  SGN C   2     131.897 146.398 110.0340  0.00  0.00     0.000 C
ATOM     19  C2  SGN C   2     130.980 145.245 110.4590  0.00  0.00     0.000 C
ATOM     20  C3  SGN C   2     131.529 143.918 109.9210  0.00  0.00     0.000 C
ATOM     21  C4  SGN C   2     131.749 144.012 108.4160  0.00  0.00     0.000 C
ATOM     22  C5  SGN C   2     132.676 145.187 108.1210  0.00  0.00     0.000 C
ATOM     23  O5  SGN C   2     132.098 146.409 108.6360  0.00  0.00     0.000 O
ATOM     24   O  SGN C   2     130.638 142.862 110.2390  0.00  0.00     0.000 O
ATOM     26  HD  SGN C   2     131.406 143.251 110.1450  0.00  0.00     0.000 HD
BRANCH 19 28
ATOM     26   N  SGN C   2     130.573 145.676 111.8040  0.00  0.00     0.000 N
ATOM     28  HD  SGN C   2     130.681 146.420 111.3730  0.00  0.00     0.000 HD
ATOM     28   O  SGN C   2     129.245 145.254 113.8730  0.00  0.00     0.000 OA
ATOM     29   S  SGN C   2     129.065 145.512 112.3390  0.00  0.00     0.000 S
ATOM     30   O  SGN C   2     128.414 146.753 112.1630  0.00  0.00     0.000 OA
ATOM     31   O  SGN C   2     128.521 144.342 111.7430  0.00  0.00     0.000 OA
ENDBRANCH 19 28
BRANCH 22 32
ATOM     32   C  SGN C   2     132.914 145.406 106.6460  0.00  0.00     0.000 C
ATOM     33   S  SGN C   2     132.806 147.326 104.9300  0.00  0.00     0.000 S
ATOM     34   O  SGN C   2     131.368 147.273 104.8590  0.00  0.00     0.000 OA
ATOM     35   O  SGN C   2     133.341 148.671 104.8860  0.00  0.00     0.000 OA
ATOM     36   O  SGN C   2     133.474 146.412 104.0330  0.00  0.00     0.000 OA
ATOM     37   O  SGN C   2     133.147 146.798 106.3970  0.00  0.00     0.000 O
ENDBRANCH 22 32
BRANCH 18 38
ATOM     38  O4  IDS C   3     133.070 146.795 110.5330  0.00  0.00     0.000 O
BRANCH 38 42
ATOM     39  C1  IDS C   3     135.974 147.184 112.4160  0.00  0.00     0.000 C
ATOM     40  C2  IDS C   3     134.599 147.076 113.0940  0.00  0.00     0.000 C
ATOM     41  C3  IDS C   3     133.610 148.079 112.5010  0.00  0.00     0.000 C
ATOM     42  C4  IDS C   3     133.627 148.036 110.9790  0.00  0.00     0.000 C
ATOM     43  C5  IDS C   3     135.067 148.176 110.4720  0.00  0.00     0.000 C
ATOM     44  O5  IDS C   3     135.855 147.113 111.0050  0.00  0.00     0.000 O
ATOM     45   O  IDS C   3     133.944 149.394 112.9500  0.00  0.00     0.000 O
ATOM     47  HD  IDS C   3     134.655 149.887 112.9250  0.00  0.00     0.000 HD
BRANCH 40 47
ATOM     47   O  IDS C   3     134.028 145.722 112.9010  0.00  0.00     0.000 O
ATOM     48   S  IDS C   3     134.690 144.467 113.6370  0.00  0.00     0.000 S
ATOM     49   O  IDS C   3     135.885 144.150 112.8850  0.00  0.00     0.000 OA
ATOM     50   O  IDS C   3     133.698 143.417 113.5670  0.00  0.00     0.000 OA
ATOM     51   O  IDS C   3     134.974 144.888 114.9830  0.00  0.00     0.000 OA
ENDBRANCH 40 47
BRANCH 43 52
ATOM     52   C  IDS C   3     135.160 148.170 108.9620  0.00  0.00     0.000 C
ATOM     53   O  IDS C   3     135.749 147.277 108.3980  0.00  0.00     0.000 OA
ATOM     54   O  IDS C   3     134.645 149.056 108.3290  0.00  0.00     0.000 OA
ENDBRANCH 43 52
BRANCH 39 55
ATOM     55  O4  SGN C   4     136.944 147.994 112.8380  0.00  0.00     0.000 O
BRANCH 55 59
ATOM     56  C1  SGN C   4     140.925 146.787 112.3840  0.00  0.00     0.000 C
ATOM     57  C2  SGN C   4     140.105 146.061 113.4650  0.00  0.00     0.000 C
ATOM     58  C3  SGN C   4     138.611 146.301 113.2640  0.00  0.00     0.000 C
ATOM     59  C4  SGN C   4     138.320 147.792 113.1290  0.00  0.00     0.000 C
ATOM     60  C5  SGN C   4     139.179 148.359 112.0010  0.00  0.00     0.000 C
ATOM     61  O5  SGN C   4     140.565 148.158 112.3430  0.00  0.00     0.000 O
ATOM     62   O  SGN C   4     137.890 145.747 114.3560  0.00  0.00     0.000 O
ATOM     64  HD  SGN C   4     138.605 145.261 114.3000  0.00  0.00     0.000 HD
BRANCH 57 66
ATOM     64   N  SGN C   4     140.873 144.818 113.2830  0.00  0.00     0.000 N
ATOM     66  HD  SGN C   4     141.660 144.532 113.5010  0.00  0.00     0.000 HD
ATOM     66   S  SGN C   4     141.512 144.069 114.5380  0.00  0.00     0.000 S
ATOM     67   O  SGN C   4     142.233 142.952 114.0440  0.00  0.00     0.000 OA
ATOM     68   O  SGN C   4     142.190 145.053 115.3100  0.00  0.00     0.000 OA
ATOM     69   O  SGN C   4     140.270 143.569 115.3440  0.00  0.00     0.000 OA
ENDBRANCH 57 66
BRANCH 60 70
ATOM     70   C  SGN C   4     138.972 149.839 111.7600  0.00  0.00     0.000 C
ATOM     71   O  SGN C   4     136.578 151.416 109.3340  0.00  0.00     0.000 OA
ATOM     72   O  SGN C   4     136.308 151.173 111.7250  0.00  0.00     0.000 OA
ATOM     73   O  SGN C   4     138.126 150.050 110.6130  0.00  0.00     0.000 O
ATOM     74   S  SGN C   4     137.225 151.371 110.6250  0.00  0.00     0.000 S
ATOM     75   O  SGN C   4     138.160 152.456 110.8420  0.00  0.00     0.000 OA
ENDBRANCH 60 70
BRANCH 56 76
ATOM     76  O4  IDS C   5     141.429 146.462 111.1790  0.00  0.00     0.000 O
BRANCH 76 80
ATOM     77  C1  IDS C   5     139.087 146.836 107.8580  0.00  0.00     0.000 C
ATOM     78  C2  IDS C   5     139.145 145.423 108.4370  0.00  0.00     0.000 C
ATOM     79  C3  IDS C   5     139.651 145.473 109.8660  0.00  0.00     0.000 C
ATOM     80  C4  IDS C   5     141.099 145.956 109.8770  0.00  0.00     0.000 C
ATOM     81  C5  IDS C   5     141.279 147.050 108.8150  0.00  0.00     0.000 C
ATOM     82  O5  IDS C   5     140.027 147.679 108.5240  0.00  0.00     0.000 O
BRANCH 78 83
ATOM     83   O  IDS C   5     137.800 144.802 108.4390  0.00  0.00     0.000 O
ATOM     84   S  IDS C   5     137.512 143.531 107.5180  0.00  0.00     0.000 S
ATOM     85   O  IDS C   5     138.011 143.868 106.2120  0.00  0.00     0.000 OA
ATOM     86   O  IDS C   5     138.232 142.444 108.1380  0.00  0.00     0.000 OA
ATOM     87   O  IDS C   5     136.082 143.341 107.5510  0.00  0.00     0.000 OA
ENDBRANCH 78 83
BRANCH 81 88
ATOM     88   C  IDS C   5     142.257 148.140 109.2130  0.00  0.00     0.000 C
ATOM     89   O  IDS C   5     141.849 149.229 109.5150  0.00  0.00     0.000 OA
ATOM     90   O  IDS C   5     143.443 147.905 109.2260  0.00  0.00     0.000 OA
ENDBRANCH 81 88
ENDBRANCH 76 80
ENDBRANCH 56 76
ENDBRANCH 55 59
ENDBRANCH 39 55
ENDBRANCH 38 42
ENDBRANCH 18 38
ENDBRANCH 17 21
ENDBRANCH 1 17
TORSDOF 18
ENDMDL
MODEL 55
REMARK VINA RESULT:      -1.9    147.790    152.187
ROOT
ATOM      1  C1  IDS C   1     103.994 153.943 108.4680  0.00  0.00     0.000 C
ATOM      2  C2  IDS C   1     102.719 153.369 107.8440  0.00  0.00     0.000 C
ATOM      3  C3  IDS C   1     102.156 154.316 106.7950  0.00  0.00     0.000 C
ATOM      4  C4  IDS C   1     101.847 155.675 107.4090  0.00  0.00     0.000 C
ATOM      5  C5  IDS C   1     102.931 156.055 108.4120  0.00  0.00     0.000 C
ATOM      6  O5  IDS C   1     104.127 155.321 108.1440  0.00  0.00     0.000 O
ATOM      7   O  IDS C   1     100.967 153.755 106.2220  0.00  0.00     0.000 O
ATOM      9  HD  IDS C   1     101.073 152.898 106.1600  0.00  0.00     0.000 HD
ENDROOT
BRANCH 2 9
ATOM      9   O  IDS C   1     102.996 152.077 107.1760  0.00  0.00     0.000 O
ATOM     10   S  IDS C   1     102.139 150.791 107.5710  0.00  0.00     0.000 S
ATOM     11   O  IDS C   1     102.636 149.714 106.7440  0.00  0.00     0.000 OA
ATOM     12   O  IDS C   1     102.385 150.578 108.9830  0.00  0.00     0.000 OA
ATOM     13   O  IDS C   1     100.763 151.130 107.2840  0.00  0.00     0.000 OA
ENDBRANCH 2 9
BRANCH 5 14
ATOM     14   C  IDS C   1     103.257 157.538 108.3690  0.00  0.00     0.000 C
ATOM     15   O  IDS C   1     104.379 157.892 108.1010  0.00  0.00     0.000 OA
ATOM     16   O  IDS C   1     102.385 158.357 108.6060  0.00  0.00     0.000 OA
ENDBRANCH 5 14
BRANCH 1 17
ATOM     17  O4  SGN C   2     105.082 153.207 108.7080  0.00  0.00     0.000 O
BRANCH 17 21
ATOM     18  C1  SGN C   2     108.975 151.835 108.0090  0.00  0.00     0.000 C
ATOM     19  C2  SGN C   2     108.576 153.147 107.3220  0.00  0.00     0.000 C
ATOM     20  C3  SGN C   2     107.323 153.724 107.9930  0.00  0.00     0.000 C
ATOM     21  C4  SGN C   2     106.215 152.677 108.0230  0.00  0.00     0.000 C
ATOM     22  C5  SGN C   2     106.729 151.428 108.7320  0.00  0.00     0.000 C
ATOM     23  O5  SGN C   2     107.898 150.923 108.0460  0.00  0.00     0.000 O
ATOM     24   O  SGN C   2     106.902 154.889 107.3050  0.00  0.00     0.000 O
ATOM     26  HD  SGN C   2     107.075 154.393 107.9930  0.00  0.00     0.000 HD
BRANCH 19 28
ATOM     26   N  SGN C   2     109.890 153.723 107.0070  0.00  0.00     0.000 N
ATOM     28  HD  SGN C   2     110.020 152.869 106.9470  0.00  0.00     0.000 HD
ATOM     28   O  SGN C   2     111.226 155.576 106.0040  0.00  0.00     0.000 OA
ATOM     29   S  SGN C   2     110.189 154.469 105.6140  0.00  0.00     0.000 S
ATOM     30   O  SGN C   2     110.822 153.538 104.7600  0.00  0.00     0.000 OA
ATOM     31   O  SGN C   2     108.986 155.101 105.1960  0.00  0.00     0.000 OA
ENDBRANCH 19 28
BRANCH 22 32
ATOM     32   C  SGN C   2     105.724 150.303 108.7660  0.00  0.00     0.000 C
ATOM     33   S  SGN C   2     105.624 147.777 108.2630  0.00  0.00     0.000 S
ATOM     34   O  SGN C   2     105.581 147.993 106.8390  0.00  0.00     0.000 OA
ATOM     35   O  SGN C   2     106.428 146.638 108.6540  0.00  0.00     0.000 OA
ATOM     36   O  SGN C   2     104.330 147.815 108.9040  0.00  0.00     0.000 OA
ATOM     37   O  SGN C   2     106.409 149.046 108.8300  0.00  0.00     0.000 O
ENDBRANCH 22 32
BRANCH 18 38
ATOM     38  O4  IDS C   3     109.617 151.626 109.1610  0.00  0.00     0.000 O
BRANCH 38 42
ATOM     39  C1  IDS C   3     111.482 152.072 112.0670  0.00  0.00     0.000 C
ATOM     40  C2  IDS C   3     111.923 152.706 110.7380  0.00  0.00     0.000 C
ATOM     41  C3  IDS C   3     111.983 151.663 109.6220  0.00  0.00     0.000 C
ATOM     42  C4  IDS C   3     110.718 150.817 109.5900  0.00  0.00     0.000 C
ATOM     43  C5  IDS C   3     110.437 150.249 110.9860  0.00  0.00     0.000 C
ATOM     44  O5  IDS C   3     110.286 151.328 111.9070  0.00  0.00     0.000 O
ATOM     45   O  IDS C   3     113.121 150.822 109.8210  0.00  0.00     0.000 O
ATOM     47  HD  IDS C   3     113.411 150.329 110.4710  0.00  0.00     0.000 HD
BRANCH 40 47
ATOM     47   O  IDS C   3     110.963 153.753 110.3170  0.00  0.00     0.000 O
ATOM     48   S  IDS C   3     111.494 155.215 109.9420  0.00  0.00     0.000 S
ATOM     49   O  IDS C   3     111.771 155.872 111.2000  0.00  0.00     0.000 OA
ATOM     50   O  IDS C   3     110.408 155.840 109.2190  0.00  0.00     0.000 OA
ATOM     51   O  IDS C   3     112.673 155.025 109.1390  0.00  0.00     0.000 OA
ENDBRANCH 40 47
BRANCH 43 52
ATOM     52   C  IDS C   3     109.205 149.372 111.0250  0.00  0.00     0.000 C
ATOM     53   O  IDS C   3     108.218 149.745 111.6150  0.00  0.00     0.000 OA
ATOM     54   O  IDS C   3     109.215 148.305 110.4670  0.00  0.00     0.000 OA
ENDBRANCH 43 52
BRANCH 39 55
ATOM     55  O4  SGN C   4     112.330 151.552 112.9550  0.00  0.00     0.000 O
BRANCH 55 59
ATOM     56  C1  SGN C   4     111.109 151.980 116.9340  0.00  0.00     0.000 C
ATOM     57  C2  SGN C   4     112.108 153.024 116.4050  0.00  0.00     0.000 C
ATOM     58  C3  SGN C   4     112.161 152.998 114.8800  0.00  0.00     0.000 C
ATOM     59  C4  SGN C   4     112.387 151.578 114.3740  0.00  0.00     0.000 C
ATOM     60  C5  SGN C   4     111.304 150.672 114.9560  0.00  0.00     0.000 C
ATOM     61  O5  SGN C   4     111.410 150.704 116.3930  0.00  0.00     0.000 O
ATOM     62   O  SGN C   4     113.193 153.863 114.4250  0.00  0.00     0.000 O
ATOM     64  HD  SGN C   4     112.941 154.205 115.1800  0.00  0.00     0.000 HD
BRANCH 57 66
ATOM     64   N  SGN C   4     112.513 153.397 117.7700  0.00  0.00     0.000 N
ATOM     66  HD  SGN C   4     113.094 153.933 118.1250  0.00  0.00     0.000 HD
ATOM     66   S  SGN C   4     112.535 154.928 118.2200  0.00  0.00     0.000 S
ATOM     67   O  SGN C   4     113.022 154.972 119.5510  0.00  0.00     0.000 OA
ATOM     68   O  SGN C   4     113.215 155.652 117.2030  0.00  0.00     0.000 OA
ATOM     69   O  SGN C   4     111.028 155.340 118.2050  0.00  0.00     0.000 OA
ENDBRANCH 57 66
BRANCH 60 70
ATOM     70   C  SGN C   4     111.416 149.228 114.5170  0.00  0.00     0.000 C
ATOM     71   O  SGN C   4     109.693 146.264 116.0520  0.00  0.00     0.000 OA
ATOM     72   O  SGN C   4     109.082 147.440 114.0290  0.00  0.00     0.000 OA
ATOM     73   O  SGN C   4     110.778 148.359 115.4730  0.00  0.00     0.000 O
ATOM     74   S  SGN C   4     110.151 147.004 114.8990  0.00  0.00     0.000 S
ATOM     75   O  SGN C   4     111.241 146.361 114.1940  0.00  0.00     0.000 OA
ENDBRANCH 60 70
BRANCH 56 76
ATOM     76  O4  IDS C   5     109.808 151.981 117.2760  0.00  0.00     0.000 O
BRANCH 76 80
ATOM     77  C1  IDS C   5     106.862 150.870 114.6770  0.00  0.00     0.000 C
ATOM     78  C2  IDS C   5     107.175 152.366 114.6800  0.00  0.00     0.000 C
ATOM     79  C3  IDS C   5     108.529 152.608 115.3160  0.00  0.00     0.000 C
ATOM     80  C4  IDS C   5     108.478 152.220 116.7910  0.00  0.00     0.000 C
ATOM     81  C5  IDS C   5     107.612 150.963 116.9570  0.00  0.00     0.000 C
ATOM     82  O5  IDS C   5     107.567 150.220 115.7350  0.00  0.00     0.000 O
BRANCH 78 83
ATOM     83   O  IDS C   5     107.205 152.898 113.2980  0.00  0.00     0.000 O
ATOM     84   S  IDS C   5     106.285 154.141 112.9060  0.00  0.00     0.000 S
ATOM     85   O  IDS C   5     104.969 153.830 113.3960  0.00  0.00     0.000 OA
ATOM     86   O  IDS C   5     106.884 155.277 113.5670  0.00  0.00     0.000 OA
ATOM     87   O  IDS C   5     106.350 154.237 111.4680  0.00  0.00     0.000 OA
ENDBRANCH 78 83
BRANCH 81 88
ATOM     88   C  IDS C   5     108.094 150.022 118.0460  0.00  0.00     0.000 C
ATOM     89   O  IDS C   5     108.640 148.994 117.7510  0.00  0.00     0.000 OA
ATOM     90   O  IDS C   5     107.926 150.316 119.2080  0.00  0.00     0.000 OA
ENDBRANCH 81 88
ENDBRANCH 76 80
ENDBRANCH 56 76
ENDBRANCH 55 59
ENDBRANCH 39 55
ENDBRANCH 38 42
ENDBRANCH 18 38
ENDBRANCH 17 21
ENDBRANCH 1 17
TORSDOF 18
ENDMDL
MODEL 56
REMARK VINA RESULT:      -1.9     72.257     78.625
ROOT
ATOM      1  C1  IDS C   1     207.631  68.113  49.6140  0.00  0.00     0.000 C
ATOM      2  C2  IDS C   1     206.637  67.090  50.1710  0.00  0.00     0.000 C
ATOM      3  C3  IDS C   1     206.835  66.904  51.6680  0.00  0.00     0.000 C
ATOM      4  C4  IDS C   1     208.254  66.440  51.9690  0.00  0.00     0.000 C
ATOM      5  C5  IDS C   1     209.243  67.160  51.0580  0.00  0.00     0.000 C
ATOM      6  O5  IDS C   1     208.664  68.365  50.5590  0.00  0.00     0.000 O
ATOM      7   O  IDS C   1     205.891  65.945  52.1670  0.00  0.00     0.000 O
ATOM      9  HD  IDS C   1     205.145  66.050  51.7390  0.00  0.00     0.000 HD
ENDROOT
BRANCH 2 9
ATOM      9   O  IDS C   1     205.243  67.540  49.9570  0.00  0.00     0.000 O
ATOM     10   S  IDS C   1     204.214  66.576  49.2120  0.00  0.00     0.000 S
ATOM     11   O  IDS C   1     202.957  67.290  49.1760  0.00  0.00     0.000 OA
ATOM     12   O  IDS C   1     204.774  66.352  47.8950  0.00  0.00     0.000 OA
ATOM     13   O  IDS C   1     204.152  65.372  50.0110  0.00  0.00     0.000 OA
ENDBRANCH 2 9
BRANCH 5 14
ATOM     14   C  IDS C   1     210.535  67.509  51.7780  0.00  0.00     0.000 C
ATOM     15   O  IDS C   1     210.941  68.645  51.7520  0.00  0.00     0.000 OA
ATOM     16   O  IDS C   1     211.151  66.640  52.3720  0.00  0.00     0.000 OA
ENDBRANCH 5 14
BRANCH 1 17
ATOM     17  O4  SGN C   2     207.288  69.057  48.7340  0.00  0.00     0.000 O
BRANCH 17 21
ATOM     18  C1  SGN C   2     206.333  72.941  47.4970  0.00  0.00     0.000 C
ATOM     19  C2  SGN C   2     207.047  72.806  48.8480  0.00  0.00     0.000 C
ATOM     20  C3  SGN C   2     207.694  71.420  48.9580  0.00  0.00     0.000 C
ATOM     21  C4  SGN C   2     206.657  70.335  48.6930  0.00  0.00     0.000 C
ATOM     22  C5  SGN C   2     206.024  70.573  47.3260  0.00  0.00     0.000 C
ATOM     23  O5  SGN C   2     205.418  71.886  47.2890  0.00  0.00     0.000 O
ATOM     24   O  SGN C   2     208.280  71.261  50.2390  0.00  0.00     0.000 O
ATOM     26  HD  SGN C   2     208.229  71.200  49.3770  0.00  0.00     0.000 HD
BRANCH 19 28
ATOM     26   N  SGN C   2     207.569  74.167  49.0390  0.00  0.00     0.000 N
ATOM     28  HD  SGN C   2     206.829  74.289  48.6060  0.00  0.00     0.000 HD
ATOM     28   O  SGN C   2     208.838  75.790  50.4450  0.00  0.00     0.000 OA
ATOM     29   S  SGN C   2     207.550  74.901  50.4700  0.00  0.00     0.000 S
ATOM     30   O  SGN C   2     206.418  75.745  50.5000  0.00  0.00     0.000 OA
ATOM     31   O  SGN C   2     207.708  73.902  51.4690  0.00  0.00     0.000 OA
ENDBRANCH 19 28
BRANCH 22 32
ATOM     32   C  SGN C   2     204.937  69.582  46.9880  0.00  0.00     0.000 C
ATOM     33   S  SGN C   2     202.516  69.587  46.1040  0.00  0.00     0.000 S
ATOM     34   O  SGN C   2     201.979  69.994  47.3780  0.00  0.00     0.000 OA
ATOM     35   O  SGN C   2     201.857  70.204  44.9720  0.00  0.00     0.000 OA
ATOM     36   O  SGN C   2     202.683  68.160  45.9640  0.00  0.00     0.000 OA
ATOM     37   O  SGN C   2     203.996  70.185  46.0920  0.00  0.00     0.000 O
ENDBRANCH 22 32
BRANCH 18 38
ATOM     38  O4  IDS C   3     206.828  73.185  46.2810  0.00  0.00     0.000 O
BRANCH 38 42
ATOM     39  C1  IDS C   3     208.943  74.037  43.6490  0.00  0.00     0.000 C
ATOM     40  C2  IDS C   3     208.895  74.882  44.9320  0.00  0.00     0.000 C
ATOM     41  C3  IDS C   3     207.462  75.284  45.2770  0.00  0.00     0.000 C
ATOM     42  C4  IDS C   3     206.524  74.086  45.2120  0.00  0.00     0.000 C
ATOM     43  C5  IDS C   3     206.685  73.372  43.8640  0.00  0.00     0.000 C
ATOM     44  O5  IDS C   3     208.039  72.947  43.7210  0.00  0.00     0.000 O
ATOM     45   O  IDS C   3     207.020  76.292  44.3660  0.00  0.00     0.000 O
ATOM     47  HD  IDS C   3     206.967  76.357  43.5040  0.00  0.00     0.000 HD
BRANCH 40 47
ATOM     47   O  IDS C   3     209.431  74.114  46.0810  0.00  0.00     0.000 O
ATOM     48   S  IDS C   3     210.572  74.752  47.0020  0.00  0.00     0.000 S
ATOM     49   O  IDS C   3     211.804  74.628  46.2510  0.00  0.00     0.000 OA
ATOM     50   O  IDS C   3     210.578  73.954  48.2080  0.00  0.00     0.000 OA
ATOM     51   O  IDS C   3     210.193  76.121  47.2300  0.00  0.00     0.000 OA
ENDBRANCH 40 47
BRANCH 43 52
ATOM     52   C  IDS C   3     205.761  72.184  43.7160  0.00  0.00     0.000 C
ATOM     53   O  IDS C   3     204.570  72.358  43.5920  0.00  0.00     0.000 OA
ATOM     54   O  IDS C   3     206.217  71.069  43.7210  0.00  0.00     0.000 OA
ENDBRANCH 43 52
BRANCH 39 55
ATOM     55  O4  SGN C   4     209.072  74.556  42.4270  0.00  0.00     0.000 O
BRANCH 55 59
ATOM     56  C1  SGN C   4     211.053  72.343  39.4810  0.00  0.00     0.000 C
ATOM     57  C2  SGN C   4     211.927  72.940  40.5970  0.00  0.00     0.000 C
ATOM     58  C3  SGN C   4     211.071  73.366  41.7860  0.00  0.00     0.000 C
ATOM     59  C4  SGN C   4     209.919  74.253  41.3280  0.00  0.00     0.000 C
ATOM     60  C5  SGN C   4     209.129  73.514  40.2500  0.00  0.00     0.000 C
ATOM     61  O5  SGN C   4     210.014  73.247  39.1440  0.00  0.00     0.000 O
ATOM     62   O  SGN C   4     211.880  74.046  42.7360  0.00  0.00     0.000 O
ATOM     64  HD  SGN C   4     212.425  73.505  42.3360  0.00  0.00     0.000 HD
BRANCH 57 66
ATOM     64   N  SGN C   4     212.930  72.134  39.8810  0.00  0.00     0.000 N
ATOM     66  HD  SGN C   4     213.699  72.278  39.5100  0.00  0.00     0.000 HD
ATOM     66   S  SGN C   4     214.453  72.123  40.3580  0.00  0.00     0.000 S
ATOM     67   O  SGN C   4     215.177  71.315  39.4460  0.00  0.00     0.000 OA
ATOM     68   O  SGN C   4     214.839  73.478  40.5510  0.00  0.00     0.000 OA
ATOM     69   O  SGN C   4     214.400  71.414  41.7500  0.00  0.00     0.000 OA
ENDBRANCH 57 66
BRANCH 60 70
ATOM     70   C  SGN C   4     207.946  74.293  39.7180  0.00  0.00     0.000 C
ATOM     71   O  SGN C   4     204.397  74.114  40.9350  0.00  0.00     0.000 OA
ATOM     72   O  SGN C   4     206.040  75.819  41.4270  0.00  0.00     0.000 OA
ATOM     73   O  SGN C   4     206.719  73.804  40.2940  0.00  0.00     0.000 O
ATOM     74   S  SGN C   4     205.536  74.867  40.4630  0.00  0.00     0.000 S
ATOM     75   O  SGN C   4     205.351  75.428  39.1400  0.00  0.00     0.000 OA
ENDBRANCH 60 70
BRANCH 56 76
ATOM     76  O4  IDS C   5     210.646  71.108  39.1340  0.00  0.00     0.000 O
BRANCH 76 80
ATOM     77  C1  IDS C   5     207.383  69.462  40.9520  0.00  0.00     0.000 C
ATOM     78  C2  IDS C   5     208.724  69.043  41.5550  0.00  0.00     0.000 C
ATOM     79  C3  IDS C   5     209.807  70.013  41.1250  0.00  0.00     0.000 C
ATOM     80  C4  IDS C   5     210.012  69.913  39.6160  0.00  0.00     0.000 C
ATOM     81  C5  IDS C   5     208.654  69.713  38.9300  0.00  0.00     0.000 C
ATOM     82  O5  IDS C   5     207.596  70.210  39.7550  0.00  0.00     0.000 O
BRANCH 78 83
ATOM     83   O  IDS C   5     208.656  69.043  43.0350  0.00  0.00     0.000 O
ATOM     84   S  IDS C   5     208.819  67.673  43.8360  0.00  0.00     0.000 S
ATOM     85   O  IDS C   5     207.934  66.735  43.1990  0.00  0.00     0.000 OA
ATOM     86   O  IDS C   5     210.213  67.320  43.7030  0.00  0.00     0.000 OA
ATOM     87   O  IDS C   5     208.449  67.971  45.1980  0.00  0.00     0.000 OA
ENDBRANCH 78 83
BRANCH 81 88
ATOM     88   C  IDS C   5     208.540  70.395  37.5790  0.00  0.00     0.000 C
ATOM     89   O  IDS C   5     209.117  69.940  36.6280  0.00  0.00     0.000 OA
ATOM     90   O  IDS C   5     207.866  71.393  37.4670  0.00  0.00     0.000 OA
ENDBRANCH 81 88
ENDBRANCH 76 80
ENDBRANCH 56 76
ENDBRANCH 55 59
ENDBRANCH 39 55
ENDBRANCH 38 42
ENDBRANCH 18 38
ENDBRANCH 17 21
ENDBRANCH 1 17
TORSDOF 18
ENDMDL
MODEL 57
REMARK VINA RESULT:      -1.8    150.512    157.818
ROOT
ATOM      1  C1  IDS C   1     105.439 159.673 118.2060  0.00  0.00     0.000 C
ATOM      2  C2  IDS C   1     105.212 159.354 119.6870  0.00  0.00     0.000 C
ATOM      3  C3  IDS C   1     104.421 160.463 120.3640  0.00  0.00     0.000 C
ATOM      4  C4  IDS C   1     105.151 161.794 120.2430  0.00  0.00     0.000 C
ATOM      5  C5  IDS C   1     105.789 161.917 118.8630  0.00  0.00     0.000 C
ATOM      6  O5  IDS C   1     105.142 161.038 117.9420  0.00  0.00     0.000 O
ATOM      7   O  IDS C   1     104.217 160.140 121.7460  0.00  0.00     0.000 O
ATOM      9  HD  IDS C   1     104.094 159.285 121.8110  0.00  0.00     0.000 HD
ENDROOT
BRANCH 2 9
ATOM      9   O  IDS C   1     104.443 158.098 119.8430  0.00  0.00     0.000 O
ATOM     10   S  IDS C   1     105.044 156.917 120.7300  0.00  0.00     0.000 S
ATOM     11   O  IDS C   1     104.062 155.856 120.6950  0.00  0.00     0.000 OA
ATOM     12   O  IDS C   1     106.294 156.550 120.0950  0.00  0.00     0.000 OA
ATOM     13   O  IDS C   1     105.225 157.470 122.0540  0.00  0.00     0.000 OA
ENDBRANCH 2 9
BRANCH 5 14
ATOM     14   C  IDS C   1     105.704 163.332 118.3160  0.00  0.00     0.000 C
ATOM     15   O  IDS C   1     105.237 163.519 117.2190  0.00  0.00     0.000 OA
ATOM     16   O  IDS C   1     106.110 164.266 118.9880  0.00  0.00     0.000 OA
ENDBRANCH 5 14
BRANCH 1 17
ATOM     17  O4  SGN C   2     105.307 158.762 117.2370  0.00  0.00     0.000 O
BRANCH 17 21
ATOM     18  C1  SGN C   2     103.499 157.068 113.8630  0.00  0.00     0.000 C
ATOM     19  C2  SGN C   2     103.077 158.498 114.2230  0.00  0.00     0.000 C
ATOM     20  C3  SGN C   2     104.102 159.116 115.1830  0.00  0.00     0.000 C
ATOM     21  C4  SGN C   2     104.305 158.207 116.3900  0.00  0.00     0.000 C
ATOM     22  C5  SGN C   2     104.725 156.822 115.9050  0.00  0.00     0.000 C
ATOM     23  O5  SGN C   2     103.714 156.287 115.0200  0.00  0.00     0.000 O
ATOM     24   O  SGN C   2     103.670 160.405 115.5850  0.00  0.00     0.000 O
ATOM     26  HD  SGN C   2     104.235 159.803 115.3250  0.00  0.00     0.000 HD
BRANCH 19 28
ATOM     26   N  SGN C   2     102.487 158.956 112.9580  0.00  0.00     0.000 N
ATOM     28  HD  SGN C   2     102.293 158.112 112.9820  0.00  0.00     0.000 HD
ATOM     28   O  SGN C   2     101.387 160.770 111.6460  0.00  0.00     0.000 OA
ATOM     29   S  SGN C   2     101.165 159.869 112.9070  0.00  0.00     0.000 S
ATOM     30   O  SGN C   2     100.066 159.015 112.6650  0.00  0.00     0.000 OA
ATOM     31   O  SGN C   2     101.169 160.698 114.0620  0.00  0.00     0.000 OA
ENDBRANCH 19 28
BRANCH 22 32
ATOM     32   C  SGN C   2     104.897 155.824 117.0240  0.00  0.00     0.000 C
ATOM     33   S  SGN C   2     105.621 153.370 117.3370  0.00  0.00     0.000 S
ATOM     34   O  SGN C   2     104.359 152.865 116.8580  0.00  0.00     0.000 OA
ATOM     35   O  SGN C   2     106.761 152.592 116.9020  0.00  0.00     0.000 OA
ATOM     36   O  SGN C   2     105.636 153.673 118.7490  0.00  0.00     0.000 OA
ATOM     37   O  SGN C   2     105.783 154.779 116.6050  0.00  0.00     0.000 O
ENDBRANCH 22 32
BRANCH 18 38
ATOM     38  O4  IDS C   3     104.421 156.632 113.0020  0.00  0.00     0.000 O
BRANCH 38 42
ATOM     39  C1  IDS C   3     106.779 156.571 110.4400  0.00  0.00     0.000 C
ATOM     40  C2  IDS C   3     105.474 157.370 110.2960  0.00  0.00     0.000 C
ATOM     41  C3  IDS C   3     104.256 156.499 110.6000  0.00  0.00     0.000 C
ATOM     42  C4  IDS C   3     104.443 155.723 111.8960  0.00  0.00     0.000 C
ATOM     43  C5  IDS C   3     105.779 154.971 111.8640  0.00  0.00     0.000 C
ATOM     44  O5  IDS C   3     106.839 155.911 111.6940  0.00  0.00     0.000 O
ATOM     45   O  IDS C   3     104.044 155.589 109.5190  0.00  0.00     0.000 O
ATOM     47  HD  IDS C   3     104.528 154.994 109.1160  0.00  0.00     0.000 HD
BRANCH 40 47
ATOM     47   O  IDS C   3     105.454 158.509 111.2450  0.00  0.00     0.000 O
ATOM     48   S  IDS C   3     105.160 159.987 110.7080  0.00  0.00     0.000 S
ATOM     49   O  IDS C   3     106.387 160.434 110.0840  0.00  0.00     0.000 OA
ATOM     50   O  IDS C   3     104.825 160.759 111.8850  0.00  0.00     0.000 OA
ATOM     51   O  IDS C   3     104.070 159.872 109.7770  0.00  0.00     0.000 OA
ENDBRANCH 40 47
BRANCH 43 52
ATOM     52   C  IDS C   3     106.021 154.153 113.1120  0.00  0.00     0.000 C
ATOM     53   O  IDS C   3     105.125 153.489 113.5810  0.00  0.00     0.000 OA
ATOM     54   O  IDS C   3     107.107 154.165 113.6330  0.00  0.00     0.000 OA
ENDBRANCH 43 52
BRANCH 39 55
ATOM     55  O4  SGN C   4     107.343 155.891 109.4420  0.00  0.00     0.000 O
BRANCH 55 59
ATOM     56  C1  SGN C   4     111.523 156.059 109.3950  0.00  0.00     0.000 C
ATOM     57  C2  SGN C   4     110.784 157.071 108.5020  0.00  0.00     0.000 C
ATOM     58  C3  SGN C   4     109.315 157.173 108.9020  0.00  0.00     0.000 C
ATOM     59  C4  SGN C   4     108.678 155.790 108.9680  0.00  0.00     0.000 C
ATOM     60  C5  SGN C   4     109.501 154.916 109.9130  0.00  0.00     0.000 C
ATOM     61  O5  SGN C   4     110.839 154.816 109.3870  0.00  0.00     0.000 O
ATOM     62   O  SGN C   4     108.626 157.998 107.9720  0.00  0.00     0.000 O
ATOM     64  HD  SGN C   4     109.441 158.290 107.9580  0.00  0.00     0.000 HD
BRANCH 57 66
ATOM     64   N  SGN C   4     111.987 157.294 107.6830  0.00  0.00     0.000 N
ATOM     66  HD  SGN C   4     112.185 157.752 106.9750  0.00  0.00     0.000 HD
ATOM     66   S  SGN C   4     112.502 158.775 107.3840  0.00  0.00     0.000 S
ATOM     67   O  SGN C   4     113.627 158.668 106.5290  0.00  0.00     0.000 OA
ATOM     68   O  SGN C   4     111.373 159.531 106.9630  0.00  0.00     0.000 OA
ATOM     69   O  SGN C   4     112.960 159.297 108.7830  0.00  0.00     0.000 OA
ENDBRANCH 57 66
BRANCH 60 70
ATOM     70   C  SGN C   4     108.961 153.511 110.0720  0.00  0.00     0.000 C
ATOM     71   O  SGN C   4     109.241 150.695 107.6030  0.00  0.00     0.000 OA
ATOM     72   O  SGN C   4     110.558 151.040 109.6010  0.00  0.00     0.000 OA
ATOM     73   O  SGN C   4     109.081 152.782 108.8350  0.00  0.00     0.000 O
ATOM     74   S  SGN C   4     109.274 151.199 108.9560  0.00  0.00     0.000 S
ATOM     75   O  SGN C   4     108.161 150.751 109.7670  0.00  0.00     0.000 OA
ENDBRANCH 60 70
BRANCH 56 76
ATOM     76  O4  IDS C   5     112.239 156.123 110.5330  0.00  0.00     0.000 O
BRANCH 76 80
ATOM     77  C1  IDS C   5     110.324 155.555 114.0920  0.00  0.00     0.000 C
ATOM     78  C2  IDS C   5     110.552 157.020 113.7220  0.00  0.00     0.000 C
ATOM     79  C3  IDS C   5     110.850 157.135 112.2390  0.00  0.00     0.000 C
ATOM     80  C4  IDS C   5     112.176 156.446 111.9300  0.00  0.00     0.000 C
ATOM     81  C5  IDS C   5     112.299 155.174 112.7810  0.00  0.00     0.000 C
ATOM     82  O5  IDS C   5     111.006 154.703 113.1710  0.00  0.00     0.000 O
BRANCH 78 83
ATOM     83   O  IDS C   5     109.349 157.830 114.0220  0.00  0.00     0.000 O
ATOM     84   S  IDS C   5     109.418 158.971 115.1350  0.00  0.00     0.000 S
ATOM     85   O  IDS C   5     110.030 158.363 116.2860  0.00  0.00     0.000 OA
ATOM     86   O  IDS C   5     110.222 160.020 114.5520  0.00  0.00     0.000 OA
ATOM     87   O  IDS C   5     108.053 159.377 115.3630  0.00  0.00     0.000 OA
ENDBRANCH 78 83
BRANCH 81 88
ATOM     88   C  IDS C   5     113.010 154.030 112.0800  0.00  0.00     0.000 C
ATOM     89   O  IDS C   5     112.381 153.082 111.6940  0.00  0.00     0.000 OA
ATOM     90   O  IDS C   5     114.207 154.082 111.9130  0.00  0.00     0.000 OA
ENDBRANCH 81 88
ENDBRANCH 76 80
ENDBRANCH 56 76
ENDBRANCH 55 59
ENDBRANCH 39 55
ENDBRANCH 38 42
ENDBRANCH 18 38
ENDBRANCH 17 21
ENDBRANCH 1 17
TORSDOF 18
ENDMDL
MODEL 58
REMARK VINA RESULT:      -1.8    184.144    189.052
ROOT
ATOM      1  C1  IDS C   1      65.180 180.381  94.3210  0.00  0.00     0.000 C
ATOM      2  C2  IDS C   1      63.973 180.774  93.4650  0.00  0.00     0.000 C
ATOM      3  C3  IDS C   1      62.900 179.696  93.5170  0.00  0.00     0.000 C
ATOM      4  C4  IDS C   1      63.452 178.365  93.0250  0.00  0.00     0.000 C
ATOM      5  C5  IDS C   1      64.881 178.175  93.5240  0.00  0.00     0.000 C
ATOM      6  O5  IDS C   1      65.117 179.002  94.6630  0.00  0.00     0.000 O
ATOM      7   O  IDS C   1      61.779 180.089  92.7130  0.00  0.00     0.000 O
ATOM      9  HD  IDS C   1      61.675 180.945  92.7900  0.00  0.00     0.000 HD
ENDROOT
BRANCH 2 9
ATOM      9   O  IDS C   1      63.366 182.032  93.9570  0.00  0.00     0.000 O
ATOM     10   S  IDS C   1      63.158 183.248  92.9470  0.00  0.00     0.000 S
ATOM     11   O  IDS C   1      62.541 184.304  93.7190  0.00  0.00     0.000 OA
ATOM     12   O  IDS C   1      64.483 183.594  92.4750  0.00  0.00     0.000 OA
ATOM     13   O  IDS C   1      62.299 182.747  91.8960  0.00  0.00     0.000 OA
ENDBRANCH 2 9
BRANCH 5 14
ATOM     14   C  IDS C   1      65.166 176.733  93.9090  0.00  0.00     0.000 C
ATOM     15   O  IDS C   1      66.280 176.419  94.2510  0.00  0.00     0.000 OA
ATOM     16   O  IDS C   1      64.270 175.907  93.8670  0.00  0.00     0.000 OA
ENDBRANCH 5 14
BRANCH 1 17
ATOM     17  O4  SGN C   2      65.812 181.240  95.1260  0.00  0.00     0.000 O
BRANCH 17 21
ATOM     18  C1  SGN C   2      66.834 182.966  98.8000  0.00  0.00     0.000 C
ATOM     19  C2  SGN C   2      66.195 181.573  98.8500  0.00  0.00     0.000 C
ATOM     20  C3  SGN C   2      66.274 180.915  97.4670  0.00  0.00     0.000 C
ATOM     21  C4  SGN C   2      65.671 181.836  96.4130  0.00  0.00     0.000 C
ATOM     22  C5  SGN C   2      66.389 183.182  96.4580  0.00  0.00     0.000 C
ATOM     23  O5  SGN C   2      66.266 183.758  97.7780  0.00  0.00     0.000 O
ATOM     24   O  SGN C   2      65.608 179.664  97.4890  0.00  0.00     0.000 O
ATOM     26  HD  SGN C   2      66.237 180.225  97.2890  0.00  0.00     0.000 HD
BRANCH 19 28
ATOM     26   N  SGN C   2      66.582 181.122 100.1940  0.00  0.00     0.000 N
ATOM     28  HD  SGN C   2      66.481 181.977 100.2850  0.00  0.00     0.000 HD
ATOM     28   O  SGN C   2      66.533 179.352 101.9510  0.00  0.00     0.000 OA
ATOM     29   S  SGN C   2      65.581 180.300 101.1460  0.00  0.00     0.000 S
ATOM     30   O  SGN C   2      64.995 181.220 102.0440  0.00  0.00     0.000 OA
ATOM     31   O  SGN C   2      64.748 179.504 100.3120  0.00  0.00     0.000 OA
ENDBRANCH 19 28
BRANCH 22 32
ATOM     32   C  SGN C   2      65.828 184.192  95.4870  0.00  0.00     0.000 C
ATOM     33   S  SGN C   2      65.060 186.652  95.4790  0.00  0.00     0.000 S
ATOM     34   O  SGN C   2      63.812 186.337  96.1280  0.00  0.00     0.000 OA
ATOM     35   O  SGN C   2      65.651 187.895  95.9290  0.00  0.00     0.000 OA
ATOM     36   O  SGN C   2      65.026 186.520  94.0410  0.00  0.00     0.000 OA
ATOM     37   O  SGN C   2      66.063 185.516  95.9810  0.00  0.00     0.000 O
ENDBRANCH 22 32
BRANCH 18 38
ATOM     38  O4  IDS C   3      68.119 183.326  98.8120  0.00  0.00     0.000 O
BRANCH 38 42
ATOM     39  C1  IDS C   3      71.588 183.290  99.1180  0.00  0.00     0.000 C
ATOM     40  C2  IDS C   3      70.694 182.607 100.1650  0.00  0.00     0.000 C
ATOM     41  C3  IDS C   3      69.621 183.564 100.6840  0.00  0.00     0.000 C
ATOM     42  C4  IDS C   3      68.913 184.272  99.5370  0.00  0.00     0.000 C
ATOM     43  C5  IDS C   3      69.947 184.911  98.6030  0.00  0.00     0.000 C
ATOM     44  O5  IDS C   3      70.811 183.894  98.0980  0.00  0.00     0.000 O
ATOM     45   O  IDS C   3      70.226 184.529 101.5470  0.00  0.00     0.000 O
ATOM     47  HD  IDS C   3      70.875 185.096 101.4700  0.00  0.00     0.000 HD
BRANCH 40 47
ATOM     47   O  IDS C   3      69.999 181.438  99.5740  0.00  0.00     0.000 O
ATOM     48   S  IDS C   3      70.090 180.012 100.2920  0.00  0.00     0.000 S
ATOM     49   O  IDS C   3      71.400 179.488  99.9700  0.00  0.00     0.000 OA
ATOM     50   O  IDS C   3      69.022 179.226  99.7120  0.00  0.00     0.000 OA
ATOM     51   O  IDS C   3      69.915 180.253 101.6990  0.00  0.00     0.000 OA
ENDBRANCH 40 47
BRANCH 43 52
ATOM     52   C  IDS C   3      69.314 185.659  97.4510  0.00  0.00     0.000 C
ATOM     53   O  IDS C   3      69.405 185.223  96.3270  0.00  0.00     0.000 OA
ATOM     54   O  IDS C   3      68.721 186.686  97.6600  0.00  0.00     0.000 OA
ENDBRANCH 43 52
BRANCH 39 55
ATOM     55  O4  SGN C   4      72.701 183.958  99.4200  0.00  0.00     0.000 O
BRANCH 55 59
ATOM     56  C1  SGN C   4      75.699 183.692  96.5140  0.00  0.00     0.000 C
ATOM     57  C2  SGN C   4      75.798 182.711  97.6950  0.00  0.00     0.000 C
ATOM     58  C3  SGN C   4      74.473 182.638  98.4500  0.00  0.00     0.000 C
ATOM     59  C4  SGN C   4      73.983 184.035  98.8120  0.00  0.00     0.000 C
ATOM     60  C5  SGN C   4      73.906 184.874  97.5390  0.00  0.00     0.000 C
ATOM     61  O5  SGN C   4      75.227 184.950  96.9670  0.00  0.00     0.000 O
ATOM     62   O  SGN C   4      74.634 181.844  99.6170  0.00  0.00     0.000 O
ATOM     64  HD  SGN C   4      75.220 181.533  99.0610  0.00  0.00     0.000 HD
BRANCH 57 66
ATOM     64   N  SGN C   4      77.227 182.472  97.4380  0.00  0.00     0.000 N
ATOM     66  HD  SGN C   4      77.863 182.019  97.8130  0.00  0.00     0.000 HD
ATOM     66   S  SGN C   4      77.794 180.985  97.3260  0.00  0.00     0.000 S
ATOM     67   O  SGN C   4      79.196 181.077  97.1400  0.00  0.00     0.000 OA
ATOM     68   O  SGN C   4      77.283 180.260  98.4380  0.00  0.00     0.000 OA
ATOM     69   O  SGN C   4      77.133 180.433  96.0230  0.00  0.00     0.000 OA
ENDBRANCH 57 66
BRANCH 60 70
ATOM     70   C  SGN C   4      73.420 186.289  97.7680  0.00  0.00     0.000 C
ATOM     71   O  SGN C   4      73.627 189.164  95.3600  0.00  0.00     0.000 OA
ATOM     72   O  SGN C   4      71.696 187.797  95.8620  0.00  0.00     0.000 OA
ATOM     73   O  SGN C   4      73.860 187.153  96.7030  0.00  0.00     0.000 O
ATOM     74   S  SGN C   4      72.916 188.396  96.3560  0.00  0.00     0.000 S
ATOM     75   O  SGN C   4      72.747 189.096  97.6130  0.00  0.00     0.000 OA
ENDBRANCH 60 70
BRANCH 56 76
ATOM     76  O4  IDS C   5      75.405 183.594  95.2040  0.00  0.00     0.000 O
BRANCH 76 80
ATOM     77  C1  IDS C   5      71.643 184.214  93.7480  0.00  0.00     0.000 C
ATOM     78  C2  IDS C   5      71.955 182.760  94.1000  0.00  0.00     0.000 C
ATOM     79  C3  IDS C   5      73.162 182.700  95.0160  0.00  0.00     0.000 C
ATOM     80  C4  IDS C   5      74.397 183.190  94.2660  0.00  0.00     0.000 C
ATOM     81  C5  IDS C   5      74.007 184.366  93.3580  0.00  0.00     0.000 C
ATOM     82  O5  IDS C   5      72.826 185.007  93.8460  0.00  0.00     0.000 O
BRANCH 78 83
ATOM     83   O  IDS C   5      70.808 182.132  94.7960  0.00  0.00     0.000 O
ATOM     84   S  IDS C   5      70.216 180.750  94.2630  0.00  0.00     0.000 S
ATOM     85   O  IDS C   5      70.034 180.918  92.8460  0.00  0.00     0.000 OA
ATOM     86   O  IDS C   5      71.214 179.759  94.5930  0.00  0.00     0.000 OA
ATOM     87   O  IDS C   5      68.979 180.552  94.9770  0.00  0.00     0.000 OA
ENDBRANCH 78 83
BRANCH 81 88
ATOM     88   C  IDS C   5      75.084 185.427  93.2300  0.00  0.00     0.000 C
ATOM     89   O  IDS C   5      76.057 185.215  92.5560  0.00  0.00     0.000 OA
ATOM     90   O  IDS C   5      74.957 186.483  93.8060  0.00  0.00     0.000 OA
ENDBRANCH 81 88
ENDBRANCH 76 80
ENDBRANCH 56 76
ENDBRANCH 55 59
ENDBRANCH 39 55
ENDBRANCH 38 42
ENDBRANCH 18 38
ENDBRANCH 17 21
ENDBRANCH 1 17
TORSDOF 18
ENDMDL
MODEL 59
REMARK VINA RESULT:      -1.8    166.685    172.177
ROOT
ATOM      1  C1  IDS C   1      67.011 125.923 153.4850  0.00  0.00     0.000 C
ATOM      2  C2  IDS C   1      67.407 124.457 153.2890  0.00  0.00     0.000 C
ATOM      3  C3  IDS C   1      68.602 124.099 154.1600  0.00  0.00     0.000 C
ATOM      4  C4  IDS C   1      69.793 124.989 153.8300  0.00  0.00     0.000 C
ATOM      5  C5  IDS C   1      69.322 126.416 153.5670  0.00  0.00     0.000 C
ATOM      6  O5  IDS C   1      68.042 126.629 154.1630  0.00  0.00     0.000 O
ATOM      7   O  IDS C   1      68.951 122.722 153.9630  0.00  0.00     0.000 O
ATOM      9  HD  IDS C   1      68.221 122.269 153.8520  0.00  0.00     0.000 HD
ENDROOT
BRANCH 2 9
ATOM      9   O  IDS C   1      66.295 123.556 153.6660  0.00  0.00     0.000 O
ATOM     10   S  IDS C   1      65.765 122.482 152.6130  0.00  0.00     0.000 S
ATOM     11   O  IDS C   1      64.703 121.762 153.2810  0.00  0.00     0.000 OA
ATOM     12   O  IDS C   1      65.298 123.249 151.4760  0.00  0.00     0.000 OA
ATOM     13   O  IDS C   1      66.901 121.643 152.2990  0.00  0.00     0.000 OA
ENDBRANCH 2 9
BRANCH 5 14
ATOM     14   C  IDS C   1      70.288 127.450 154.1210  0.00  0.00     0.000 C
ATOM     15   O  IDS C   1      69.930 128.596 154.2360  0.00  0.00     0.000 OA
ATOM     16   O  IDS C   1      71.416 127.114 154.4400  0.00  0.00     0.000 OA
ENDBRANCH 5 14
BRANCH 1 17
ATOM     17  O4  SGN C   2      65.742 126.325 153.5980  0.00  0.00     0.000 O
BRANCH 17 21
ATOM     18  C1  SGN C   2      62.414 127.850 155.6300  0.00  0.00     0.000 C
ATOM     19  C2  SGN C   2      63.776 128.024 156.3140  0.00  0.00     0.000 C
ATOM     20  C3  SGN C   2      64.901 127.815 155.2930  0.00  0.00     0.000 C
ATOM     21  C4  SGN C   2      64.728 126.474 154.5880  0.00  0.00     0.000 C
ATOM     22  C5  SGN C   2      63.345 126.424 153.9460  0.00  0.00     0.000 C
ATOM     23  O5  SGN C   2      62.329 126.610 154.9590  0.00  0.00     0.000 O
ATOM     24   O  SGN C   2      66.160 127.889 155.9400  0.00  0.00     0.000 O
ATOM     26  HD  SGN C   2      65.580 128.034 155.3140  0.00  0.00     0.000 HD
BRANCH 19 28
ATOM     26   N  SGN C   2      63.487 129.102 157.2700  0.00  0.00     0.000 N
ATOM     28  HD  SGN C   2      62.739 128.668 157.2160  0.00  0.00     0.000 HD
ATOM     28   O  SGN C   2      64.281 130.621 159.0830  0.00  0.00     0.000 OA
ATOM     29   S  SGN C   2      64.070 129.101 158.7680  0.00  0.00     0.000 S
ATOM     30   O  SGN C   2      63.059 128.600 159.6180  0.00  0.00     0.000 OA
ATOM     31   O  SGN C   2      65.341 128.464 158.7360  0.00  0.00     0.000 OA
ENDBRANCH 19 28
BRANCH 22 32
ATOM     32   C  SGN C   2      63.047 125.109 153.2680  0.00  0.00     0.000 C
ATOM     33   S  SGN C   2      61.055 123.906 152.1600  0.00  0.00     0.000 S
ATOM     34   O  SGN C   2      60.461 123.574 153.4310  0.00  0.00     0.000 OA
ATOM     35   O  SGN C   2      60.090 124.278 151.1470  0.00  0.00     0.000 OA
ATOM     36   O  SGN C   2      62.033 122.949 151.6990  0.00  0.00     0.000 OA
ATOM     37   O  SGN C   2      61.880 125.243 152.4490  0.00  0.00     0.000 O
ENDBRANCH 22 32
BRANCH 18 38
ATOM     38  O4  IDS C   3      61.728 128.689 154.8500  0.00  0.00     0.000 O
BRANCH 38 42
ATOM     39  C1  IDS C   3      60.044 130.376 152.3120  0.00  0.00     0.000 C
ATOM     40  C2  IDS C   3      61.188 131.049 153.0860  0.00  0.00     0.000 C
ATOM     41  C3  IDS C   3      60.961 130.961 154.5950  0.00  0.00     0.000 C
ATOM     42  C4  IDS C   3      60.592 129.544 155.0140  0.00  0.00     0.000 C
ATOM     43  C5  IDS C   3      59.426 129.036 154.1580  0.00  0.00     0.000 C
ATOM     44  O5  IDS C   3      59.811 129.060 152.7840  0.00  0.00     0.000 O
ATOM     45   O  IDS C   3      59.918 131.862 154.9700  0.00  0.00     0.000 O
ATOM     47  HD  IDS C   3      59.096 131.983 154.7250  0.00  0.00     0.000 HD
BRANCH 40 47
ATOM     47   O  IDS C   3      62.479 130.383 152.7910  0.00  0.00     0.000 O
ATOM     48   S  IDS C   3      63.546 131.102 151.8410  0.00  0.00     0.000 S
ATOM     49   O  IDS C   3      63.060 130.921 150.4900  0.00  0.00     0.000 OA
ATOM     50   O  IDS C   3      64.794 130.410 152.0770  0.00  0.00     0.000 OA
ATOM     51   O  IDS C   3      63.581 132.484 152.2400  0.00  0.00     0.000 OA
ENDBRANCH 40 47
BRANCH 43 52
ATOM     52   C  IDS C   3      58.985 127.640 154.5380  0.00  0.00     0.000 C
ATOM     53   O  IDS C   3      58.468 127.443 155.6130  0.00  0.00     0.000 OA
ATOM     54   O  IDS C   3      59.150 126.731 153.7650  0.00  0.00     0.000 OA
ENDBRANCH 43 52
BRANCH 39 55
ATOM     55  O4  SGN C   4      58.942 131.015 151.9190  0.00  0.00     0.000 O
BRANCH 55 59
ATOM     56  C1  SGN C   4      58.463 131.123 147.7640  0.00  0.00     0.000 C
ATOM     57  C2  SGN C   4      58.959 132.416 148.4330  0.00  0.00     0.000 C
ATOM     58  C3  SGN C   4      59.462 132.136 149.8470  0.00  0.00     0.000 C
ATOM     59  C4  SGN C   4      58.420 131.359 150.6440  0.00  0.00     0.000 C
ATOM     60  C5  SGN C   4      58.056 130.093 149.8710  0.00  0.00     0.000 C
ATOM     61  O5  SGN C   4      57.508 130.483 148.5960  0.00  0.00     0.000 O
ATOM     62   O  SGN C   4      59.774 133.363 150.4930  0.00  0.00     0.000 O
ATOM     64  HD  SGN C   4      59.897 133.524 149.6510  0.00  0.00     0.000 HD
BRANCH 57 66
ATOM     64   N  SGN C   4      59.162 132.768 147.0190  0.00  0.00     0.000 N
ATOM     66  HD  SGN C   4      58.857 133.367 146.4730  0.00  0.00     0.000 HD
ATOM     66   S  SGN C   4      59.572 134.253 146.6020  0.00  0.00     0.000 S
ATOM     67   O  SGN C   4      59.632 134.296 145.1860  0.00  0.00     0.000 OA
ATOM     68   O  SGN C   4      58.695 135.135 147.2910  0.00  0.00     0.000 OA
ATOM     69   O  SGN C   4      61.011 134.418 147.1870  0.00  0.00     0.000 OA
ENDBRANCH 57 66
BRANCH 60 70
ATOM     70   C  SGN C   4      57.030 129.226 150.5680  0.00  0.00     0.000 C
ATOM     71   O  SGN C   4      55.581 125.996 149.3150  0.00  0.00     0.000 OA
ATOM     72   O  SGN C   4      57.318 126.287 150.9720  0.00  0.00     0.000 OA
ATOM     73   O  SGN C   4      56.568 128.183 149.6880  0.00  0.00     0.000 O
ATOM     74   S  SGN C   4      56.110 126.816 150.3800  0.00  0.00     0.000 S
ATOM     75   O  SGN C   4      55.114 127.210 151.3550  0.00  0.00     0.000 OA
ENDBRANCH 60 70
BRANCH 56 76
ATOM     76  O4  IDS C   5      59.004 130.183 146.9680  0.00  0.00     0.000 O
BRANCH 76 80
ATOM     77  C1  IDS C   5      60.407 126.670 148.5000  0.00  0.00     0.000 C
ATOM     78  C2  IDS C   5      61.466 127.761 148.3420  0.00  0.00     0.000 C
ATOM     79  C3  IDS C   5      60.795 129.112 148.1980  0.00  0.00     0.000 C
ATOM     80  C4  IDS C   5      60.001 129.152 146.8960  0.00  0.00     0.000 C
ATOM     81  C5  IDS C   5      59.342 127.785 146.6600  0.00  0.00     0.000 C
ATOM     82  O5  IDS C   5      59.182 127.085 147.8970  0.00  0.00     0.000 O
BRANCH 78 83
ATOM     83   O  IDS C   5      62.355 127.803 149.5270  0.00  0.00     0.000 O
ATOM     84   S  IDS C   5      63.904 127.453 149.3680  0.00  0.00     0.000 S
ATOM     85   O  IDS C   5      63.957 126.222 148.6270  0.00  0.00     0.000 OA
ATOM     86   O  IDS C   5      64.473 128.572 148.6540  0.00  0.00     0.000 OA
ATOM     87   O  IDS C   5      64.416 127.333 150.7120  0.00  0.00     0.000 OA
ENDBRANCH 78 83
BRANCH 81 88
ATOM     88   C  IDS C   5      57.978 127.865 145.9990  0.00  0.00     0.000 C
ATOM     89   O  IDS C   5      56.986 127.660 146.6460  0.00  0.00     0.000 OA
ATOM     90   O  IDS C   5      57.897 128.136 144.8230  0.00  0.00     0.000 OA
ENDBRANCH 81 88
ENDBRANCH 76 80
ENDBRANCH 56 76
ENDBRANCH 55 59
ENDBRANCH 39 55
ENDBRANCH 38 42
ENDBRANCH 18 38
ENDBRANCH 17 21
ENDBRANCH 1 17
TORSDOF 18
ENDMDL
MODEL 60
REMARK VINA RESULT:      -1.8    168.809    173.685
ROOT
ATOM      1  C1  IDS C   1      77.807 104.861 184.2440  0.00  0.00     0.000 C
ATOM      2  C2  IDS C   1      78.190 106.117 183.4570  0.00  0.00     0.000 C
ATOM      3  C3  IDS C   1      76.965 106.738 182.8010  0.00  0.00     0.000 C
ATOM      4  C4  IDS C   1      76.295 105.743 181.8640  0.00  0.00     0.000 C
ATOM      5  C5  IDS C   1      76.322 104.346 182.4780  0.00  0.00     0.000 C
ATOM      6  O5  IDS C   1      76.497 104.435 183.8920  0.00  0.00     0.000 O
ATOM      7   O  IDS C   1      77.347 107.914 182.0740  0.00  0.00     0.000 O
ATOM      9  HD  IDS C   1      77.973 108.316 182.5170  0.00  0.00     0.000 HD
ENDROOT
BRANCH 2 9
ATOM      9   O  IDS C   1      78.784 107.138 184.3490  0.00  0.00     0.000 O
ATOM     10   S  IDS C   1      80.223 107.734 184.0090  0.00  0.00     0.000 S
ATOM     11   O  IDS C   1      80.507 108.700 185.0470  0.00  0.00     0.000 OA
ATOM     12   O  IDS C   1      81.128 106.602 184.0290  0.00  0.00     0.000 OA
ATOM     13   O  IDS C   1      80.102 108.336 182.7000  0.00  0.00     0.000 OA
ENDBRANCH 2 9
BRANCH 5 14
ATOM     14   C  IDS C   1      75.044 103.573 182.1980  0.00  0.00     0.000 C
ATOM     15   O  IDS C   1      74.634 103.492 181.0660  0.00  0.00     0.000 OA
ATOM     16   O  IDS C   1      74.444 103.043 183.1190  0.00  0.00     0.000 OA
ENDBRANCH 5 14
BRANCH 1 17
ATOM     17  O4  SGN C   2      78.294 104.586 185.4580  0.00  0.00     0.000 O
BRANCH 17 21
ATOM     18  C1  SGN C   2      78.135 104.230 189.6260  0.00  0.00     0.000 C
ATOM     19  C2  SGN C   2      76.790 104.314 188.8920  0.00  0.00     0.000 C
ATOM     20  C3  SGN C   2      76.993 104.014 187.4010  0.00  0.00     0.000 C
ATOM     21  C4  SGN C   2      78.072 104.923 186.8250  0.00  0.00     0.000 C
ATOM     22  C5  SGN C   2      79.355 104.747 187.6310  0.00  0.00     0.000 C
ATOM     23  O5  SGN C   2      79.105 105.059 189.0210  0.00  0.00     0.000 O
ATOM     24   O  SGN C   2      75.768 104.176 186.7060  0.00  0.00     0.000 O
ATOM     26  HD  SGN C   2      76.519 103.797 186.9130  0.00  0.00     0.000 HD
BRANCH 19 28
ATOM     26   N  SGN C   2      75.872 103.768 189.9010  0.00  0.00     0.000 N
ATOM     28  HD  SGN C   2      76.482 104.164 190.3700  0.00  0.00     0.000 HD
ATOM     28   O  SGN C   2      73.548 103.154 190.5650  0.00  0.00     0.000 OA
ATOM     29   S  SGN C   2      74.416 104.395 190.1650  0.00  0.00     0.000 S
ATOM     30   O  SGN C   2      74.518 105.253 191.2830  0.00  0.00     0.000 OA
ATOM     31   O  SGN C   2      73.934 104.905 188.9290  0.00  0.00     0.000 OA
ENDBRANCH 19 28
BRANCH 22 32
ATOM     32   C  SGN C   2      80.476 105.649 187.1770  0.00  0.00     0.000 C
ATOM     33   S  SGN C   2      82.189 107.279 188.2030  0.00  0.00     0.000 S
ATOM     34   O  SGN C   2      81.203 108.316 188.3750  0.00  0.00     0.000 OA
ATOM     35   O  SGN C   2      83.136 107.191 189.2950  0.00  0.00     0.000 OA
ATOM     36   O  SGN C   2      82.811 107.268 186.9000  0.00  0.00     0.000 OA
ATOM     37   O  SGN C   2      81.351 105.922 188.2780  0.00  0.00     0.000 O
ENDBRANCH 22 32
BRANCH 18 38
ATOM     38  O4  IDS C   3      78.828 103.165 190.0360  0.00  0.00     0.000 O
BRANCH 38 42
ATOM     39  C1  IDS C   3      81.206 100.686 190.6060  0.00  0.00     0.000 C
ATOM     40  C2  IDS C   3      79.738 100.326 190.3240  0.00  0.00     0.000 C
ATOM     41  C3  IDS C   3      78.794 101.086 191.2560  0.00  0.00     0.000 C
ATOM     42  C4  IDS C   3      79.138 102.568 191.2990  0.00  0.00     0.000 C
ATOM     43  C5  IDS C   3      80.629 102.746 191.6100  0.00  0.00     0.000 C
ATOM     44  O5  IDS C   3      81.397 102.091 190.6020  0.00  0.00     0.000 O
ATOM     45   O  IDS C   3      78.879 100.532 192.5700  0.00  0.00     0.000 O
ATOM     47  HD  IDS C   3      79.522 100.386 193.1320  0.00  0.00     0.000 HD
BRANCH 40 47
ATOM     47   O  IDS C   3      79.373 100.683 188.9330  0.00  0.00     0.000 O
ATOM     48   S  IDS C   3      79.839  99.747 187.7230  0.00  0.00     0.000 S
ATOM     49   O  IDS C   3      81.239 100.043 187.5090  0.00  0.00     0.000 OA
ATOM     50   O  IDS C   3      79.014 100.136 186.6010  0.00  0.00     0.000 OA
ATOM     51   O  IDS C   3      79.615  98.391 188.1480  0.00  0.00     0.000 OA
ENDBRANCH 40 47
BRANCH 43 52
ATOM     52   C  IDS C   3      81.040 104.199 191.6970  0.00  0.00     0.000 C
ATOM     53   O  IDS C   3      82.050 104.575 191.1460  0.00  0.00     0.000 OA
ATOM     54   O  IDS C   3      80.358 104.977 192.3150  0.00  0.00     0.000 OA
ENDBRANCH 43 52
BRANCH 39 55
ATOM     55  O4  SGN C   4      81.970 100.036 191.4840  0.00  0.00     0.000 O
BRANCH 55 59
ATOM     56  C1  SGN C   4      85.973  99.690 190.3160  0.00  0.00     0.000 C
ATOM     57  C2  SGN C   4      85.073  98.469 190.0590  0.00  0.00     0.000 C
ATOM     58  C3  SGN C   4      83.599  98.852 190.1540  0.00  0.00     0.000 C
ATOM     59  C4  SGN C   4      83.320  99.594 191.4560  0.00  0.00     0.000 C
ATOM     60  C5  SGN C   4      84.262 100.792 191.5510  0.00  0.00     0.000 C
ATOM     61  O5  SGN C   4      85.618 100.302 191.5460  0.00  0.00     0.000 O
ATOM     62   O  SGN C   4      82.796  97.683 190.0600  0.00  0.00     0.000 O
ATOM     64  HD  SGN C   4      83.513  97.490 189.6150  0.00  0.00     0.000 HD
BRANCH 57 66
ATOM     64   N  SGN C   4      85.860  98.085 188.8750  0.00  0.00     0.000 N
ATOM     66  HD  SGN C   4      86.627  97.712 188.7290  0.00  0.00     0.000 HD
ATOM     66   S  SGN C   4      86.394  96.591 188.7050  0.00  0.00     0.000 S
ATOM     67   O  SGN C   4      87.160  96.547 187.5130  0.00  0.00     0.000 OA
ATOM     68   O  SGN C   4      86.998  96.222 189.9380  0.00  0.00     0.000 OA
ATOM     69   O  SGN C   4      85.090  95.751 188.5150  0.00  0.00     0.000 OA
ENDBRANCH 57 66
BRANCH 60 70
ATOM     70   C  SGN C   4      84.075 101.619 192.8040  0.00  0.00     0.000 C
ATOM     71   O  SGN C   4      85.268 100.775 196.2640  0.00  0.00     0.000 OA
ATOM     72   O  SGN C   4      86.270 102.318 194.6940  0.00  0.00     0.000 OA
ATOM     73   O  SGN C   4      84.484 100.874 193.9670  0.00  0.00     0.000 O
ATOM     74   S  SGN C   4      85.052 101.724 195.1960  0.00  0.00     0.000 S
ATOM     75   O  SGN C   4      84.014 102.694 195.4870  0.00  0.00     0.000 OA
ENDBRANCH 60 70
BRANCH 56 76
ATOM     76  O4  IDS C   5      86.567 100.625 189.5520  0.00  0.00     0.000 O
BRANCH 76 80
ATOM     77  C1  IDS C   5      84.440 103.964 188.5600  0.00  0.00     0.000 C
ATOM     78  C2  IDS C   5      84.487 102.894 187.4700  0.00  0.00     0.000 C
ATOM     79  C3  IDS C   5      84.898 101.564 188.0700  0.00  0.00     0.000 C
ATOM     80  C4  IDS C   5      86.332 101.657 188.5830  0.00  0.00     0.000 C
ATOM     81  C5  IDS C   5      86.560 103.041 189.2080  0.00  0.00     0.000 C
ATOM     82  O5  IDS C   5      85.318 103.613 189.6300  0.00  0.00     0.000 O
BRANCH 78 83
ATOM     83   O  IDS C   5      83.157 102.732 186.8380  0.00  0.00     0.000 O
ATOM     84   S  IDS C   5      82.951 103.134 185.3080  0.00  0.00     0.000 S
ATOM     85   O  IDS C   5      83.522 104.447 185.1640  0.00  0.00     0.000 OA
ATOM     86   O  IDS C   5      83.653 102.123 184.5530  0.00  0.00     0.000 OA
ATOM     87   O  IDS C   5      81.526 103.106 185.0850  0.00  0.00     0.000 OA
ENDBRANCH 78 83
BRANCH 81 88
ATOM     88   C  IDS C   5      87.489 103.029 190.4090  0.00  0.00     0.000 C
ATOM     89   O  IDS C   5      87.048 103.223 191.5090  0.00  0.00     0.000 OA
ATOM     90   O  IDS C   5      88.671 102.824 190.2490  0.00  0.00     0.000 OA
ENDBRANCH 81 88
ENDBRANCH 76 80
ENDBRANCH 56 76
ENDBRANCH 55 59
ENDBRANCH 39 55
ENDBRANCH 38 42
ENDBRANCH 18 38
ENDBRANCH 17 21
ENDBRANCH 1 17
TORSDOF 18
ENDMDL
MODEL 61
REMARK VINA RESULT:      -1.8    196.969    203.513
ROOT
ATOM      1  C1  IDS C   1     142.981 177.605 188.9690  0.00  0.00     0.000 C
ATOM      2  C2  IDS C   1     142.210 177.482 190.2860  0.00  0.00     0.000 C
ATOM      3  C3  IDS C   1     142.286 178.778 191.0800  0.00  0.00     0.000 C
ATOM      4  C4  IDS C   1     143.735 179.141 191.3780  0.00  0.00     0.000 C
ATOM      5  C5  IDS C   1     144.613 178.824 190.1710  0.00  0.00     0.000 C
ATOM      6  O5  IDS C   1     143.816 178.756 188.9890  0.00  0.00     0.000 O
ATOM      7   O  IDS C   1     141.554 178.639 192.3060  0.00  0.00     0.000 O
ATOM      9  HD  IDS C   1     140.855 178.152 192.1520  0.00  0.00     0.000 HD
ENDROOT
BRANCH 2 9
ATOM      9   O  IDS C   1     140.780 177.196 190.0340  0.00  0.00     0.000 O
ATOM     10   S  IDS C   1     140.104 175.921 190.7120  0.00  0.00     0.000 S
ATOM     11   O  IDS C   1     138.722 175.931 190.2870  0.00  0.00     0.000 OA
ATOM     12   O  IDS C   1     140.840 174.778 190.2110  0.00  0.00     0.000 OA
ATOM     13   O  IDS C   1     140.254 176.106 192.1390  0.00  0.00     0.000 OA
ENDBRANCH 2 9
BRANCH 5 14
ATOM     14   C  IDS C   1     145.697 179.866 189.9620  0.00  0.00     0.000 C
ATOM     15   O  IDS C   1     145.798 180.411 188.8900  0.00  0.00     0.000 OA
ATOM     16   O  IDS C   1     146.457 180.141 190.8760  0.00  0.00     0.000 OA
ENDBRANCH 5 14
BRANCH 1 17
ATOM     17  O4  SGN C   2     142.515 177.139 187.8070  0.00  0.00     0.000 O
BRANCH 17 21
ATOM     18  C1  SGN C   2     140.838 177.450 183.9840  0.00  0.00     0.000 C
ATOM     19  C2  SGN C   2     141.433 178.732 184.5790  0.00  0.00     0.000 C
ATOM     20  C3  SGN C   2     142.360 178.380 185.7490  0.00  0.00     0.000 C
ATOM     21  C4  SGN C   2     141.622 177.512 186.7610  0.00  0.00     0.000 C
ATOM     22  C5  SGN C   2     141.084 176.271 186.0530  0.00  0.00     0.000 C
ATOM     23  O5  SGN C   2     140.206 176.666 184.9740  0.00  0.00     0.000 O
ATOM     24   O  SGN C   2     142.842 179.567 186.3550  0.00  0.00     0.000 O
ATOM     26  HD  SGN C   2     142.888 178.762 186.0410  0.00  0.00     0.000 HD
BRANCH 19 28
ATOM     26   N  SGN C   2     141.618 179.554 183.3750  0.00  0.00     0.000 N
ATOM     28  HD  SGN C   2     140.916 179.081 183.1950  0.00  0.00     0.000 HD
ATOM     28   O  SGN C   2     142.352 181.706 182.3490  0.00  0.00     0.000 OA
ATOM     29   S  SGN C   2     141.297 181.129 183.3520  0.00  0.00     0.000 S
ATOM     30   O  SGN C   2     140.009 181.293 182.7960  0.00  0.00     0.000 OA
ATOM     31   O  SGN C   2     141.574 181.645 184.6480  0.00  0.00     0.000 OA
ENDBRANCH 19 28
BRANCH 22 32
ATOM     32   C  SGN C   2     140.282 175.367 186.9580  0.00  0.00     0.000 C
ATOM     33   S  SGN C   2     138.017 174.139 186.9570  0.00  0.00     0.000 S
ATOM     34   O  SGN C   2     137.284 175.347 187.2410  0.00  0.00     0.000 OA
ATOM     35   O  SGN C   2     137.346 173.259 186.0220  0.00  0.00     0.000 OA
ATOM     36   O  SGN C   2     138.511 173.460 188.1310  0.00  0.00     0.000 OA
ATOM     37   O  SGN C   2     139.320 174.642 186.1840  0.00  0.00     0.000 O
ENDBRANCH 22 32
BRANCH 18 38
ATOM     38  O4  IDS C   3     141.378 176.552 183.1560  0.00  0.00     0.000 O
BRANCH 38 42
ATOM     39  C1  IDS C   3     142.811 173.798 181.5790  0.00  0.00     0.000 C
ATOM     40  C2  IDS C   3     143.475 175.183 181.5130  0.00  0.00     0.000 C
ATOM     41  C3  IDS C   3     142.488 176.247 181.0370  0.00  0.00     0.000 C
ATOM     42  C4  IDS C   3     141.171 176.156 181.7960  0.00  0.00     0.000 C
ATOM     43  C5  IDS C   3     140.641 174.718 181.7450  0.00  0.00     0.000 C
ATOM     44  O5  IDS C   3     141.607 173.844 182.3260  0.00  0.00     0.000 O
ATOM     45   O  IDS C   3     142.250 176.081 179.6380  0.00  0.00     0.000 O
ATOM     47  HD  IDS C   3     141.984 175.427 179.1360  0.00  0.00     0.000 HD
BRANCH 40 47
ATOM     47   O  IDS C   3     143.959 175.592 182.8530  0.00  0.00     0.000 O
ATOM     48   S  IDS C   3     145.524 175.554 183.1800  0.00  0.00     0.000 S
ATOM     49   O  IDS C   3     145.849 174.162 183.4070  0.00  0.00     0.000 OA
ATOM     50   O  IDS C   3     145.685 176.361 184.3690  0.00  0.00     0.000 OA
ATOM     51   O  IDS C   3     146.193 176.101 182.0300  0.00  0.00     0.000 OA
ENDBRANCH 40 47
BRANCH 43 52
ATOM     52   C  IDS C   3     139.316 174.556 182.4570  0.00  0.00     0.000 C
ATOM     53   O  IDS C   3     139.122 173.589 183.1570  0.00  0.00     0.000 OA
ATOM     54   O  IDS C   3     138.461 175.394 182.3240  0.00  0.00     0.000 OA
ENDBRANCH 43 52
BRANCH 39 55
ATOM     55  O4  SGN C   4     142.784 172.942 180.5570  0.00  0.00     0.000 O
BRANCH 55 59
ATOM     56  C1  SGN C   4     142.570 168.925 181.7050  0.00  0.00     0.000 C
ATOM     57  C2  SGN C   4     143.968 169.469 181.3630  0.00  0.00     0.000 C
ATOM     58  C3  SGN C   4     143.967 170.995 181.3520  0.00  0.00     0.000 C
ATOM     59  C4  SGN C   4     142.838 171.525 180.4750  0.00  0.00     0.000 C
ATOM     60  C5  SGN C   4     141.519 170.925 180.9570  0.00  0.00     0.000 C
ATOM     61  O5  SGN C   4     141.603 169.491 180.8350  0.00  0.00     0.000 O
ATOM     62   O  SGN C   4     145.225 171.468 180.8900  0.00  0.00     0.000 O
ATOM     64  HD  SGN C   4     145.402 170.702 181.2530  0.00  0.00     0.000 HD
BRANCH 57 66
ATOM     64   N  SGN C   4     144.493 168.110 181.1520  0.00  0.00     0.000 N
ATOM     66  HD  SGN C   4     145.244 167.763 180.8960  0.00  0.00     0.000 HD
ATOM     66   S  SGN C   4     145.841 167.641 181.8660  0.00  0.00     0.000 S
ATOM     67   O  SGN C   4     146.119 166.323 181.4250  0.00  0.00     0.000 OA
ATOM     68   O  SGN C   4     146.803 168.667 181.6530  0.00  0.00     0.000 OA
ATOM     69   O  SGN C   4     145.467 167.613 183.3820  0.00  0.00     0.000 OA
ENDBRANCH 57 66
BRANCH 60 70
ATOM     70   C  SGN C   4     140.314 171.386 180.1660  0.00  0.00     0.000 C
ATOM     71   O  SGN C   4     137.097 169.515 179.6620  0.00  0.00     0.000 OA
ATOM     72   O  SGN C   4     137.517 171.337 181.1950  0.00  0.00     0.000 OA
ATOM     73   O  SGN C   4     139.361 170.315 180.0280  0.00  0.00     0.000 O
ATOM     74   S  SGN C   4     137.823 170.738 179.9160  0.00  0.00     0.000 S
ATOM     75   O  SGN C   4     137.776 171.677 178.8130  0.00  0.00     0.000 OA
ENDBRANCH 60 70
BRANCH 56 76
ATOM     76  O4  IDS C   5     141.933 168.546 182.8290  0.00  0.00     0.000 O
BRANCH 76 80
ATOM     77  C1  IDS C   5     140.125 171.102 185.4470  0.00  0.00     0.000 C
ATOM     78  C2  IDS C   5     141.606 170.848 185.7290  0.00  0.00     0.000 C
ATOM     79  C3  IDS C   5     142.272 170.270 184.4960  0.00  0.00     0.000 C
ATOM     80  C4  IDS C   5     141.692 168.890 184.2010  0.00  0.00     0.000 C
ATOM     81  C5  IDS C   5     140.184 168.899 184.4950  0.00  0.00     0.000 C
ATOM     82  O5  IDS C   5     139.665 170.230 184.4150  0.00  0.00     0.000 O
BRANCH 78 83
ATOM     83   O  IDS C   5     142.295 172.110 186.0850  0.00  0.00     0.000 O
ATOM     84   S  IDS C   5     142.838 172.325 187.5700  0.00  0.00     0.000 S
ATOM     85   O  IDS C   5     141.751 171.973 188.4430  0.00  0.00     0.000 OA
ATOM     86   O  IDS C   5     143.972 171.440 187.6900  0.00  0.00     0.000 OA
ATOM     87   O  IDS C   5     143.208 173.717 187.6530  0.00  0.00     0.000 OA
ENDBRANCH 78 83
BRANCH 81 88
ATOM     88   C  IDS C   5     139.369 168.032 183.5530  0.00  0.00     0.000 C
ATOM     89   O  IDS C   5     138.710 168.544 182.6870  0.00  0.00     0.000 OA
ATOM     90   O  IDS C   5     139.387 166.829 183.6790  0.00  0.00     0.000 OA
ENDBRANCH 81 88
ENDBRANCH 76 80
ENDBRANCH 56 76
ENDBRANCH 55 59
ENDBRANCH 39 55
ENDBRANCH 38 42
ENDBRANCH 18 38
ENDBRANCH 17 21
ENDBRANCH 1 17
TORSDOF 18
ENDMDL
MODEL 62
REMARK VINA RESULT:      -1.8    166.280    172.857
ROOT
ATOM      1  C1  IDS C   1      65.974 125.884 152.2430  0.00  0.00     0.000 C
ATOM      2  C2  IDS C   1      66.524 124.491 151.9250  0.00  0.00     0.000 C
ATOM      3  C3  IDS C   1      67.803 124.224 152.7050  0.00  0.00     0.000 C
ATOM      4  C4  IDS C   1      68.861 125.268 152.3760  0.00  0.00     0.000 C
ATOM      5  C5  IDS C   1      68.214 126.643 152.2380  0.00  0.00     0.000 C
ATOM      6  O5  IDS C   1      66.956 126.664 152.9130  0.00  0.00     0.000 O
ATOM      7   O  IDS C   1      68.296 122.913 152.3940  0.00  0.00     0.000 O
ATOM      9  HD  IDS C   1      67.617 122.384 152.2910  0.00  0.00     0.000 HD
ENDROOT
BRANCH 2 9
ATOM      9   O  IDS C   1      65.547 123.442 152.2960  0.00  0.00     0.000 O
ATOM     10   S  IDS C   1      65.104 122.364 151.2080  0.00  0.00     0.000 S
ATOM     11   O  IDS C   1      64.170 121.486 151.8770  0.00  0.00     0.000 OA
ATOM     12   O  IDS C   1      64.496 123.122 150.1340  0.00  0.00     0.000 OA
ATOM     13   O  IDS C   1      66.317 121.688 150.8040  0.00  0.00     0.000 OA
ENDBRANCH 2 9
BRANCH 5 14
ATOM     14   C  IDS C   1      69.086 127.747 152.8100  0.00  0.00     0.000 C
ATOM     15   O  IDS C   1      70.254 127.531 153.0210  0.00  0.00     0.000 OA
ATOM     16   O  IDS C   1      68.599 128.838 153.0540  0.00  0.00     0.000 OA
ENDBRANCH 5 14
BRANCH 1 17
ATOM     17  O4  SGN C   2      64.676 126.124 152.4500  0.00  0.00     0.000 O
BRANCH 17 21
ATOM     18  C1  SGN C   2      61.265 126.892 154.7520  0.00  0.00     0.000 C
ATOM     19  C2  SGN C   2      62.620 127.146 155.4260  0.00  0.00     0.000 C
ATOM     20  C3  SGN C   2      63.720 127.234 154.3610  0.00  0.00     0.000 C
ATOM     21  C4  SGN C   2      63.692 125.996 153.4730  0.00  0.00     0.000 C
ATOM     22  C5  SGN C   2      62.302 125.855 152.8600  0.00  0.00     0.000 C
ATOM     23  O5  SGN C   2      61.312 125.760 153.9090  0.00  0.00     0.000 O
ATOM     24   O  SGN C   2      64.984 127.382 154.9860  0.00  0.00     0.000 O
ATOM     26  HD  SGN C   2      64.366 127.536 154.4000  0.00  0.00     0.000 HD
BRANCH 19 28
ATOM     26   N  SGN C   2      62.233 128.026 156.5370  0.00  0.00     0.000 N
ATOM     28  HD  SGN C   2      61.549 127.503 156.4410  0.00  0.00     0.000 HD
ATOM     28   O  SGN C   2      62.899 129.367 158.5320  0.00  0.00     0.000 OA
ATOM     29   S  SGN C   2      62.881 127.894 158.0030  0.00  0.00     0.000 S
ATOM     30   O  SGN C   2      61.988 127.139 158.7960  0.00  0.00     0.000 OA
ATOM     31   O  SGN C   2      64.223 127.453 157.8430  0.00  0.00     0.000 OA
ENDBRANCH 19 28
BRANCH 22 32
ATOM     32   C  SGN C   2      62.148 124.622 152.0030  0.00  0.00     0.000 C
ATOM     33   S  SGN C   2      60.493 122.671 151.6940  0.00  0.00     0.000 S
ATOM     34   O  SGN C   2      60.965 121.993 152.8750  0.00  0.00     0.000 OA
ATOM     35   O  SGN C   2      59.059 122.584 151.5080  0.00  0.00     0.000 OA
ATOM     36   O  SGN C   2      61.247 122.368 150.5000  0.00  0.00     0.000 OA
ATOM     37   O  SGN C   2      60.775 124.215 151.9870  0.00  0.00     0.000 O
ENDBRANCH 22 32
BRANCH 18 38
ATOM     38  O4  IDS C   3      60.447 127.735 154.1180  0.00  0.00     0.000 O
BRANCH 38 42
ATOM     39  C1  IDS C   3      58.926 130.627 152.9130  0.00  0.00     0.000 C
ATOM     40  C2  IDS C   3      59.375 130.520 154.3790  0.00  0.00     0.000 C
ATOM     41  C3  IDS C   3      58.819 129.258 155.0370  0.00  0.00     0.000 C
ATOM     42  C4  IDS C   3      59.047 128.034 154.1610  0.00  0.00     0.000 C
ATOM     43  C5  IDS C   3      58.526 128.304 152.7450  0.00  0.00     0.000 C
ATOM     44  O5  IDS C   3      59.209 129.433 152.2030  0.00  0.00     0.000 O
ATOM     45   O  IDS C   3      57.420 129.426 155.2760  0.00  0.00     0.000 O
ATOM     47  HD  IDS C   3      56.735 129.625 154.7860  0.00  0.00     0.000 HD
BRANCH 40 47
ATOM     47   O  IDS C   3      60.853 130.453 154.4670  0.00  0.00     0.000 O
ATOM     48   S  IDS C   3      61.642 131.484 155.4020  0.00  0.00     0.000 S
ATOM     49   O  IDS C   3      61.669 132.737 154.6790  0.00  0.00     0.000 OA
ATOM     50   O  IDS C   3      62.961 130.913 155.5690  0.00  0.00     0.000 OA
ATOM     51   O  IDS C   3      60.901 131.566 156.6320  0.00  0.00     0.000 OA
ENDBRANCH 40 47
BRANCH 43 52
ATOM     52   C  IDS C   3      58.694 127.117 151.8220  0.00  0.00     0.000 C
ATOM     53   O  IDS C   3      58.030 126.121 151.9940  0.00  0.00     0.000 OA
ATOM     54   O  IDS C   3      59.490 127.171 150.9200  0.00  0.00     0.000 OA
ENDBRANCH 43 52
BRANCH 39 55
ATOM     55  O4  SGN C   4      57.804 131.235 152.5270  0.00  0.00     0.000 O
BRANCH 55 59
ATOM     56  C1  SGN C   4      58.085 133.197 148.8420  0.00  0.00     0.000 C
ATOM     57  C2  SGN C   4      58.334 134.051 150.0970  0.00  0.00     0.000 C
ATOM     58  C3  SGN C   4      58.593 133.165 151.3130  0.00  0.00     0.000 C
ATOM     59  C4  SGN C   4      57.496 132.116 151.4560  0.00  0.00     0.000 C
ATOM     60  C5  SGN C   4      57.392 131.333 150.1500  0.00  0.00     0.000 C
ATOM     61  O5  SGN C   4      57.055 132.255 149.0950  0.00  0.00     0.000 O
ATOM     62   O  SGN C   4      58.672 133.971 152.4810  0.00  0.00     0.000 O
ATOM     64  HD  SGN C   4      58.932 134.492 151.8400  0.00  0.00     0.000 HD
BRANCH 57 66
ATOM     64   N  SGN C   4      58.076 135.295 149.3540  0.00  0.00     0.000 N
ATOM     66  HD  SGN C   4      58.030 136.139 149.5440  0.00  0.00     0.000 HD
ATOM     66   S  SGN C   4      59.106 136.512 149.4270  0.00  0.00     0.000 S
ATOM     67   O  SGN C   4      58.560 137.577 148.6670  0.00  0.00     0.000 OA
ATOM     68   O  SGN C   4      59.411 136.718 150.8000  0.00  0.00     0.000 OA
ATOM     69   O  SGN C   4      60.380 135.963 148.7080  0.00  0.00     0.000 OA
ENDBRANCH 57 66
BRANCH 60 70
ATOM     70   C  SGN C   4      56.337 130.248 150.1700  0.00  0.00     0.000 C
ATOM     71   O  SGN C   4      54.145 129.179 147.3150  0.00  0.00     0.000 OA
ATOM     72   O  SGN C   4      56.130 128.074 148.1430  0.00  0.00     0.000 OA
ATOM     73   O  SGN C   4      55.565 130.271 148.9540  0.00  0.00     0.000 O
ATOM     74   S  SGN C   4      54.968 128.872 148.4620  0.00  0.00     0.000 S
ATOM     75   O  SGN C   4      54.216 128.370 149.5950  0.00  0.00     0.000 OA
ENDBRANCH 60 70
BRANCH 56 76
ATOM     76  O4  IDS C   5      58.843 132.712 147.8420  0.00  0.00     0.000 O
BRANCH 76 80
ATOM     77  C1  IDS C   5      60.417 128.949 147.9780  0.00  0.00     0.000 C
ATOM     78  C2  IDS C   5      61.344 130.044 148.5070  0.00  0.00     0.000 C
ATOM     79  C3  IDS C   5      60.540 131.290 148.8230  0.00  0.00     0.000 C
ATOM     80  C4  IDS C   5      59.959 131.863 147.5340  0.00  0.00     0.000 C
ATOM     81  C5  IDS C   5      59.520 130.712 146.6180  0.00  0.00     0.000 C
ATOM     82  O5  IDS C   5      59.258 129.532 147.3830  0.00  0.00     0.000 O
BRANCH 78 83
ATOM     83   O  IDS C   5      62.026 129.600 149.7450  0.00  0.00     0.000 O
ATOM     84   S  IDS C   5      63.615 129.697 149.8540  0.00  0.00     0.000 S
ATOM     85   O  IDS C   5      64.130 129.110 148.6460  0.00  0.00     0.000 OA
ATOM     86   O  IDS C   5      63.901 131.108 149.9660  0.00  0.00     0.000 OA
ATOM     87   O  IDS C   5      63.971 128.962 151.0420  0.00  0.00     0.000 OA
ENDBRANCH 78 83
BRANCH 81 88
ATOM     88   C  IDS C   5      58.276 131.014 145.8020  0.00  0.00     0.000 C
ATOM     89   O  IDS C   5      58.350 131.728 144.8380  0.00  0.00     0.000 OA
ATOM     90   O  IDS C   5      57.215 130.533 146.1280  0.00  0.00     0.000 OA
ENDBRANCH 81 88
ENDBRANCH 76 80
ENDBRANCH 56 76
ENDBRANCH 55 59
ENDBRANCH 39 55
ENDBRANCH 38 42
ENDBRANCH 18 38
ENDBRANCH 17 21
ENDBRANCH 1 17
TORSDOF 18
ENDMDL
MODEL 63
REMARK VINA RESULT:      -1.8    196.850    203.427
ROOT
ATOM      1  C1  IDS C   1     140.239 175.950 189.6310  0.00  0.00     0.000 C
ATOM      2  C2  IDS C   1     138.969 175.749 190.4640  0.00  0.00     0.000 C
ATOM      3  C3  IDS C   1     138.690 176.969 191.3280  0.00  0.00     0.000 C
ATOM      4  C4  IDS C   1     139.862 177.248 192.2590  0.00  0.00     0.000 C
ATOM      5  C5  IDS C   1     141.179 176.998 191.5310  0.00  0.00     0.000 C
ATOM      6  O5  IDS C   1     140.980 177.062 190.1190  0.00  0.00     0.000 O
ATOM      7   O  IDS C   1     137.495 176.759 192.0940  0.00  0.00     0.000 O
ATOM      9  HD  IDS C   1     136.934 176.314 191.6060  0.00  0.00     0.000 HD
ENDROOT
BRANCH 2 9
ATOM      9   O  IDS C   1     137.793 175.542 189.5890  0.00  0.00     0.000 O
ATOM     10   S  IDS C   1     136.887 174.245 189.7880  0.00  0.00     0.000 S
ATOM     11   O  IDS C   1     135.831 174.345 188.8050  0.00  0.00     0.000 OA
ATOM     12   O  IDS C   1     137.766 173.117 189.5580  0.00  0.00     0.000 OA
ATOM     13   O  IDS C   1     136.397 174.310 191.1470  0.00  0.00     0.000 OA
ENDBRANCH 2 9
BRANCH 5 14
ATOM     14   C  IDS C   1     142.246 178.010 191.9130  0.00  0.00     0.000 C
ATOM     15   O  IDS C   1     142.820 178.623 191.0460  0.00  0.00     0.000 OA
ATOM     16   O  IDS C   1     142.513 178.194 193.0890  0.00  0.00     0.000 OA
ENDBRANCH 5 14
BRANCH 1 17
ATOM     17  O4  SGN C   2     140.328 175.602 188.3450  0.00  0.00     0.000 O
BRANCH 17 21
ATOM     18  C1  SGN C   2     140.490 176.310 184.2220  0.00  0.00     0.000 C
ATOM     19  C2  SGN C   2     140.741 177.516 185.1360  0.00  0.00     0.000 C
ATOM     20  C3  SGN C   2     141.068 177.033 186.5540  0.00  0.00     0.000 C
ATOM     21  C4  SGN C   2     139.977 176.093 187.0540  0.00  0.00     0.000 C
ATOM     22  C5  SGN C   2     139.825 174.938 186.0680  0.00  0.00     0.000 C
ATOM     23  O5  SGN C   2     139.502 175.454 184.7560  0.00  0.00     0.000 O
ATOM     24   O  SGN C   2     141.215 178.145 187.4210  0.00  0.00     0.000 O
ATOM     26  HD  SGN C   2     141.408 177.372 187.0830  0.00  0.00     0.000 HD
BRANCH 19 28
ATOM     26   N  SGN C   2     141.787 178.392 184.5930  0.00  0.00     0.000 N
ATOM     28  HD  SGN C   2     141.954 177.623 184.2310  0.00  0.00     0.000 HD
ATOM     28   O  SGN C   2     142.491 180.660 183.8270  0.00  0.00     0.000 OA
ATOM     29   S  SGN C   2     141.477 179.516 183.4850  0.00  0.00     0.000 S
ATOM     30   O  SGN C   2     141.813 178.976 182.2240  0.00  0.00     0.000 OA
ATOM     31   O  SGN C   2     140.158 179.996 183.7150  0.00  0.00     0.000 OA
ENDBRANCH 19 28
BRANCH 22 32
ATOM     32   C  SGN C   2     138.725 173.974 186.4400  0.00  0.00     0.000 C
ATOM     33   S  SGN C   2     136.658 172.880 185.3570  0.00  0.00     0.000 S
ATOM     34   O  SGN C   2     135.872 174.082 185.4790  0.00  0.00     0.000 OA
ATOM     35   O  SGN C   2     136.429 172.159 184.1220  0.00  0.00     0.000 OA
ATOM     36   O  SGN C   2     136.630 172.036 186.5290  0.00  0.00     0.000 OA
ATOM     37   O  SGN C   2     138.163 173.403 185.2530  0.00  0.00     0.000 O
ENDBRANCH 22 32
BRANCH 18 38
ATOM     38  O4  IDS C   3     141.354 175.480 183.6330  0.00  0.00     0.000 O
BRANCH 38 42
ATOM     39  C1  IDS C   3     144.226 174.061 182.2690  0.00  0.00     0.000 C
ATOM     40  C2  IDS C   3     143.849 175.522 181.9770  0.00  0.00     0.000 C
ATOM     41  C3  IDS C   3     142.411 175.631 181.4710  0.00  0.00     0.000 C
ATOM     42  C4  IDS C   3     141.455 174.842 182.3560  0.00  0.00     0.000 C
ATOM     43  C5  IDS C   3     141.970 173.408 182.5270  0.00  0.00     0.000 C
ATOM     44  O5  IDS C   3     143.269 173.445 183.1140  0.00  0.00     0.000 O
ATOM     45   O  IDS C   3     142.342 175.142 180.1310  0.00  0.00     0.000 O
ATOM     47  HD  IDS C   3     142.559 174.402 179.7370  0.00  0.00     0.000 HD
BRANCH 40 47
ATOM     47   O  IDS C   3     143.952 176.342 183.2070  0.00  0.00     0.000 O
ATOM     48   S  IDS C   3     145.178 177.353 183.3890  0.00  0.00     0.000 S
ATOM     49   O  IDS C   3     146.316 176.535 183.7520  0.00  0.00     0.000 OA
ATOM     50   O  IDS C   3     144.779 178.247 184.4530  0.00  0.00     0.000 OA
ATOM     51   O  IDS C   3     145.349 178.017 182.1250  0.00  0.00     0.000 OA
ENDBRANCH 40 47
BRANCH 43 52
ATOM     52   C  IDS C   3     141.053 172.553 183.3740  0.00  0.00     0.000 C
ATOM     53   O  IDS C   3     139.988 172.191 182.9320  0.00  0.00     0.000 OA
ATOM     54   O  IDS C   3     141.391 172.238 184.4870  0.00  0.00     0.000 OA
ENDBRANCH 43 52
BRANCH 39 55
ATOM     55  O4  SGN C   4     144.759 173.240 181.3640  0.00  0.00     0.000 O
BRANCH 55 59
ATOM     56  C1  SGN C   4     147.377 170.232 182.6300  0.00  0.00     0.000 C
ATOM     57  C2  SGN C   4     147.908 171.675 182.6880  0.00  0.00     0.000 C
ATOM     58  C3  SGN C   4     146.762 172.678 182.5870  0.00  0.00     0.000 C
ATOM     59  C4  SGN C   4     145.878 172.365 181.3850  0.00  0.00     0.000 C
ATOM     60  C5  SGN C   4     145.405 170.917 181.4870  0.00  0.00     0.000 C
ATOM     61  O5  SGN C   4     146.565 170.060 181.4800  0.00  0.00     0.000 O
ATOM     62   O  SGN C   4     147.288 173.994 182.4940  0.00  0.00     0.000 O
ATOM     64  HD  SGN C   4     147.887 173.553 182.9370  0.00  0.00     0.000 HD
BRANCH 57 66
ATOM     64   N  SGN C   4     149.303 171.208 182.7210  0.00  0.00     0.000 N
ATOM     66  HD  SGN C   4     150.086 171.578 182.7220  0.00  0.00     0.000 HD
ATOM     66   S  SGN C   4     150.314 171.751 183.8310  0.00  0.00     0.000 S
ATOM     67   O  SGN C   4     151.582 171.174 183.5700  0.00  0.00     0.000 OA
ATOM     68   O  SGN C   4     150.182 173.167 183.8570  0.00  0.00     0.000 OA
ATOM     69   O  SGN C   4     149.745 171.171 185.1660  0.00  0.00     0.000 OA
ENDBRANCH 57 66
BRANCH 60 70
ATOM     70   C  SGN C   4     144.506 170.486 180.3480  0.00  0.00     0.000 C
ATOM     71   O  SGN C   4     140.752 170.585 180.2760  0.00  0.00     0.000 OA
ATOM     72   O  SGN C   4     142.288 172.144 179.2470  0.00  0.00     0.000 OA
ATOM     73   O  SGN C   4     143.128 170.476 180.7680  0.00  0.00     0.000 O
ATOM     74   S  SGN C   4     142.035 170.776 179.6410  0.00  0.00     0.000 S
ATOM     75   O  SGN C   4     142.310 169.814 178.5930  0.00  0.00     0.000 OA
ENDBRANCH 60 70
BRANCH 56 76
ATOM     76  O4  IDS C   5     147.004 169.307 183.5330  0.00  0.00     0.000 O
BRANCH 76 80
ATOM     77  C1  IDS C   5     143.239 169.417 185.1050  0.00  0.00     0.000 C
ATOM     78  C2  IDS C   5     144.308 170.083 185.9710  0.00  0.00     0.000 C
ATOM     79  C3  IDS C   5     145.537 170.379 185.1350  0.00  0.00     0.000 C
ATOM     80  C4  IDS C   5     146.171 169.068 184.6780  0.00  0.00     0.000 C
ATOM     81  C5  IDS C   5     145.064 168.061 184.3350  0.00  0.00     0.000 C
ATOM     82  O5  IDS C   5     143.849 168.741 184.0060  0.00  0.00     0.000 O
BRANCH 78 83
ATOM     83   O  IDS C   5     143.806 171.359 186.5330  0.00  0.00     0.000 O
ATOM     84   S  IDS C   5     143.658 171.526 188.1130  0.00  0.00     0.000 S
ATOM     85   O  IDS C   5     142.957 170.356 188.5700  0.00  0.00     0.000 OA
ATOM     86   O  IDS C   5     145.010 171.609 188.6130  0.00  0.00     0.000 OA
ATOM     87   O  IDS C   5     142.917 172.748 188.3090  0.00  0.00     0.000 OA
ENDBRANCH 78 83
BRANCH 81 88
ATOM     88   C  IDS C   5     145.404 167.144 183.1730  0.00  0.00     0.000 C
ATOM     89   O  IDS C   5     144.870 167.304 182.1080  0.00  0.00     0.000 OA
ATOM     90   O  IDS C   5     146.213 166.258 183.3260  0.00  0.00     0.000 OA
ENDBRANCH 81 88
ENDBRANCH 76 80
ENDBRANCH 56 76
ENDBRANCH 55 59
ENDBRANCH 39 55
ENDBRANCH 38 42
ENDBRANCH 18 38
ENDBRANCH 17 21
ENDBRANCH 1 17
TORSDOF 18
ENDMDL
MODEL 64
REMARK VINA RESULT:      -1.8    157.756    166.000
ROOT
ATOM      1  C1  IDS C   1      17.733 120.879  56.0980  0.00  0.00     0.000 C
ATOM      2  C2  IDS C   1      16.895 121.831  55.2390  0.00  0.00     0.000 C
ATOM      3  C3  IDS C   1      15.553 121.205  54.8910  0.00  0.00     0.000 C
ATOM      4  C4  IDS C   1      15.750 119.894  54.1420  0.00  0.00     0.000 C
ATOM      5  C5  IDS C   1      16.925 119.123  54.7350  0.00  0.00     0.000 C
ATOM      6  O5  IDS C   1      17.181 119.569  56.0670  0.00  0.00     0.000 O
ATOM      7   O  IDS C   1      14.786 122.115  54.0900  0.00  0.00     0.000 O
ATOM      9  HD  IDS C   1      14.939 122.920  54.3710  0.00  0.00     0.000 HD
ENDROOT
BRANCH 2 9
ATOM      9   O  IDS C   1      16.625 123.093  55.9620  0.00  0.00     0.000 O
ATOM     10   S  IDS C   1      17.003 124.484  55.2800  0.00  0.00     0.000 S
ATOM     11   O  IDS C   1      16.606 125.508  56.2200  0.00  0.00     0.000 OA
ATOM     12   O  IDS C   1      18.435 124.437  55.0680  0.00  0.00     0.000 OA
ATOM     13   O  IDS C   1      16.251 124.535  54.0450  0.00  0.00     0.000 OA
ENDBRANCH 2 9
BRANCH 5 14
ATOM     14   C  IDS C   1      16.670 117.626  54.7690  0.00  0.00     0.000 C
ATOM     15   O  IDS C   1      16.303 117.063  53.7670  0.00  0.00     0.000 OA
ATOM     16   O  IDS C   1      16.835 117.007  55.8070  0.00  0.00     0.000 OA
ENDBRANCH 5 14
BRANCH 1 17
ATOM     17  O4  SGN C   2      18.432 121.284  57.1620  0.00  0.00     0.000 O
BRANCH 17 21
ATOM     18  C1  SGN C   2      19.209 121.761  61.2480  0.00  0.00     0.000 C
ATOM     19  C2  SGN C   2      18.173 120.696  60.8660  0.00  0.00     0.000 C
ATOM     20  C3  SGN C   2      18.310 120.349  59.3780  0.00  0.00     0.000 C
ATOM     21  C4  SGN C   2      18.237 121.616  58.5340  0.00  0.00     0.000 C
ATOM     22  C5  SGN C   2      19.313 122.591  59.0040  0.00  0.00     0.000 C
ATOM     23  O5  SGN C   2      19.121 122.891  60.4060  0.00  0.00     0.000 O
ATOM     24   O  SGN C   2      17.299 119.429  59.0020  0.00  0.00     0.000 O
ATOM     26  HD  SGN C   2      18.096 119.766  59.0260  0.00  0.00     0.000 HD
BRANCH 19 28
ATOM     26   N  SGN C   2      18.138 119.873  62.0820  0.00  0.00     0.000 N
ATOM     28  HD  SGN C   2      18.295 120.671  62.3780  0.00  0.00     0.000 HD
ATOM     28   O  SGN C   2      17.204 117.912  63.3100  0.00  0.00     0.000 OA
ATOM     29   S  SGN C   2      16.768 119.277  62.6770  0.00  0.00     0.000 S
ATOM     30   O  SGN C   2      16.342 120.139  63.7110  0.00  0.00     0.000 OA
ATOM     31   O  SGN C   2      15.901 119.012  61.5810  0.00  0.00     0.000 OA
ENDBRANCH 19 28
BRANCH 22 32
ATOM     32   C  SGN C   2      19.289 123.908  58.2690  0.00  0.00     0.000 C
ATOM     33   S  SGN C   2      19.333 126.429  58.8060  0.00  0.00     0.000 S
ATOM     34   O  SGN C   2      17.948 126.438  59.2050  0.00  0.00     0.000 OA
ATOM     35   O  SGN C   2      20.179 127.270  59.6260  0.00  0.00     0.000 OA
ATOM     36   O  SGN C   2      19.539 126.613  57.3890  0.00  0.00     0.000 OA
ATOM     37   O  SGN C   2      19.820 124.939  59.1100  0.00  0.00     0.000 O
ENDBRANCH 22 32
BRANCH 18 38
ATOM     38  O4  IDS C   3      20.515 121.643  61.4980  0.00  0.00     0.000 O
BRANCH 38 42
ATOM     39  C1  IDS C   3      23.673 120.338  62.1670  0.00  0.00     0.000 C
ATOM     40  C2  IDS C   3      22.426 119.801  62.8870  0.00  0.00     0.000 C
ATOM     41  C3  IDS C   3      21.621 120.936  63.5200  0.00  0.00     0.000 C
ATOM     42  C4  IDS C   3      21.404 122.075  62.5330  0.00  0.00     0.000 C
ATOM     43  C5  IDS C   3      22.747 122.499  61.9260  0.00  0.00     0.000 C
ATOM     44  O5  IDS C   3      23.335 121.379  61.2660  0.00  0.00     0.000 O
ATOM     45   O  IDS C   3      22.314 121.422  64.6720  0.00  0.00     0.000 O
ATOM     47  HD  IDS C   3      23.109 121.730  64.8230  0.00  0.00     0.000 HD
BRANCH 40 47
ATOM     47   O  IDS C   3      21.534 119.103  61.9310  0.00  0.00     0.000 O
ATOM     48   S  IDS C   3      21.029 117.620  62.2520  0.00  0.00     0.000 S
ATOM     49   O  IDS C   3      22.146 116.748  61.9590  0.00  0.00     0.000 OA
ATOM     50   O  IDS C   3      19.908 117.399  61.3650  0.00  0.00     0.000 OA
ATOM     51   O  IDS C   3      20.662 117.607  63.6430  0.00  0.00     0.000 OA
ENDBRANCH 40 47
BRANCH 43 52
ATOM     52   C  IDS C   3      22.613 123.649  60.9520  0.00  0.00     0.000 C
ATOM     53   O  IDS C   3      22.332 124.753  61.3590  0.00  0.00     0.000 OA
ATOM     54   O  IDS C   3      22.786 123.459  59.7750  0.00  0.00     0.000 OA
ENDBRANCH 43 52
BRANCH 39 55
ATOM     55  O4  SGN C   4      24.857 120.496  62.7600  0.00  0.00     0.000 O
BRANCH 55 59
ATOM     56  C1  SGN C   4      28.152 119.600  60.3420  0.00  0.00     0.000 C
ATOM     57  C2  SGN C   4      27.607 118.455  61.2140  0.00  0.00     0.000 C
ATOM     58  C3  SGN C   4      26.207 118.784  61.7260  0.00  0.00     0.000 C
ATOM     59  C4  SGN C   4      26.185 120.160  62.3820  0.00  0.00     0.000 C
ATOM     60  C5  SGN C   4      26.720 121.187  61.3880  0.00  0.00     0.000 C
ATOM     61  O5  SGN C   4      28.074 120.827  61.0500  0.00  0.00     0.000 O
ATOM     62   O  SGN C   4      25.789 117.783  62.6440  0.00  0.00     0.000 O
ATOM     64  HD  SGN C   4      26.337 117.374  62.1130  0.00  0.00     0.000 HD
BRANCH 57 66
ATOM     64   N  SGN C   4      28.871 117.709  61.1030  0.00  0.00     0.000 N
ATOM     66  HD  SGN C   4      29.193 116.973  61.4260  0.00  0.00     0.000 HD
ATOM     66   S  SGN C   4      28.870 116.172  60.6740  0.00  0.00     0.000 S
ATOM     67   O  SGN C   4      30.213 115.719  60.7150  0.00  0.00     0.000 OA
ATOM     68   O  SGN C   4      27.887 115.519  61.4670  0.00  0.00     0.000 OA
ATOM     69   O  SGN C   4      28.378 116.201  59.1910  0.00  0.00     0.000 OA
ENDBRANCH 57 66
BRANCH 60 70
ATOM     70   C  SGN C   4      26.739 122.603  61.9230  0.00  0.00     0.000 C
ATOM     71   O  SGN C   4      29.185 124.056  64.3740  0.00  0.00     0.000 OA
ATOM     72   O  SGN C   4      29.158 124.343  61.9730  0.00  0.00     0.000 OA
ATOM     73   O  SGN C   4      27.693 122.725  62.9950  0.00  0.00     0.000 O
ATOM     74   S  SGN C   4      28.381 124.157  63.1780  0.00  0.00     0.000 S
ATOM     75   O  SGN C   4      27.276 125.086  63.3010  0.00  0.00     0.000 OA
ENDBRANCH 60 70
BRANCH 56 76
ATOM     76  O4  IDS C   5      28.161 119.887  59.0280  0.00  0.00     0.000 O
BRANCH 76 80
ATOM     77  C1  IDS C   5      25.180 122.224  57.5060  0.00  0.00     0.000 C
ATOM     78  C2  IDS C   5      24.976 120.723  57.3030  0.00  0.00     0.000 C
ATOM     79  C3  IDS C   5      25.866 119.949  58.2560  0.00  0.00     0.000 C
ATOM     80  C4  IDS C   5      27.329 120.192  57.8980  0.00  0.00     0.000 C
ATOM     81  C5  IDS C   5      27.513 121.657  57.4760  0.00  0.00     0.000 C
ATOM     82  O5  IDS C   5      26.482 122.475  58.0370  0.00  0.00     0.000 O
BRANCH 78 83
ATOM     83   O  IDS C   5      23.567 120.346  57.5680  0.00  0.00     0.000 O
ATOM     84   S  IDS C   5      22.696 119.676  56.4120  0.00  0.00     0.000 S
ATOM     85   O  IDS C   5      22.883 120.499  55.2480  0.00  0.00     0.000 OA
ATOM     86   O  IDS C   5      23.231 118.343  56.2580  0.00  0.00     0.000 OA
ATOM     87   O  IDS C   5      21.337 119.676  56.8970  0.00  0.00     0.000 OA
ENDBRANCH 78 83
BRANCH 81 88
ATOM     88   C  IDS C   5      28.846 122.254  57.8910  0.00  0.00     0.000 C
ATOM     89   O  IDS C   5      28.891 123.051  58.7890  0.00  0.00     0.000 OA
ATOM     90   O  IDS C   5      29.856 121.923  57.3130  0.00  0.00     0.000 OA
ENDBRANCH 81 88
ENDBRANCH 76 80
ENDBRANCH 56 76
ENDBRANCH 55 59
ENDBRANCH 39 55
ENDBRANCH 38 42
ENDBRANCH 18 38
ENDBRANCH 17 21
ENDBRANCH 1 17
TORSDOF 18
ENDMDL
MODEL 65
REMARK VINA RESULT:      -1.8    109.022    113.619
ROOT
ATOM      1  C1  IDS C   1     111.587  30.845 159.6130  0.00  0.00     0.000 C
ATOM      2  C2  IDS C   1     110.568  29.991 160.3720  0.00  0.00     0.000 C
ATOM      3  C3  IDS C   1     110.552  28.566 159.8380  0.00  0.00     0.000 C
ATOM      4  C4  IDS C   1     110.212  28.552 158.3550  0.00  0.00     0.000 C
ATOM      5  C5  IDS C   1     110.893  29.722 157.6510  0.00  0.00     0.000 C
ATOM      6  O5  IDS C   1     112.001  30.183 158.4240  0.00  0.00     0.000 O
ATOM      7   O  IDS C   1     109.594  27.785 160.5680  0.00  0.00     0.000 O
ATOM      9  HD  IDS C   1     109.607  28.042 161.3950  0.00  0.00     0.000 HD
ENDROOT
BRANCH 2 9
ATOM      9   O  IDS C   1     110.906  29.924 161.8120  0.00  0.00     0.000 O
ATOM     10   S  IDS C   1     109.818  30.361 162.8930  0.00  0.00     0.000 S
ATOM     11   O  IDS C   1     110.442  30.169 164.1830  0.00  0.00     0.000 OA
ATOM     12   O  IDS C   1     109.524  31.751 162.6100  0.00  0.00     0.000 OA
ATOM     13   O  IDS C   1     108.682  29.491 162.6850  0.00  0.00     0.000 OA
ENDBRANCH 2 9
BRANCH 5 14
ATOM     14   C  IDS C   1     111.394  29.345 156.2670  0.00  0.00     0.000 C
ATOM     15   O  IDS C   1     112.528  29.616 155.9530  0.00  0.00     0.000 OA
ATOM     16   O  IDS C   1     110.649  28.776 155.4870  0.00  0.00     0.000 OA
ENDBRANCH 5 14
BRANCH 1 17
ATOM     17  O4  SGN C   2     112.411  31.705 160.2180  0.00  0.00     0.000 O
BRANCH 17 21
ATOM     18  C1  SGN C   2     116.147  33.106 161.4870  0.00  0.00     0.000 C
ATOM     19  C2  SGN C   2     116.153  31.975 160.4500  0.00  0.00     0.000 C
ATOM     20  C3  SGN C   2     114.775  31.872 159.7860  0.00  0.00     0.000 C
ATOM     21  C4  SGN C   2     113.689  31.733 160.8480  0.00  0.00     0.000 C
ATOM     22  C5  SGN C   2     113.782  32.912 161.8120  0.00  0.00     0.000 C
ATOM     23  O5  SGN C   2     115.095  32.947 162.4170  0.00  0.00     0.000 O
ATOM     24   O  SGN C   2     114.752  30.773 158.8910  0.00  0.00     0.000 O
ATOM     26  HD  SGN C   2     114.592  31.580 159.1600  0.00  0.00     0.000 HD
BRANCH 19 28
ATOM     26   N  SGN C   2     117.516  32.081 159.9120  0.00  0.00     0.000 N
ATOM     28  HD  SGN C   2     117.604  32.313 160.7410  0.00  0.00     0.000 HD
ATOM     28   O  SGN C   2     119.260  31.251 158.3330  0.00  0.00     0.000 OA
ATOM     29   S  SGN C   2     118.403  30.787 159.5580  0.00  0.00     0.000 S
ATOM     30   O  SGN C   2     119.266  30.551 160.6510  0.00  0.00     0.000 OA
ATOM     31   O  SGN C   2     117.517  29.761 159.1290  0.00  0.00     0.000 OA
ENDBRANCH 19 28
BRANCH 22 32
ATOM     32   C  SGN C   2     112.784  32.842 162.9410  0.00  0.00     0.000 C
ATOM     33   S  SGN C   2     112.037  34.261 164.9590  0.00  0.00     0.000 S
ATOM     34   O  SGN C   2     113.192  33.888 165.7360  0.00  0.00     0.000 OA
ATOM     35   O  SGN C   2     111.644  35.644 165.1290  0.00  0.00     0.000 OA
ATOM     36   O  SGN C   2     110.934  33.334 165.0600  0.00  0.00     0.000 OA
ATOM     37   O  SGN C   2     112.532  34.159 163.4450  0.00  0.00     0.000 O
ENDBRANCH 22 32
BRANCH 18 38
ATOM     38  O4  IDS C   3     116.237  34.427 161.3220  0.00  0.00     0.000 O
BRANCH 38 42
ATOM     39  C1  IDS C   3     116.907  37.486 159.7980  0.00  0.00     0.000 C
ATOM     40  C2  IDS C   3     117.843  36.283 159.6040  0.00  0.00     0.000 C
ATOM     41  C3  IDS C   3     118.260  35.684 160.9470  0.00  0.00     0.000 C
ATOM     42  C4  IDS C   3     117.055  35.474 161.8540  0.00  0.00     0.000 C
ATOM     43  C5  IDS C   3     116.246  36.773 161.9520  0.00  0.00     0.000 C
ATOM     44  O5  IDS C   3     115.819  37.157 160.6460  0.00  0.00     0.000 O
ATOM     45   O  IDS C   3     119.196  36.556 161.5830  0.00  0.00     0.000 O
ATOM     47  HD  IDS C   3     119.198  37.392 161.8110  0.00  0.00     0.000 HD
BRANCH 40 47
ATOM     47   O  IDS C   3     117.165  35.215 158.8320  0.00  0.00     0.000 O
ATOM     48   S  IDS C   3     117.682  34.841 157.3660  0.00  0.00     0.000 S
ATOM     49   O  IDS C   3     117.190  35.885 156.4930  0.00  0.00     0.000 OA
ATOM     50   O  IDS C   3     117.095  33.552 157.0720  0.00  0.00     0.000 OA
ATOM     51   O  IDS C   3     119.118  34.806 157.4390  0.00  0.00     0.000 OA
ENDBRANCH 40 47
BRANCH 43 52
ATOM     52   C  IDS C   3     115.044  36.647 162.8620  0.00  0.00     0.000 C
ATOM     53   O  IDS C   3     115.163  36.129 163.9490  0.00  0.00     0.000 OA
ATOM     54   O  IDS C   3     113.974  37.065 162.5000  0.00  0.00     0.000 OA
ENDBRANCH 43 52
BRANCH 39 55
ATOM     55  O4  SGN C   4     117.335  38.742 159.9290  0.00  0.00     0.000 O
BRANCH 55 59
ATOM     56  C1  SGN C   4     115.042  41.682 158.0310  0.00  0.00     0.000 C
ATOM     57  C2  SGN C   4     116.080  40.952 157.1620  0.00  0.00     0.000 C
ATOM     58  C3  SGN C   4     116.553  39.671 157.8440  0.00  0.00     0.000 C
ATOM     59  C4  SGN C   4     116.998  39.956 159.2730  0.00  0.00     0.000 C
ATOM     60  C5  SGN C   4     115.856  40.648 160.0140  0.00  0.00     0.000 C
ATOM     61  O5  SGN C   4     115.560  41.885 159.3360  0.00  0.00     0.000 O
ATOM     62   O  SGN C   4     117.614  39.096 157.0930  0.00  0.00     0.000 O
ATOM     64  HD  SGN C   4     117.143  39.527 156.5080  0.00  0.00     0.000 HD
BRANCH 57 66
ATOM     64   N  SGN C   4     116.065  42.032 156.1610  0.00  0.00     0.000 N
ATOM     66  HD  SGN C   4     116.490  42.212 155.4290  0.00  0.00     0.000 HD
ATOM     66   S  SGN C   4     115.871  41.700 154.6130  0.00  0.00     0.000 S
ATOM     67   O  SGN C   4     115.962  42.924 153.9020  0.00  0.00     0.000 OA
ATOM     68   O  SGN C   4     116.766  40.641 154.2980  0.00  0.00     0.000 OA
ATOM     69   O  SGN C   4     114.407  41.160 154.5290  0.00  0.00     0.000 OA
ENDBRANCH 57 66
BRANCH 60 70
ATOM     70   C  SGN C   4     116.174  40.977 161.4570  0.00  0.00     0.000 C
ATOM     71   O  SGN C   4     115.063  44.007 163.3780  0.00  0.00     0.000 OA
ATOM     72   O  SGN C   4     114.138  41.775 163.4820  0.00  0.00     0.000 OA
ATOM     73   O  SGN C   4     115.750  42.317 161.7750  0.00  0.00     0.000 O
ATOM     74   S  SGN C   4     115.318  42.588 163.2900  0.00  0.00     0.000 S
ATOM     75   O  SGN C   4     116.452  42.154 164.0820  0.00  0.00     0.000 OA
ENDBRANCH 60 70
BRANCH 56 76
ATOM     76  O4  IDS C   5     113.699  41.695 158.1200  0.00  0.00     0.000 O
BRANCH 76 80
ATOM     77  C1  IDS C   5     111.763  39.421 160.9020  0.00  0.00     0.000 C
ATOM     78  C2  IDS C   5     111.895  38.765 159.5270  0.00  0.00     0.000 C
ATOM     79  C3  IDS C   5     112.976  39.464 158.7260  0.00  0.00     0.000 C
ATOM     80  C4  IDS C   5     112.546  40.899 158.4310  0.00  0.00     0.000 C
ATOM     81  C5  IDS C   5     111.813  41.471 159.6530  0.00  0.00     0.000 C
ATOM     82  O5  IDS C   5     112.202  40.778 160.8420  0.00  0.00     0.000 O
BRANCH 78 83
ATOM     83   O  IDS C   5     112.262  37.336 159.6610  0.00  0.00     0.000 O
ATOM     84   S  IDS C   5     111.269  36.209 159.1260  0.00  0.00     0.000 S
ATOM     85   O  IDS C   5     109.972  36.543 159.6510  0.00  0.00     0.000 OA
ATOM     86   O  IDS C   5     111.338  36.296 157.6860  0.00  0.00     0.000 OA
ATOM     87   O  IDS C   5     111.785  34.961 159.6330  0.00  0.00     0.000 OA
ENDBRANCH 78 83
BRANCH 81 88
ATOM     88   C  IDS C   5     112.062  42.950 159.8830  0.00  0.00     0.000 C
ATOM     89   O  IDS C   5     112.820  43.303 160.7460  0.00  0.00     0.000 OA
ATOM     90   O  IDS C   5     111.496  43.767 159.1940  0.00  0.00     0.000 OA
ENDBRANCH 81 88
ENDBRANCH 76 80
ENDBRANCH 56 76
ENDBRANCH 55 59
ENDBRANCH 39 55
ENDBRANCH 38 42
ENDBRANCH 18 38
ENDBRANCH 17 21
ENDBRANCH 1 17
TORSDOF 18
ENDMDL
MODEL 66
REMARK VINA RESULT:      -1.8    189.447    197.677
ROOT
ATOM      1  C1  IDS C   1      58.600 182.566  90.3620  0.00  0.00     0.000 C
ATOM      2  C2  IDS C   1      57.773 181.391  89.8340  0.00  0.00     0.000 C
ATOM      3  C3  IDS C   1      58.225 180.084  90.4680  0.00  0.00     0.000 C
ATOM      4  C4  IDS C   1      59.699 179.829  90.1820  0.00  0.00     0.000 C
ATOM      5  C5  IDS C   1      60.481 181.136  90.2650  0.00  0.00     0.000 C
ATOM      6  O5  IDS C   1      59.758 182.093  91.0390  0.00  0.00     0.000 O
ATOM      7   O  IDS C   1      57.434 178.999  89.9620  0.00  0.00     0.000 O
ATOM      9  HD  IDS C   1      56.623 179.283  89.8510  0.00  0.00     0.000 HD
ENDROOT
BRANCH 2 9
ATOM      9   O  IDS C   1      56.339 181.570  90.1550  0.00  0.00     0.000 O
ATOM     10   S  IDS C   1      55.262 181.532  88.9790  0.00  0.00     0.000 S
ATOM     11   O  IDS C   1      53.976 181.720  89.6130  0.00  0.00     0.000 OA
ATOM     12   O  IDS C   1      55.617 182.619  88.0900  0.00  0.00     0.000 OA
ATOM     13   O  IDS C   1      55.398 180.231  88.3610  0.00  0.00     0.000 OA
ENDBRANCH 2 9
BRANCH 5 14
ATOM     14   C  IDS C   1      61.851 180.946  90.8930  0.00  0.00     0.000 C
ATOM     15   O  IDS C   1      62.544 180.023  90.5380  0.00  0.00     0.000 OA
ATOM     16   O  IDS C   1      62.237 181.722  91.7500  0.00  0.00     0.000 OA
ENDBRANCH 5 14
BRANCH 1 17
ATOM     17  O4  SGN C   2      58.061 183.740  90.7030  0.00  0.00     0.000 O
BRANCH 17 21
ATOM     18  C1  SGN C   2      56.964 186.751  93.3970  0.00  0.00     0.000 C
ATOM     19  C2  SGN C   2      57.929 185.680  93.9200  0.00  0.00     0.000 C
ATOM     20  C3  SGN C   2      58.555 184.924  92.7420  0.00  0.00     0.000 C
ATOM     21  C4  SGN C   2      57.463 184.382  91.8260  0.00  0.00     0.000 C
ATOM     22  C5  SGN C   2      56.577 185.537  91.3700  0.00  0.00     0.000 C
ATOM     23  O5  SGN C   2      56.004 186.198  92.5220  0.00  0.00     0.000 O
ATOM     24   O  SGN C   2      59.379 183.876  93.2240  0.00  0.00     0.000 O
ATOM     26  HD  SGN C   2      59.157 184.541  92.7150  0.00  0.00     0.000 HD
BRANCH 19 28
ATOM     26   N  SGN C   2      58.510 186.355  95.0890  0.00  0.00     0.000 N
ATOM     28  HD  SGN C   2      57.703 186.668  95.0500  0.00  0.00     0.000 HD
ATOM     28   O  SGN C   2      60.064 186.293  97.0380  0.00  0.00     0.000 OA
ATOM     29   S  SGN C   2      58.784 185.588  96.4750  0.00  0.00     0.000 S
ATOM     30   O  SGN C   2      57.700 185.865  97.3370  0.00  0.00     0.000 OA
ATOM     31   O  SGN C   2      59.109 184.239  96.1650  0.00  0.00     0.000 OA
ENDBRANCH 19 28
BRANCH 22 32
ATOM     32   C  SGN C   2      55.423 185.099  90.5010  0.00  0.00     0.000 C
ATOM     33   S  SGN C   2      53.629 186.158  88.9830  0.00  0.00     0.000 S
ATOM     34   O  SGN C   2      52.835 186.588  90.1070  0.00  0.00     0.000 OA
ATOM     35   O  SGN C   2      53.663 187.114  87.8960  0.00  0.00     0.000 OA
ATOM     36   O  SGN C   2      53.356 184.807  88.5530  0.00  0.00     0.000 OA
ATOM     37   O  SGN C   2      55.122 186.125  89.5470  0.00  0.00     0.000 O
ENDBRANCH 22 32
BRANCH 18 38
ATOM     38  O4  IDS C   3      57.214 187.958  92.8830  0.00  0.00     0.000 O
BRANCH 38 42
ATOM     39  C1  IDS C   3      58.465 190.818  91.3390  0.00  0.00     0.000 C
ATOM     40  C2  IDS C   3      59.190 190.183  92.5360  0.00  0.00     0.000 C
ATOM     41  C3  IDS C   3      58.238 189.977  93.7140  0.00  0.00     0.000 C
ATOM     42  C4  IDS C   3      56.944 189.311  93.2660  0.00  0.00     0.000 C
ATOM     43  C5  IDS C   3      56.346 190.081  92.0820  0.00  0.00     0.000 C
ATOM     44  O5  IDS C   3      57.290 190.096  91.0120  0.00  0.00     0.000 O
ATOM     45   O  IDS C   3      57.947 191.242  94.3130  0.00  0.00     0.000 O
ATOM     47  HD  IDS C   3      57.635 191.997  94.0270  0.00  0.00     0.000 HD
BRANCH 40 47
ATOM     47   O  IDS C   3      59.737 188.854  92.1690  0.00  0.00     0.000 O
ATOM     48   S  IDS C   3      60.880 188.744  91.0570  0.00  0.00     0.000 S
ATOM     49   O  IDS C   3      60.211 188.902  89.7830  0.00  0.00     0.000 OA
ATOM     50   O  IDS C   3      61.447 187.424  91.2240  0.00  0.00     0.000 OA
ATOM     51   O  IDS C   3      61.816 189.801  91.3300  0.00  0.00     0.000 OA
ENDBRANCH 40 47
BRANCH 43 52
ATOM     52   C  IDS C   3      55.040 189.491  91.5990  0.00  0.00     0.000 C
ATOM     53   O  IDS C   3      54.180 189.196  92.3970  0.00  0.00     0.000 OA
ATOM     54   O  IDS C   3      54.863 189.317  90.4200  0.00  0.00     0.000 OA
ENDBRANCH 43 52
BRANCH 39 55
ATOM     55  O4  SGN C   4      58.365 192.133  91.1490  0.00  0.00     0.000 O
BRANCH 55 59
ATOM     56  C1  SGN C   4      58.965 193.421  87.2140  0.00  0.00     0.000 C
ATOM     57  C2  SGN C   4      60.217 193.317  88.1020  0.00  0.00     0.000 C
ATOM     58  C3  SGN C   4      59.931 192.480  89.3460  0.00  0.00     0.000 C
ATOM     59  C4  SGN C   4      58.679 192.984  90.0550  0.00  0.00     0.000 C
ATOM     60  C5  SGN C   4      57.522 192.999  89.0590  0.00  0.00     0.000 C
ATOM     61  O5  SGN C   4      57.866 193.890  87.9790  0.00  0.00     0.000 O
ATOM     62   O  SGN C   4      61.053 192.523  90.2170  0.00  0.00     0.000 O
ATOM     64  HD  SGN C   4      61.388 192.635  89.4260  0.00  0.00     0.000 HD
BRANCH 57 66
ATOM     64   N  SGN C   4      61.092 192.963  86.9720  0.00  0.00     0.000 N
ATOM     66  HD  SGN C   4      61.432 193.377  86.2910  0.00  0.00     0.000 HD
ATOM     66   S  SGN C   4      62.422 193.796  86.6850  0.00  0.00     0.000 S
ATOM     67   O  SGN C   4      63.012 193.264  85.5110  0.00  0.00     0.000 OA
ATOM     68   O  SGN C   4      62.068 195.173  86.7260  0.00  0.00     0.000 OA
ATOM     69   O  SGN C   4      63.333 193.477  87.9140  0.00  0.00     0.000 OA
ENDBRANCH 57 66
BRANCH 60 70
ATOM     70   C  SGN C   4      56.212 193.474  89.6500  0.00  0.00     0.000 C
ATOM     71   O  SGN C   4      55.281 197.007  90.5220  0.00  0.00     0.000 OA
ATOM     72   O  SGN C   4      54.613 195.744  88.5700  0.00  0.00     0.000 OA
ATOM     73   O  SGN C   4      56.306 194.859  90.0370  0.00  0.00     0.000 O
ATOM     74   S  SGN C   4      54.954 195.710  89.9740  0.00  0.00     0.000 S
ATOM     75   O  SGN C   4      54.009 194.964  90.7810  0.00  0.00     0.000 OA
ENDBRANCH 60 70
BRANCH 56 76
ATOM     76  O4  IDS C   5      58.469 192.738  86.1660  0.00  0.00     0.000 O
BRANCH 76 80
ATOM     77  C1  IDS C   5      55.811 189.725  86.8790  0.00  0.00     0.000 C
ATOM     78  C2  IDS C   5      57.248 189.260  86.6460  0.00  0.00     0.000 C
ATOM     79  C3  IDS C   5      58.201 190.425  86.8310  0.00  0.00     0.000 C
ATOM     80  C4  IDS C   5      57.950 191.468  85.7450  0.00  0.00     0.000 C
ATOM     81  C5  IDS C   5      56.441 191.568  85.4760  0.00  0.00     0.000 C
ATOM     82  O5  IDS C   5      55.697 191.123  86.6130  0.00  0.00     0.000 O
BRANCH 78 83
ATOM     83   O  IDS C   5      57.617 188.196  87.6080  0.00  0.00     0.000 O
ATOM     84   S  IDS C   5      58.222 186.820  87.0730  0.00  0.00     0.000 S
ATOM     85   O  IDS C   5      57.350 186.389  86.0140  0.00  0.00     0.000 OA
ATOM     86   O  IDS C   5      59.554 187.144  86.6170  0.00  0.00     0.000 OA
ATOM     87   O  IDS C   5      58.225 185.928  88.2070  0.00  0.00     0.000 OA
ENDBRANCH 78 83
BRANCH 81 88
ATOM     88   C  IDS C   5      55.968 192.970  85.1390  0.00  0.00     0.000 C
ATOM     89   O  IDS C   5      56.229 193.448  84.0680  0.00  0.00     0.000 OA
ATOM     90   O  IDS C   5      55.328 193.597  85.9510  0.00  0.00     0.000 OA
ENDBRANCH 81 88
ENDBRANCH 76 80
ENDBRANCH 56 76
ENDBRANCH 55 59
ENDBRANCH 39 55
ENDBRANCH 38 42
ENDBRANCH 18 38
ENDBRANCH 17 21
ENDBRANCH 1 17
TORSDOF 18
ENDMDL
MODEL 67
REMARK VINA RESULT:      -1.8    171.053    178.286
ROOT
ATOM      1  C1  IDS C   1      17.399 138.325  56.6580  0.00  0.00     0.000 C
ATOM      2  C2  IDS C   1      17.329 139.261  55.4480  0.00  0.00     0.000 C
ATOM      3  C3  IDS C   1      16.035 139.051  54.6770  0.00  0.00     0.000 C
ATOM      4  C4  IDS C   1      15.919 137.608  54.2040  0.00  0.00     0.000 C
ATOM      5  C5  IDS C   1      16.436 136.661  55.2820  0.00  0.00     0.000 C
ATOM      6  O5  IDS C   1      16.413 137.307  56.5550  0.00  0.00     0.000 O
ATOM      7   O  IDS C   1      15.990 139.940  53.5520  0.00  0.00     0.000 O
ATOM      9  HD  IDS C   1      16.354 140.691  53.7840  0.00  0.00     0.000 HD
ENDROOT
BRANCH 2 9
ATOM      9   O  IDS C   1      17.370 140.678  55.8740  0.00  0.00     0.000 O
ATOM     10   S  IDS C   1      18.473 141.651  55.2570  0.00  0.00     0.000 S
ATOM     11   O  IDS C   1      18.239 142.946  55.8560  0.00  0.00     0.000 OA
ATOM     12   O  IDS C   1      19.750 141.078  55.6300  0.00  0.00     0.000 OA
ATOM     13   O  IDS C   1      18.248 141.645  53.8280  0.00  0.00     0.000 OA
ENDBRANCH 2 9
BRANCH 5 14
ATOM     14   C  IDS C   1      15.610 135.389  55.3720  0.00  0.00     0.000 C
ATOM     15   O  IDS C   1      15.173 135.039  56.4410  0.00  0.00     0.000 OA
ATOM     16   O  IDS C   1      15.398 134.733  54.3660  0.00  0.00     0.000 OA
ENDBRANCH 5 14
BRANCH 1 17
ATOM     17  O4  SGN C   2      17.825 138.722  57.8610  0.00  0.00     0.000 O
BRANCH 17 21
ATOM     18  C1  SGN C   2      17.392 139.826  61.8750  0.00  0.00     0.000 C
ATOM     19  C2  SGN C   2      16.214 139.078  61.2380  0.00  0.00     0.000 C
ATOM     20  C3  SGN C   2      16.675 138.386  59.9500  0.00  0.00     0.000 C
ATOM     21  C4  SGN C   2      17.344 139.393  59.0220  0.00  0.00     0.000 C
ATOM     22  C5  SGN C   2      18.496 140.064  59.7650  0.00  0.00     0.000 C
ATOM     23  O5  SGN C   2      17.998 140.712  60.9580  0.00  0.00     0.000 O
ATOM     24   O  SGN C   2      15.570 137.766  59.3130  0.00  0.00     0.000 O
ATOM     26  HD  SGN C   2      16.384 137.835  59.6010  0.00  0.00     0.000 HD
BRANCH 19 28
ATOM     26   N  SGN C   2      15.492 138.604  62.4260  0.00  0.00     0.000 N
ATOM     28  HD  SGN C   2      15.822 139.364  62.6760  0.00  0.00     0.000 HD
ATOM     28   O  SGN C   2      13.569 137.347  63.3980  0.00  0.00     0.000 OA
ATOM     29   S  SGN C   2      13.886 138.597  62.5100  0.00  0.00     0.000 S
ATOM     30   O  SGN C   2      13.491 139.759  63.2080  0.00  0.00     0.000 OA
ATOM     31   O  SGN C   2      13.387 138.361  61.1990  0.00  0.00     0.000 OA
ENDBRANCH 19 28
BRANCH 22 32
ATOM     32   C  SGN C   2      19.194 141.127  58.9510  0.00  0.00     0.000 C
ATOM     33   S  SGN C   2      20.287 143.434  59.3060  0.00  0.00     0.000 S
ATOM     34   O  SGN C   2      19.012 144.101  59.3900  0.00  0.00     0.000 OA
ATOM     35   O  SGN C   2      21.275 143.951  60.2300  0.00  0.00     0.000 OA
ATOM     36   O  SGN C   2      20.784 143.281  57.9590  0.00  0.00     0.000 OA
ATOM     37   O  SGN C   2      19.988 141.950  59.8140  0.00  0.00     0.000 O
ENDBRANCH 22 32
BRANCH 18 38
ATOM     38  O4  IDS C   3      18.411 139.367  62.6050  0.00  0.00     0.000 O
BRANCH 38 42
ATOM     39  C1  IDS C   3      20.348 137.242  64.5690  0.00  0.00     0.000 C
ATOM     40  C2  IDS C   3      18.827 137.335  64.7660  0.00  0.00     0.000 C
ATOM     41  C3  IDS C   3      18.380 138.786  64.9450  0.00  0.00     0.000 C
ATOM     42  C4  IDS C   3      18.987 139.684  63.8760  0.00  0.00     0.000 C
ATOM     43  C5  IDS C   3      20.507 139.480  63.8270  0.00  0.00     0.000 C
ATOM     44  O5  IDS C   3      20.785 138.112  63.5370  0.00  0.00     0.000 O
ATOM     45   O  IDS C   3      18.771 139.245  66.2400  0.00  0.00     0.000 O
ATOM     47  HD  IDS C   3      19.519 139.288  66.6740  0.00  0.00     0.000 HD
BRANCH 40 47
ATOM     47   O  IDS C   3      18.115 136.793  63.5850  0.00  0.00     0.000 O
ATOM     48   S  IDS C   3      17.071 135.594  63.7660  0.00  0.00     0.000 S
ATOM     49   O  IDS C   3      17.866 134.396  63.9280  0.00  0.00     0.000 OA
ATOM     50   O  IDS C   3      16.292 135.581  62.5470  0.00  0.00     0.000 OA
ATOM     51   O  IDS C   3      16.290 135.908  64.9330  0.00  0.00     0.000 OA
ENDBRANCH 40 47
BRANCH 43 52
ATOM     52   C  IDS C   3      21.184 140.364  62.8040  0.00  0.00     0.000 C
ATOM     53   O  IDS C   3      21.722 139.869  61.8410  0.00  0.00     0.000 OA
ATOM     54   O  IDS C   3      21.184 141.560  62.9540  0.00  0.00     0.000 OA
ENDBRANCH 43 52
BRANCH 39 55
ATOM     55  O4  SGN C   4      21.217 137.111  65.5720  0.00  0.00     0.000 O
BRANCH 55 59
ATOM     56  C1  SGN C   4      24.492 134.626  64.7970  0.00  0.00     0.000 C
ATOM     57  C2  SGN C   4      23.229 133.946  65.3520  0.00  0.00     0.000 C
ATOM     58  C3  SGN C   4      22.016 134.862  65.2150  0.00  0.00     0.000 C
ATOM     59  C4  SGN C   4      22.314 136.239  65.7990  0.00  0.00     0.000 C
ATOM     60  C5  SGN C   4      23.569 136.795  65.1290  0.00  0.00     0.000 C
ATOM     61  O5  SGN C   4      24.663 135.897  65.4030  0.00  0.00     0.000 O
ATOM     62   O  SGN C   4      20.898 134.273  65.8660  0.00  0.00     0.000 O
ATOM     64  HD  SGN C   4      21.385 133.601  65.6200  0.00  0.00     0.000 HD
BRANCH 57 66
ATOM     64   N  SGN C   4      24.000 132.772  65.7910  0.00  0.00     0.000 N
ATOM     66  HD  SGN C   4      23.834 132.039  66.2210  0.00  0.00     0.000 HD
ATOM     66   S  SGN C   4      23.527 131.298  65.4040  0.00  0.00     0.000 S
ATOM     67   O  SGN C   4      24.426 130.389  66.0150  0.00  0.00     0.000 OA
ATOM     68   O  SGN C   4      22.139 131.215  65.7030  0.00  0.00     0.000 OA
ATOM     69   O  SGN C   4      23.709 131.245  63.8530  0.00  0.00     0.000 OA
ENDBRANCH 57 66
BRANCH 60 70
ATOM     70   C  SGN C   4      23.966 138.170  65.6200  0.00  0.00     0.000 C
ATOM     71   O  SGN C   4      27.454 139.453  66.1620  0.00  0.00     0.000 OA
ATOM     72   O  SGN C   4      25.991 139.905  64.2900  0.00  0.00     0.000 OA
ATOM     73   O  SGN C   4      25.378 138.219  65.8980  0.00  0.00     0.000 O
ATOM     74   S  SGN C   4      26.095 139.635  65.7060  0.00  0.00     0.000 S
ATOM     75   O  SGN C   4      25.328 140.553  66.5260  0.00  0.00     0.000 OA
ENDBRANCH 60 70
BRANCH 56 76
ATOM     76  O4  IDS C   5      25.130 134.650  63.6130  0.00  0.00     0.000 O
BRANCH 76 80
ATOM     77  C1  IDS C   5      24.491 137.677  60.9500  0.00  0.00     0.000 C
ATOM     78  C2  IDS C   5      23.628 136.437  60.7200  0.00  0.00     0.000 C
ATOM     79  C3  IDS C   5      23.612 135.582  61.9720  0.00  0.00     0.000 C
ATOM     80  C4  IDS C   5      25.012 135.035  62.2350  0.00  0.00     0.000 C
ATOM     81  C5  IDS C   5      26.051 136.111  61.8870  0.00  0.00     0.000 C
ATOM     82  O5  IDS C   5      25.468 137.415  61.9580  0.00  0.00     0.000 O
BRANCH 78 83
ATOM     83   O  IDS C   5      22.234 136.822  60.3980  0.00  0.00     0.000 O
ATOM     84   S  IDS C   5      21.615 136.444  58.9770  0.00  0.00     0.000 S
ATOM     85   O  IDS C   5      22.587 136.854  58.0000  0.00  0.00     0.000 OA
ATOM     86   O  IDS C   5      21.420 135.013  59.0180  0.00  0.00     0.000 OA
ATOM     87   O  IDS C   5      20.373 137.171  58.8860  0.00  0.00     0.000 OA
ENDBRANCH 78 83
BRANCH 81 88
ATOM     88   C  IDS C   5      27.270 136.105  62.7930  0.00  0.00     0.000 C
ATOM     89   O  IDS C   5      28.110 135.256  62.6600  0.00  0.00     0.000 OA
ATOM     90   O  IDS C   5      27.387 136.957  63.6440  0.00  0.00     0.000 OA
ENDBRANCH 81 88
ENDBRANCH 76 80
ENDBRANCH 56 76
ENDBRANCH 55 59
ENDBRANCH 39 55
ENDBRANCH 38 42
ENDBRANCH 18 38
ENDBRANCH 17 21
ENDBRANCH 1 17
TORSDOF 18
ENDMDL
MODEL 68
REMARK VINA RESULT:      -1.8    169.881    177.127
ROOT
ATOM      1  C1  IDS C   1      19.053 138.554  53.7460  0.00  0.00     0.000 C
ATOM      2  C2  IDS C   1      19.057 139.737  52.7730  0.00  0.00     0.000 C
ATOM      3  C3  IDS C   1      17.920 139.615  51.7700  0.00  0.00     0.000 C
ATOM      4  C4  IDS C   1      18.035 138.317  50.9830  0.00  0.00     0.000 C
ATOM      5  C5  IDS C   1      18.492 137.187  51.9000  0.00  0.00     0.000 C
ATOM      6  O5  IDS C   1      18.212 137.516  53.2610  0.00  0.00     0.000 O
ATOM      7   O  IDS C   1      17.941 140.735  50.8730  0.00  0.00     0.000 O
ATOM      9  HD  IDS C   1      18.181 141.436  51.3200  0.00  0.00     0.000 HD
ENDROOT
BRANCH 2 9
ATOM      9   O  IDS C   1      18.878 141.015  53.4980  0.00  0.00     0.000 O
ATOM     10   S  IDS C   1      19.938 142.189  53.2910  0.00  0.00     0.000 S
ATOM     11   O  IDS C   1      19.479 143.287  54.1120  0.00  0.00     0.000 OA
ATOM     12   O  IDS C   1      21.208 141.648  53.7310  0.00  0.00     0.000 OA
ATOM     13   O  IDS C   1      19.916 142.496  51.8780  0.00  0.00     0.000 OA
ENDBRANCH 2 9
BRANCH 5 14
ATOM     14   C  IDS C   1      17.807 135.871  51.5730  0.00  0.00     0.000 C
ATOM     15   O  IDS C   1      17.292 135.233  52.4590  0.00  0.00     0.000 OA
ATOM     16   O  IDS C   1      17.787 135.469  50.4220  0.00  0.00     0.000 OA
ENDBRANCH 5 14
BRANCH 1 17
ATOM     17  O4  SGN C   2      19.253 138.692  55.0600  0.00  0.00     0.000 O
BRANCH 17 21
ATOM     18  C1  SGN C   2      18.113 138.866  59.0840  0.00  0.00     0.000 C
ATOM     19  C2  SGN C   2      17.113 138.226  58.1140  0.00  0.00     0.000 C
ATOM     20  C3  SGN C   2      17.822 137.854  56.8060  0.00  0.00     0.000 C
ATOM     21  C4  SGN C   2      18.545 139.070  56.2380  0.00  0.00     0.000 C
ATOM     22  C5  SGN C   2      19.510 139.611  57.2880  0.00  0.00     0.000 C
ATOM     23  O5  SGN C   2      18.782 139.958  58.4890  0.00  0.00     0.000 O
ATOM     24   O  SGN C   2      16.882 137.342  55.8760  0.00  0.00     0.000 O
ATOM     26  HD  SGN C   2      17.634 137.382  56.3050  0.00  0.00     0.000 HD
BRANCH 19 28
ATOM     26   N  SGN C   2      16.258 137.465  59.0360  0.00  0.00     0.000 N
ATOM     28  HD  SGN C   2      16.491 138.160  59.4970  0.00  0.00     0.000 HD
ATOM     28   O  SGN C   2      14.310 135.946  59.3830  0.00  0.00     0.000 OA
ATOM     29   S  SGN C   2      14.663 137.378  58.8550  0.00  0.00     0.000 S
ATOM     30   O  SGN C   2      14.084 138.334  59.7190  0.00  0.00     0.000 OA
ATOM     31   O  SGN C   2      14.383 137.429  57.4620  0.00  0.00     0.000 OA
ENDBRANCH 19 28
BRANCH 22 32
ATOM     32   C  SGN C   2      20.239 140.857  56.8460  0.00  0.00     0.000 C
ATOM     33   S  SGN C   2      20.788 143.206  57.7520  0.00  0.00     0.000 S
ATOM     34   O  SGN C   2      19.457 143.693  57.4910  0.00  0.00     0.000 OA
ATOM     35   O  SGN C   2      21.357 143.703  58.9880  0.00  0.00     0.000 OA
ATOM     36   O  SGN C   2      21.685 143.309  56.6250  0.00  0.00     0.000 OA
ATOM     37   O  SGN C   2      20.594 141.640  57.9920  0.00  0.00     0.000 O
ENDBRANCH 22 32
BRANCH 18 38
ATOM     38  O4  IDS C   3      19.040 138.303  59.8630  0.00  0.00     0.000 O
BRANCH 38 42
ATOM     39  C1  IDS C   3      20.939 135.986  61.6380  0.00  0.00     0.000 C
ATOM     40  C2  IDS C   3      19.404 135.915  61.6340  0.00  0.00     0.000 C
ATOM     41  C3  IDS C   3      18.787 137.258  62.0210  0.00  0.00     0.000 C
ATOM     42  C4  IDS C   3      19.420 138.401  61.2390  0.00  0.00     0.000 C
ATOM     43  C5  IDS C   3      20.947 138.334  61.3670  0.00  0.00     0.000 C
ATOM     44  O5  IDS C   3      21.402 137.080  60.8630  0.00  0.00     0.000 O
ATOM     45   O  IDS C   3      18.966 137.475  63.4220  0.00  0.00     0.000 O
ATOM     47  HD  IDS C   3      19.646 137.489  63.9570  0.00  0.00     0.000 HD
BRANCH 40 47
ATOM     47   O  IDS C   3      18.903 135.568  60.2830  0.00  0.00     0.000 O
ATOM     48   S  IDS C   3      17.883 134.349  60.1000  0.00  0.00     0.000 S
ATOM     49   O  IDS C   3      18.682 133.146  60.1930  0.00  0.00     0.000 OA
ATOM     50   O  IDS C   3      17.305 134.530  58.7870  0.00  0.00     0.000 OA
ATOM     51   O  IDS C   3      16.920 134.462  61.1630  0.00  0.00     0.000 OA
ENDBRANCH 40 47
BRANCH 43 52
ATOM     52   C  IDS C   3      21.646 139.459  60.6360  0.00  0.00     0.000 C
ATOM     53   O  IDS C   3      22.290 139.222  59.6400  0.00  0.00     0.000 OA
ATOM     54   O  IDS C   3      21.556 140.587  61.0500  0.00  0.00     0.000 OA
ENDBRANCH 43 52
BRANCH 39 55
ATOM     55  O4  SGN C   4      21.688 135.725  62.7100  0.00  0.00     0.000 O
BRANCH 55 59
ATOM     56  C1  SGN C   4      25.275 133.735  61.8870  0.00  0.00     0.000 C
ATOM     57  C2  SGN C   4      24.064 132.853  62.2360  0.00  0.00     0.000 C
ATOM     58  C3  SGN C   4      22.765 133.647  62.1220  0.00  0.00     0.000 C
ATOM     59  C4  SGN C   4      22.861 134.949  62.9090  0.00  0.00     0.000 C
ATOM     60  C5  SGN C   4      24.086 135.724  62.4290  0.00  0.00     0.000 C
ATOM     61  O5  SGN C   4      25.256 134.917  62.6710  0.00  0.00     0.000 O
ATOM     62   O  SGN C   4      21.681 132.856  62.5910  0.00  0.00     0.000 O
ATOM     64  HD  SGN C   4      22.259 132.281  62.2990  0.00  0.00     0.000 HD
BRANCH 57 66
ATOM     64   N  SGN C   4      24.577 131.762  61.3920  0.00  0.00     0.000 N
ATOM     66  HD  SGN C   4      25.192 131.157  61.4580  0.00  0.00     0.000 HD
ATOM     66   S  SGN C   4      24.663 130.272  61.9560  0.00  0.00     0.000 S
ATOM     67   O  SGN C   4      25.247 129.468  60.9450  0.00  0.00     0.000 OA
ATOM     68   O  SGN C   4      25.281 130.346  63.2350  0.00  0.00     0.000 OA
ATOM     69   O  SGN C   4      23.167 129.860  62.1460  0.00  0.00     0.000 OA
ENDBRANCH 57 66
BRANCH 60 70
ATOM     70   C  SGN C   4      24.285 137.049  63.1330  0.00  0.00     0.000 C
ATOM     71   O  SGN C   4      25.584 137.580  66.6170  0.00  0.00     0.000 OA
ATOM     72   O  SGN C   4      26.792 137.839  64.5380  0.00  0.00     0.000 OA
ATOM     73   O  SGN C   4      24.600 136.840  64.5230  0.00  0.00     0.000 O
ATOM     74   S  SGN C   4      25.522 137.944  65.2200  0.00  0.00     0.000 S
ATOM     75   O  SGN C   4      24.841 139.201  64.9810  0.00  0.00     0.000 OA
ENDBRANCH 60 70
BRANCH 56 76
ATOM     76  O4  IDS C   5      25.987 133.996  60.7750  0.00  0.00     0.000 O
BRANCH 76 80
ATOM     77  C1  IDS C   5      24.952 137.218  58.4940  0.00  0.00     0.000 C
ATOM     78  C2  IDS C   5      24.416 135.881  57.9830  0.00  0.00     0.000 C
ATOM     79  C3  IDS C   5      24.468 134.849  59.0920  0.00  0.00     0.000 C
ATOM     80  C4  IDS C   5      25.922 134.568  59.4600  0.00  0.00     0.000 C
ATOM     81  C5  IDS C   5      26.723 135.877  59.4050  0.00  0.00     0.000 C
ATOM     82  O5  IDS C   5      25.857 137.003  59.5770  0.00  0.00     0.000 O
BRANCH 78 83
ATOM     83   O  IDS C   5      23.010 136.017  57.5350  0.00  0.00     0.000 O
ATOM     84   S  IDS C   5      22.626 135.696  56.0200  0.00  0.00     0.000 S
ATOM     85   O  IDS C   5      23.580 136.406  55.2120  0.00  0.00     0.000 OA
ATOM     86   O  IDS C   5      22.734 134.261  55.8980  0.00  0.00     0.000 OA
ATOM     87   O  IDS C   5      21.273 136.168  55.8520  0.00  0.00     0.000 OA
ENDBRANCH 78 83
BRANCH 81 88
ATOM     88   C  IDS C   5      27.815 135.976  60.4540  0.00  0.00     0.000 C
ATOM     89   O  IDS C   5      28.816 135.321  60.3390  0.00  0.00     0.000 OA
ATOM     90   O  IDS C   5      27.671 136.715  61.4010  0.00  0.00     0.000 OA
ENDBRANCH 81 88
ENDBRANCH 76 80
ENDBRANCH 56 76
ENDBRANCH 55 59
ENDBRANCH 39 55
ENDBRANCH 38 42
ENDBRANCH 18 38
ENDBRANCH 17 21
ENDBRANCH 1 17
TORSDOF 18
ENDMDL
MODEL 69
REMARK VINA RESULT:      -1.8    168.690    175.528
ROOT
ATOM      1  C1  IDS C   1      19.032 134.377  41.4910  0.00  0.00     0.000 C
ATOM      2  C2  IDS C   1      19.603 135.455  40.5650  0.00  0.00     0.000 C
ATOM      3  C3  IDS C   1      18.732 135.623  39.3290  0.00  0.00     0.000 C
ATOM      4  C4  IDS C   1      18.625 134.310  38.5650  0.00  0.00     0.000 C
ATOM      5  C5  IDS C   1      18.509 133.144  39.5420  0.00  0.00     0.000 C
ATOM      6  O5  IDS C   1      18.048 133.610  40.8100  0.00  0.00     0.000 O
ATOM      7   O  IDS C   1      19.284 136.639  38.4800  0.00  0.00     0.000 O
ATOM      9  HD  IDS C   1      19.618 137.261  38.9820  0.00  0.00     0.000 HD
ENDROOT
BRANCH 2 9
ATOM      9   O  IDS C   1      19.659 136.765  41.2530  0.00  0.00     0.000 O
ATOM     10   S  IDS C   1      21.039 137.563  41.3080  0.00  0.00     0.000 S
ATOM     11   O  IDS C   1      20.759 138.788  42.0240  0.00  0.00     0.000 OA
ATOM     12   O  IDS C   1      21.962 136.696  42.0110  0.00  0.00     0.000 OA
ATOM     13   O  IDS C   1      21.418 137.792  39.9310  0.00  0.00     0.000 OA
ENDBRANCH 2 9
BRANCH 5 14
ATOM     14   C  IDS C   1      17.553 132.073  39.0460  0.00  0.00     0.000 C
ATOM     15   O  IDS C   1      16.629 131.733  39.7430  0.00  0.00     0.000 OA
ATOM     16   O  IDS C   1      17.728 131.566  37.9510  0.00  0.00     0.000 OA
ENDBRANCH 5 14
BRANCH 1 17
ATOM     17  O4  SGN C   2      18.969 134.517  42.8180  0.00  0.00     0.000 O
BRANCH 17 21
ATOM     18  C1  SGN C   2      17.079 135.231  46.4850  0.00  0.00     0.000 C
ATOM     19  C2  SGN C   2      16.172 134.865  45.3040  0.00  0.00     0.000 C
ATOM     20  C3  SGN C   2      17.006 134.233  44.1840  0.00  0.00     0.000 C
ATOM     21  C4  SGN C   2      18.167 135.148  43.8130  0.00  0.00     0.000 C
ATOM     22  C5  SGN C   2      18.995 135.434  45.0620  0.00  0.00     0.000 C
ATOM     23  O5  SGN C   2      18.159 136.044  46.0730  0.00  0.00     0.000 O
ATOM     24   O  SGN C   2      16.185 133.973  43.0580  0.00  0.00     0.000 O
ATOM     26  HD  SGN C   2      16.800 133.811  43.6450  0.00  0.00     0.000 HD
BRANCH 19 28
ATOM     26   N  SGN C   2      14.948 134.440  45.9970  0.00  0.00     0.000 N
ATOM     28  HD  SGN C   2      15.272 135.057  46.5110  0.00  0.00     0.000 HD
ATOM     28   O  SGN C   2      12.607 133.587  45.8720  0.00  0.00     0.000 OA
ATOM     29   S  SGN C   2      13.480 134.821  45.4620  0.00  0.00     0.000 S
ATOM     30   O  SGN C   2      13.041 135.948  46.1910  0.00  0.00     0.000 OA
ATOM     31   O  SGN C   2      13.541 134.882  44.0430  0.00  0.00     0.000 OA
ENDBRANCH 19 28
BRANCH 22 32
ATOM     32   C  SGN C   2      20.142 136.383  44.8160  0.00  0.00     0.000 C
ATOM     33   S  SGN C   2      21.157 138.510  45.8600  0.00  0.00     0.000 S
ATOM     34   O  SGN C   2      20.125 139.354  45.3130  0.00  0.00     0.000 OA
ATOM     35   O  SGN C   2      21.562 138.881  47.2000  0.00  0.00     0.000 OA
ATOM     36   O  SGN C   2      22.268 138.283  44.9660  0.00  0.00     0.000 OA
ATOM     37   O  SGN C   2      20.455 137.086  46.0240  0.00  0.00     0.000 O
ENDBRANCH 22 32
BRANCH 18 38
ATOM     38  O4  IDS C   3      17.600 134.461  47.4420  0.00  0.00     0.000 O
BRANCH 38 42
ATOM     39  C1  IDS C   3      18.285 131.783  49.5610  0.00  0.00     0.000 C
ATOM     40  C2  IDS C   3      16.838 132.164  49.2090  0.00  0.00     0.000 C
ATOM     41  C3  IDS C   3      16.578 133.648  49.4700  0.00  0.00     0.000 C
ATOM     42  C4  IDS C   3      17.679 134.513  48.8710  0.00  0.00     0.000 C
ATOM     43  C5  IDS C   3      19.049 134.008  49.3380  0.00  0.00     0.000 C
ATOM     44  O5  IDS C   3      19.211 132.651  48.9290  0.00  0.00     0.000 O
ATOM     45   O  IDS C   3      16.500 133.873  50.8780  0.00  0.00     0.000 O
ATOM     47  HD  IDS C   3      17.019 133.715  51.5540  0.00  0.00     0.000 HD
BRANCH 40 47
ATOM     47   O  IDS C   3      16.568 131.911  47.7740  0.00  0.00     0.000 O
ATOM     48   S  IDS C   3      15.291 131.049  47.3440  0.00  0.00     0.000 S
ATOM     49   O  IDS C   3      15.641 129.668  47.5970  0.00  0.00     0.000 OA
ATOM     50   O  IDS C   3      15.102 131.323  45.9370  0.00  0.00     0.000 OA
ATOM     51   O  IDS C   3      14.198 131.506  48.1610  0.00  0.00     0.000 OA
ENDBRANCH 40 47
BRANCH 43 52
ATOM     52   C  IDS C   3      20.194 134.840  48.8040  0.00  0.00     0.000 C
ATOM     53   O  IDS C   3      20.944 134.373  47.9780  0.00  0.00     0.000 OA
ATOM     54   O  IDS C   3      20.352 135.965  49.2040  0.00  0.00     0.000 OA
ENDBRANCH 43 52
BRANCH 39 55
ATOM     55  O4  SGN C   4      18.667 131.369  50.7690  0.00  0.00     0.000 O
BRANCH 55 59
ATOM     56  C1  SGN C   4      21.579 128.365  50.7420  0.00  0.00     0.000 C
ATOM     57  C2  SGN C   4      20.114 127.901  50.7980  0.00  0.00     0.000 C
ATOM     58  C3  SGN C   4      19.171 129.037  50.4080  0.00  0.00     0.000 C
ATOM     59  C4  SGN C   4      19.479 130.292  51.2150  0.00  0.00     0.000 C
ATOM     60  C5  SGN C   4      20.954 130.643  51.0330  0.00  0.00     0.000 C
ATOM     61  O5  SGN C   4      21.745 129.541  51.5190  0.00  0.00     0.000 O
ATOM     62   O  SGN C   4      17.825 128.628  50.6100  0.00  0.00     0.000 O
ATOM     64  HD  SGN C   4      18.252 127.893  50.4460  0.00  0.00     0.000 HD
BRANCH 57 66
ATOM     64   N  SGN C   4      20.448 126.663  50.0750  0.00  0.00     0.000 N
ATOM     66  HD  SGN C   4      20.823 125.907  50.2700  0.00  0.00     0.000 HD
ATOM     66   S  SGN C   4      19.955 125.247  50.6210  0.00  0.00     0.000 S
ATOM     67   O  SGN C   4      20.479 124.253  49.7570  0.00  0.00     0.000 OA
ATOM     68   O  SGN C   4      20.269 125.204  52.0080  0.00  0.00     0.000 OA
ATOM     69   O  SGN C   4      18.402 125.307  50.4610  0.00  0.00     0.000 OA
ENDBRANCH 57 66
BRANCH 60 70
ATOM     70   C  SGN C   4      21.384 131.886  51.7830  0.00  0.00     0.000 C
ATOM     71   O  SGN C   4      21.992 132.194  55.4770  0.00  0.00     0.000 OA
ATOM     72   O  SGN C   4      23.643 131.974  53.7240  0.00  0.00     0.000 OA
ATOM     73   O  SGN C   4      21.311 131.667  53.2050  0.00  0.00     0.000 O
ATOM     74   S  SGN C   4      22.347 132.486  54.1070  0.00  0.00     0.000 S
ATOM     75   O  SGN C   4      22.143 133.873  53.7400  0.00  0.00     0.000 OA
ENDBRANCH 60 70
BRANCH 56 76
ATOM     76  O4  IDS C   5      22.561 128.344  49.8220  0.00  0.00     0.000 O
BRANCH 76 80
ATOM     77  C1  IDS C   5      23.054 131.597  47.4070  0.00  0.00     0.000 C
ATOM     78  C2  IDS C   5      22.272 130.448  46.7720  0.00  0.00     0.000 C
ATOM     79  C3  IDS C   5      21.771 129.508  47.8500  0.00  0.00     0.000 C
ATOM     80  C4  IDS C   5      22.959 128.836  48.5340  0.00  0.00     0.000 C
ATOM     81  C5  IDS C   5      24.103 129.850  48.6770  0.00  0.00     0.000 C
ATOM     82  O5  IDS C   5      23.595 131.187  48.6630  0.00  0.00     0.000 O
BRANCH 78 83
ATOM     83   O  IDS C   5      21.103 130.963  46.0200  0.00  0.00     0.000 O
ATOM     84   S  IDS C   5      21.002 130.718  44.4470  0.00  0.00     0.000 S
ATOM     85   O  IDS C   5      22.277 131.103  43.9030  0.00  0.00     0.000 OA
ATOM     86   O  IDS C   5      20.725 129.308  44.3010  0.00  0.00     0.000 OA
ATOM     87   O  IDS C   5      19.914 131.548  43.9910  0.00  0.00     0.000 OA
ENDBRANCH 78 83
BRANCH 81 88
ATOM     88   C  IDS C   5      24.918 129.683  49.9470  0.00  0.00     0.000 C
ATOM     89   O  IDS C   5      25.679 128.759  50.0530  0.00  0.00     0.000 OA
ATOM     90   O  IDS C   5      24.796 130.484  50.8450  0.00  0.00     0.000 OA
ENDBRANCH 81 88
ENDBRANCH 76 80
ENDBRANCH 56 76
ENDBRANCH 55 59
ENDBRANCH 39 55
ENDBRANCH 38 42
ENDBRANCH 18 38
ENDBRANCH 17 21
ENDBRANCH 1 17
TORSDOF 18
ENDMDL
MODEL 70
REMARK VINA RESULT:      -1.8    140.124    144.951
ROOT
ATOM      1  C1  IDS C   1      98.916  41.298 188.2350  0.00  0.00     0.000 C
ATOM      2  C2  IDS C   1      99.054  40.146 187.2360  0.00  0.00     0.000 C
ATOM      3  C3  IDS C   1      98.362  38.894 187.7550  0.00  0.00     0.000 C
ATOM      4  C4  IDS C   1      98.952  38.471 189.0940  0.00  0.00     0.000 C
ATOM      5  C5  IDS C   1      99.250  39.700 189.9460  0.00  0.00     0.000 C
ATOM      6  O5  IDS C   1      98.473  40.811 189.4950  0.00  0.00     0.000 O
ATOM      7   O  IDS C   1      98.501  37.832 186.8010  0.00  0.00     0.000 O
ATOM      9  HD  IDS C   1      98.456  38.172 186.0060  0.00  0.00     0.000 HD
ENDROOT
BRANCH 2 9
ATOM      9   O  IDS C   1      98.430  40.495 185.9390  0.00  0.00     0.000 O
ATOM     10   S  IDS C   1      99.292  40.392 184.6020  0.00  0.00     0.000 S
ATOM     11   O  IDS C   1      98.405  40.780 183.5280  0.00  0.00     0.000 OA
ATOM     12   O  IDS C   1     100.399  41.309 184.7790  0.00  0.00     0.000 OA
ATOM     13   O  IDS C   1      99.714  39.011 184.5100  0.00  0.00     0.000 OA
ENDBRANCH 2 9
BRANCH 5 14
ATOM     14   C  IDS C   1      98.945  39.466 191.4160  0.00  0.00     0.000 C
ATOM     15   O  IDS C   1      98.228  40.238 192.0040  0.00  0.00     0.000 OA
ATOM     16   O  IDS C   1      99.429  38.504 191.9880  0.00  0.00     0.000 OA
ENDBRANCH 5 14
BRANCH 1 17
ATOM     17  O4  SGN C   2      98.632  42.550 187.8670  0.00  0.00     0.000 O
BRANCH 17 21
ATOM     18  C1  SGN C   2      96.180  45.920 187.4630  0.00  0.00     0.000 C
ATOM     19  C2  SGN C   2      95.703  44.836 188.4380  0.00  0.00     0.000 C
ATOM     20  C3  SGN C   2      96.869  43.906 188.7930  0.00  0.00     0.000 C
ATOM     21  C4  SGN C   2      97.510  43.359 187.5220  0.00  0.00     0.000 C
ATOM     22  C5  SGN C   2      97.945  44.526 186.6410  0.00  0.00     0.000 C
ATOM     23  O5  SGN C   2      96.802  45.355 186.3280  0.00  0.00     0.000 O
ATOM     24   O  SGN C   2      96.411  42.853 189.6240  0.00  0.00     0.000 O
ATOM     26  HD  SGN C   2      96.952  43.474 189.3550  0.00  0.00     0.000 HD
BRANCH 19 28
ATOM     26   N  SGN C   2      94.714  45.574 189.2360  0.00  0.00     0.000 N
ATOM     28  HD  SGN C   2      94.618  45.898 188.4380  0.00  0.00     0.000 HD
ATOM     28   O  SGN C   2      93.098  45.610 191.1360  0.00  0.00     0.000 OA
ATOM     29   S  SGN C   2      93.358  44.893 189.7680  0.00  0.00     0.000 S
ATOM     30   O  SGN C   2      92.325  45.244 188.8710  0.00  0.00     0.000 OA
ATOM     31   O  SGN C   2      93.635  43.521 190.0210  0.00  0.00     0.000 OA
ENDBRANCH 19 28
BRANCH 22 32
ATOM     32   C  SGN C   2      98.542  44.092 185.3250  0.00  0.00     0.000 C
ATOM     33   S  SGN C   2      98.196  44.516 182.8060  0.00  0.00     0.000 S
ATOM     34   O  SGN C   2      97.037  43.660 182.7510  0.00  0.00     0.000 OA
ATOM     35   O  SGN C   2      98.078  45.707 181.9910  0.00  0.00     0.000 OA
ATOM     36   O  SGN C   2      99.450  43.822 182.6310  0.00  0.00     0.000 OA
ATOM     37   O  SGN C   2      98.219  45.051 184.3100  0.00  0.00     0.000 O
ENDBRANCH 22 32
BRANCH 18 38
ATOM     38  O4  IDS C   3      96.873  47.038 187.6900  0.00  0.00     0.000 O
BRANCH 38 42
ATOM     39  C1  IDS C   3      97.419  49.842 185.6990  0.00  0.00     0.000 C
ATOM     40  C2  IDS C   3      98.464  49.388 186.7300  0.00  0.00     0.000 C
ATOM     41  C3  IDS C   3      97.835  49.208 188.1120  0.00  0.00     0.000 C
ATOM     42  C4  IDS C   3      96.553  48.391 188.0320  0.00  0.00     0.000 C
ATOM     43  C5  IDS C   3      95.620  48.991 186.9730  0.00  0.00     0.000 C
ATOM     44  O5  IDS C   3      96.284  48.992 185.7110  0.00  0.00     0.000 O
ATOM     45   O  IDS C   3      97.555  50.492 188.6740  0.00  0.00     0.000 O
ATOM     47  HD  IDS C   3      97.105  51.186 188.4190  0.00  0.00     0.000 HD
BRANCH 40 47
ATOM     47   O  IDS C   3      99.052  48.085 186.3360  0.00  0.00     0.000 O
ATOM     48   S  IDS C   3     100.317  48.047 185.3590  0.00  0.00     0.000 S
ATOM     49   O  IDS C   3      99.801  48.298 184.0310  0.00  0.00     0.000 OA
ATOM     50   O  IDS C   3     100.863  46.714 185.4970  0.00  0.00     0.000 OA
ATOM     51   O  IDS C   3     101.213  49.076 185.8130  0.00  0.00     0.000 OA
ENDBRANCH 40 47
BRANCH 43 52
ATOM     52   C  IDS C   3      94.309  48.245 186.8570  0.00  0.00     0.000 C
ATOM     53   O  IDS C   3      93.965  47.794 185.7890  0.00  0.00     0.000 OA
ATOM     54   O  IDS C   3      93.614  48.103 187.8310  0.00  0.00     0.000 OA
ENDBRANCH 43 52
BRANCH 39 55
ATOM     55  O4  SGN C   4      97.136  51.121 185.4480  0.00  0.00     0.000 O
BRANCH 55 59
ATOM     56  C1  SGN C   4      96.233  52.279 181.5300  0.00  0.00     0.000 C
ATOM     57  C2  SGN C   4      97.699  51.913 181.8190  0.00  0.00     0.000 C
ATOM     58  C3  SGN C   4      97.817  51.146 183.1330  0.00  0.00     0.000 C
ATOM     59  C4  SGN C   4      97.108  51.894 184.2570  0.00  0.00     0.000 C
ATOM     60  C5  SGN C   4      95.663  52.154 183.8380  0.00  0.00     0.000 C
ATOM     61  O5  SGN C   4      95.676  52.960 182.6430  0.00  0.00     0.000 O
ATOM     62   O  SGN C   4      99.189  50.951 183.4480  0.00  0.00     0.000 O
ATOM     64  HD  SGN C   4      99.170  50.996 182.5840  0.00  0.00     0.000 HD
BRANCH 57 66
ATOM     64   N  SGN C   4      97.884  51.446 180.4350  0.00  0.00     0.000 N
ATOM     66  HD  SGN C   4      98.001  51.815 179.6610  0.00  0.00     0.000 HD
ATOM     66   S  SGN C   4      99.137  51.933 179.5750  0.00  0.00     0.000 S
ATOM     67   O  SGN C   4      99.008  51.370 178.2800  0.00  0.00     0.000 OA
ATOM     68   O  SGN C   4      99.215  53.346 179.7180  0.00  0.00     0.000 OA
ATOM     69   O  SGN C   4     100.360  51.289 180.3020  0.00  0.00     0.000 OA
ENDBRANCH 57 66
BRANCH 60 70
ATOM     70   C  SGN C   4      94.847  52.886 184.8810  0.00  0.00     0.000 C
ATOM     71   O  SGN C   4      92.819  51.352 187.6450  0.00  0.00     0.000 OA
ATOM     72   O  SGN C   4      95.011  52.360 187.8090  0.00  0.00     0.000 OA
ATOM     73   O  SGN C   4      94.046  51.959 185.6380  0.00  0.00     0.000 O
ATOM     74   S  SGN C   4      93.724  52.364 187.1510  0.00  0.00     0.000 S
ATOM     75   O  SGN C   4      93.125  53.681 187.0630  0.00  0.00     0.000 OA
ENDBRANCH 60 70
BRANCH 56 76
ATOM     76  O4  IDS C   5      95.218  51.719 180.8460  0.00  0.00     0.000 O
BRANCH 76 80
ATOM     77  C1  IDS C   5      92.622  49.279 182.8380  0.00  0.00     0.000 C
ATOM     78  C2  IDS C   5      93.711  48.544 182.0570  0.00  0.00     0.000 C
ATOM     79  C3  IDS C   5      94.845  49.497 181.7350  0.00  0.00     0.000 C
ATOM     80  C4  IDS C   5      94.348  50.579 180.7810  0.00  0.00     0.000 C
ATOM     81  C5  IDS C   5      92.915  50.976 181.1650  0.00  0.00     0.000 C
ATOM     82  O5  IDS C   5      92.661  50.675 182.5400  0.00  0.00     0.000 O
BRANCH 78 83
ATOM     83   O  IDS C   5      94.256  47.418 182.8510  0.00  0.00     0.000 O
ATOM     84   S  IDS C   5      93.968  45.916 182.3980  0.00  0.00     0.000 S
ATOM     85   O  IDS C   5      92.552  45.842 182.1530  0.00  0.00     0.000 OA
ATOM     86   O  IDS C   5      94.761  45.720 181.2070  0.00  0.00     0.000 OA
ATOM     87   O  IDS C   5      94.400  45.087 183.4970  0.00  0.00     0.000 OA
ENDBRANCH 78 83
BRANCH 81 88
ATOM     88   C  IDS C   5      92.606  52.447 180.9540  0.00  0.00     0.000 C
ATOM     89   O  IDS C   5      92.459  52.874 179.8400  0.00  0.00     0.000 OA
ATOM     90   O  IDS C   5      92.507  53.181 181.9110  0.00  0.00     0.000 OA
ENDBRANCH 81 88
ENDBRANCH 76 80
ENDBRANCH 56 76
ENDBRANCH 55 59
ENDBRANCH 39 55
ENDBRANCH 38 42
ENDBRANCH 18 38
ENDBRANCH 17 21
ENDBRANCH 1 17
TORSDOF 18
ENDMDL
MODEL 71
REMARK VINA RESULT:      -1.8     59.540     65.743
ROOT
ATOM      1  C1  IDS C   1     199.556  68.864  44.0710  0.00  0.00     0.000 C
ATOM      2  C2  IDS C   1     200.591  68.848  42.9430  0.00  0.00     0.000 C
ATOM      3  C3  IDS C   1     201.978  69.176  43.4760  0.00  0.00     0.000 C
ATOM      4  C4  IDS C   1     201.987  70.543  44.1460  0.00  0.00     0.000 C
ATOM      5  C5  IDS C   1     200.696  70.748  44.9340  0.00  0.00     0.000 C
ATOM      6  O5  IDS C   1     200.096  69.487  45.2300  0.00  0.00     0.000 O
ATOM      7   O  IDS C   1     202.929  69.150  42.4030  0.00  0.00     0.000 O
ATOM      9  HD  IDS C   1     202.707  68.516  41.8570  0.00  0.00     0.000 HD
ENDROOT
BRANCH 2 9
ATOM      9   O  IDS C   1     200.660  67.512  42.3100  0.00  0.00     0.000 O
ATOM     10   S  IDS C   1     200.445  67.378  40.7360  0.00  0.00     0.000 S
ATOM     11   O  IDS C   1     200.586  65.970  40.4350  0.00  0.00     0.000 OA
ATOM     12   O  IDS C   1     199.109  67.878  40.4810  0.00  0.00     0.000 OA
ATOM     13   O  IDS C   1     201.476  68.188  40.1260  0.00  0.00     0.000 OA
ENDBRANCH 2 9
BRANCH 5 14
ATOM     14   C  IDS C   1     200.933  71.487  46.2400  0.00  0.00     0.000 C
ATOM     15   O  IDS C   1     200.710  70.930  47.2870  0.00  0.00     0.000 OA
ATOM     16   O  IDS C   1     201.344  72.635  46.2200  0.00  0.00     0.000 OA
ENDBRANCH 5 14
BRANCH 1 17
ATOM     17  O4  SGN C   2     198.600  67.939  44.1950  0.00  0.00     0.000 O
BRANCH 17 21
ATOM     18  C1  SGN C   2     196.674  64.718  46.0510  0.00  0.00     0.000 C
ATOM     19  C2  SGN C   2     197.746  65.444  46.8730  0.00  0.00     0.000 C
ATOM     20  C3  SGN C   2     198.042  66.813  46.2500  0.00  0.00     0.000 C
ATOM     21  C4  SGN C   2     198.394  66.654  44.7750  0.00  0.00     0.000 C
ATOM     22  C5  SGN C   2     197.255  65.927  44.0670  0.00  0.00     0.000 C
ATOM     23  O5  SGN C   2     197.035  64.639  44.6880  0.00  0.00     0.000 O
ATOM     24   O  SGN C   2     199.093  67.449  46.9570  0.00  0.00     0.000 O
ATOM     26  HD  SGN C   2     198.333  67.394  46.5450  0.00  0.00     0.000 HD
BRANCH 19 28
ATOM     26   N  SGN C   2     197.406  65.017  48.2380  0.00  0.00     0.000 N
ATOM     28  HD  SGN C   2     197.202  64.331  47.7500  0.00  0.00     0.000 HD
ATOM     28   O  SGN C   2     197.880  65.105  50.6850  0.00  0.00     0.000 OA
ATOM     29   S  SGN C   2     198.529  64.659  49.3310  0.00  0.00     0.000 S
ATOM     30   O  SGN C   2     198.678  63.254  49.3430  0.00  0.00     0.000 OA
ATOM     31   O  SGN C   2     199.658  65.483  49.0760  0.00  0.00     0.000 OA
ENDBRANCH 19 28
BRANCH 22 32
ATOM     32   C  SGN C   2     197.529  65.665  42.6060  0.00  0.00     0.000 C
ATOM     33   S  SGN C   2     196.346  64.619  40.5690  0.00  0.00     0.000 S
ATOM     34   O  SGN C   2     196.596  63.275  41.0270  0.00  0.00     0.000 OA
ATOM     35   O  SGN C   2     195.043  64.792  39.9600  0.00  0.00     0.000 OA
ATOM     36   O  SGN C   2     197.423  65.187  39.7930  0.00  0.00     0.000 OA
ATOM     37   O  SGN C   2     196.291  65.487  41.9080  0.00  0.00     0.000 O
ENDBRANCH 22 32
BRANCH 18 38
ATOM     38  O4  IDS C   3     195.350  64.882  46.0260  0.00  0.00     0.000 O
BRANCH 38 42
ATOM     39  C1  IDS C   3     192.135  65.911  46.8830  0.00  0.00     0.000 C
ATOM     40  C2  IDS C   3     193.140  65.474  47.9600  0.00  0.00     0.000 C
ATOM     41  C3  IDS C   3     193.734  64.103  47.6380  0.00  0.00     0.000 C
ATOM     42  C4  IDS C   3     194.208  64.034  46.1920  0.00  0.00     0.000 C
ATOM     43  C5  IDS C   3     193.081  64.484  45.2540  0.00  0.00     0.000 C
ATOM     44  O5  IDS C   3     192.702  65.818  45.5870  0.00  0.00     0.000 O
ATOM     45   O  IDS C   3     192.750  63.094  47.8710  0.00  0.00     0.000 O
ATOM     47  HD  IDS C   3     191.942  62.951  47.5930  0.00  0.00     0.000 HD
BRANCH 40 47
ATOM     47   O  IDS C   3     194.263  66.437  48.0460  0.00  0.00     0.000 O
ATOM     48   S  IDS C   3     194.659  67.074  49.4590  0.00  0.00     0.000 S
ATOM     49   O  IDS C   3     193.668  68.094  49.7260  0.00  0.00     0.000 OA
ATOM     50   O  IDS C   3     195.983  67.624  49.2700  0.00  0.00     0.000 OA
ATOM     51   O  IDS C   3     194.624  65.998  50.4140  0.00  0.00     0.000 OA
ENDBRANCH 40 47
BRANCH 43 52
ATOM     52   C  IDS C   3     193.472  64.415  43.7950  0.00  0.00     0.000 C
ATOM     53   O  IDS C   3     193.186  65.325  43.0510  0.00  0.00     0.000 OA
ATOM     54   O  IDS C   3     194.066  63.453  43.3800  0.00  0.00     0.000 OA
ENDBRANCH 43 52
BRANCH 39 55
ATOM     55  O4  SGN C   4     190.833  65.627  46.9270  0.00  0.00     0.000 O
BRANCH 55 59
ATOM     56  C1  SGN C   4     188.353  68.712  45.5720  0.00  0.00     0.000 C
ATOM     57  C2  SGN C   4     188.585  68.633  47.0900  0.00  0.00     0.000 C
ATOM     58  C3  SGN C   4     189.787  67.747  47.4090  0.00  0.00     0.000 C
ATOM     59  C4  SGN C   4     189.662  66.400  46.7070  0.00  0.00     0.000 C
ATOM     60  C5  SGN C   4     189.471  66.642  45.2110  0.00  0.00     0.000 C
ATOM     61  O5  SGN C   4     188.262  67.405  45.0270  0.00  0.00     0.000 O
ATOM     62   O  SGN C   4     189.889  67.572  48.8160  0.00  0.00     0.000 O
ATOM     64  HD  SGN C   4     189.506  68.343  48.7210  0.00  0.00     0.000 HD
BRANCH 57 66
ATOM     64   N  SGN C   4     188.095  69.245  48.3360  0.00  0.00     0.000 N
ATOM     66  HD  SGN C   4     188.231  69.984  48.7660  0.00  0.00     0.000 HD
ATOM     66   S  SGN C   4     187.461  70.709  48.3270  0.00  0.00     0.000 S
ATOM     67   O  SGN C   4     187.143  71.043  49.6670  0.00  0.00     0.000 OA
ATOM     68   O  SGN C   4     188.348  71.542  47.5900  0.00  0.00     0.000 OA
ATOM     69   O  SGN C   4     186.141  70.536  47.5080  0.00  0.00     0.000 OA
ENDBRANCH 57 66
BRANCH 60 70
ATOM     70   C  SGN C   4     189.343  65.371  44.3990  0.00  0.00     0.000 C
ATOM     71   O  SGN C   4     186.333  63.137  44.1640  0.00  0.00     0.000 OA
ATOM     72   O  SGN C   4     187.077  64.782  42.5550  0.00  0.00     0.000 OA
ATOM     73   O  SGN C   4     188.119  64.684  44.7250  0.00  0.00     0.000 O
ATOM     74   S  SGN C   4     187.457  63.814  43.5590  0.00  0.00     0.000 S
ATOM     75   O  SGN C   4     188.508  62.915  43.1240  0.00  0.00     0.000 OA
ENDBRANCH 60 70
BRANCH 56 76
ATOM     76  O4  IDS C   5     188.735  69.539  44.5810  0.00  0.00     0.000 O
BRANCH 76 80
ATOM     77  C1  IDS C   5     192.121  68.651  42.4820  0.00  0.00     0.000 C
ATOM     78  C2  IDS C   5     192.313  69.692  43.5850  0.00  0.00     0.000 C
ATOM     79  C3  IDS C   5     191.155  69.625  44.5620  0.00  0.00     0.000 C
ATOM     80  C4  IDS C   5     189.868  70.042  43.8570  0.00  0.00     0.000 C
ATOM     81  C5  IDS C   5     189.873  69.494  42.4230  0.00  0.00     0.000 C
ATOM     82  O5  IDS C   5     190.733  68.355  42.3230  0.00  0.00     0.000 O
BRANCH 78 83
ATOM     83   O  IDS C   5     193.569  69.440  44.3300  0.00  0.00     0.000 O
ATOM     84   S  IDS C   5     194.757  70.502  44.2630  0.00  0.00     0.000 S
ATOM     85   O  IDS C   5     194.941  70.802  42.8680  0.00  0.00     0.000 OA
ATOM     86   O  IDS C   5     194.296  71.635  45.0310  0.00  0.00     0.000 OA
ATOM     87   O  IDS C   5     195.897  69.852  44.8610  0.00  0.00     0.000 OA
ENDBRANCH 78 83
BRANCH 81 88
ATOM     88   C  IDS C   5     188.504  69.079  41.9170  0.00  0.00     0.000 C
ATOM     89   O  IDS C   5     187.691  69.917  41.6320  0.00  0.00     0.000 OA
ATOM     90   O  IDS C   5     188.239  67.904  41.8020  0.00  0.00     0.000 OA
ENDBRANCH 81 88
ENDBRANCH 76 80
ENDBRANCH 56 76
ENDBRANCH 55 59
ENDBRANCH 39 55
ENDBRANCH 38 42
ENDBRANCH 18 38
ENDBRANCH 17 21
ENDBRANCH 1 17
TORSDOF 18
ENDMDL
MODEL 72
REMARK VINA RESULT:      -1.8     60.457     66.192
ROOT
ATOM      1  C1  IDS C   1     201.957  65.952  44.9160  0.00  0.00     0.000 C
ATOM      2  C2  IDS C   1     203.352  66.299  44.3900  0.00  0.00     0.000 C
ATOM      3  C3  IDS C   1     204.361  66.350  45.5280  0.00  0.00     0.000 C
ATOM      4  C4  IDS C   1     203.947  67.382  46.5670  0.00  0.00     0.000 C
ATOM      5  C5  IDS C   1     202.435  67.346  46.7660  0.00  0.00     0.000 C
ATOM      6  O5  IDS C   1     201.912  66.091  46.3310  0.00  0.00     0.000 O
ATOM      7   O  IDS C   1     205.660  66.671  45.0100  0.00  0.00     0.000 O
ATOM      9  HD  IDS C   1     205.749  66.286  44.2390  0.00  0.00     0.000 HD
ENDROOT
BRANCH 2 9
ATOM      9   O  IDS C   1     203.819  65.278  43.4250  0.00  0.00     0.000 O
ATOM     10   S  IDS C   1     204.250  65.727  41.9570  0.00  0.00     0.000 S
ATOM     11   O  IDS C   1     204.662  64.519  41.2770  0.00  0.00     0.000 OA
ATOM     12   O  IDS C   1     203.070  66.329  41.3710  0.00  0.00     0.000 OA
ATOM     13   O  IDS C   1     205.334  66.669  42.1340  0.00  0.00     0.000 OA
ENDBRANCH 2 9
BRANCH 5 14
ATOM     14   C  IDS C   1     202.042  67.554  48.2190  0.00  0.00     0.000 C
ATOM     15   O  IDS C   1     201.281  66.779  48.7450  0.00  0.00     0.000 OA
ATOM     16   O  IDS C   1     202.497  68.500  48.8400  0.00  0.00     0.000 OA
ENDBRANCH 5 14
BRANCH 1 17
ATOM     17  O4  SGN C   2     201.142  65.088  44.3050  0.00  0.00     0.000 O
BRANCH 17 21
ATOM     18  C1  SGN C   2     198.965  61.525  43.9950  0.00  0.00     0.000 C
ATOM     19  C2  SGN C   2     199.525  61.870  45.3810  0.00  0.00     0.000 C
ATOM     20  C3  SGN C   2     199.908  63.354  45.4320  0.00  0.00     0.000 C
ATOM     21  C4  SGN C   2     200.849  63.694  44.2820  0.00  0.00     0.000 C
ATOM     22  C5  SGN C   2     200.182  63.311  42.9640  0.00  0.00     0.000 C
ATOM     23  O5  SGN C   2     199.860  61.901  42.9690  0.00  0.00     0.000 O
ATOM     24   O  SGN C   2     200.505  63.655  46.6820  0.00  0.00     0.000 O
ATOM     26  HD  SGN C   2     199.991  63.783  45.9970  0.00  0.00     0.000 HD
BRANCH 19 28
ATOM     26   N  SGN C   2     198.688  61.032  46.2510  0.00  0.00     0.000 N
ATOM     28  HD  SGN C   2     198.748  60.573  45.5180  0.00  0.00     0.000 HD
ATOM     28   O  SGN C   2     198.116  60.237  48.5450  0.00  0.00     0.000 OA
ATOM     29   S  SGN C   2     199.289  60.229  47.5070  0.00  0.00     0.000 S
ATOM     30   O  SGN C   2     199.517  58.898  47.0920  0.00  0.00     0.000 OA
ATOM     31   O  SGN C   2     200.365  60.995  48.0340  0.00  0.00     0.000 OA
ENDBRANCH 19 28
BRANCH 22 32
ATOM     32   C  SGN C   2     201.056  63.554  41.7580  0.00  0.00     0.000 C
ATOM     33   S  SGN C   2     200.907  63.388  39.1900  0.00  0.00     0.000 S
ATOM     34   O  SGN C   2     201.043  61.953  39.2070  0.00  0.00     0.000 OA
ATOM     35   O  SGN C   2     199.967  63.871  38.2010  0.00  0.00     0.000 OA
ATOM     36   O  SGN C   2     202.165  64.098  39.1840  0.00  0.00     0.000 OA
ATOM     37   O  SGN C   2     200.237  63.735  40.5970  0.00  0.00     0.000 O
ENDBRANCH 22 32
BRANCH 18 38
ATOM     38  O4  IDS C   3     197.758  61.753  43.4720  0.00  0.00     0.000 O
BRANCH 38 42
ATOM     39  C1  IDS C   3     194.440  62.701  43.0060  0.00  0.00     0.000 C
ATOM     40  C2  IDS C   3     194.879  61.954  44.2760  0.00  0.00     0.000 C
ATOM     41  C3  IDS C   3     195.648  60.680  43.9300  0.00  0.00     0.000 C
ATOM     42  C4  IDS C   3     196.726  60.951  42.8890  0.00  0.00     0.000 C
ATOM     43  C5  IDS C   3     196.114  61.680  41.6860  0.00  0.00     0.000 C
ATOM     44  O5  IDS C   3     195.535  62.906  42.1290  0.00  0.00     0.000 O
ATOM     45   O  IDS C   3     194.736  59.697  43.4350  0.00  0.00     0.000 O
ATOM     47  HD  IDS C   3     194.153  59.671  42.7960  0.00  0.00     0.000 HD
BRANCH 40 47
ATOM     47   O  IDS C   3     195.775  62.805  45.0950  0.00  0.00     0.000 O
ATOM     48   S  IDS C   3     195.634  62.804  46.6880  0.00  0.00     0.000 S
ATOM     49   O  IDS C   3     194.472  63.614  46.9850  0.00  0.00     0.000 OA
ATOM     50   O  IDS C   3     196.860  63.395  47.1790  0.00  0.00     0.000 OA
ATOM     51   O  IDS C   3     195.471  61.430  47.0820  0.00  0.00     0.000 OA
ENDBRANCH 40 47
BRANCH 43 52
ATOM     52   C  IDS C   3     197.123  61.960  40.5950  0.00  0.00     0.000 C
ATOM     53   O  IDS C   3     197.959  61.130  40.3200  0.00  0.00     0.000 OA
ATOM     54   O  IDS C   3     197.089  63.009  40.0050  0.00  0.00     0.000 OA
ENDBRANCH 43 52
BRANCH 39 55
ATOM     55  O4  SGN C   4     193.281  62.482  42.3850  0.00  0.00     0.000 O
BRANCH 55 59
ATOM     56  C1  SGN C   4     192.191  65.388  39.5780  0.00  0.00     0.000 C
ATOM     57  C2  SGN C   4     191.726  65.622  41.0260  0.00  0.00     0.000 C
ATOM     58  C3  SGN C   4     192.503  64.733  41.9940  0.00  0.00     0.000 C
ATOM     59  C4  SGN C   4     192.469  63.280  41.5340  0.00  0.00     0.000 C
ATOM     60  C5  SGN C   4     192.988  63.206  40.1000  0.00  0.00     0.000 C
ATOM     61  O5  SGN C   4     192.126  64.006  39.2660  0.00  0.00     0.000 O
ATOM     62   O  SGN C   4     191.955  64.859  43.2990  0.00  0.00     0.000 O
ATOM     64  HD  SGN C   4     191.787  65.619  42.9190  0.00  0.00     0.000 HD
BRANCH 57 66
ATOM     64   N  SGN C   4     190.683  66.562  40.5850  0.00  0.00     0.000 N
ATOM     66  HD  SGN C   4     190.048  67.012  40.9630  0.00  0.00     0.000 HD
ATOM     66   S  SGN C   4     190.545  67.998  41.2670  0.00  0.00     0.000 S
ATOM     67   O  SGN C   4     189.426  68.641  40.6800  0.00  0.00     0.000 OA
ATOM     68   O  SGN C   4     190.577  67.796  42.6740  0.00  0.00     0.000 OA
ATOM     69   O  SGN C   4     191.852  68.739  40.8380  0.00  0.00     0.000 OA
ENDBRANCH 57 66
BRANCH 60 70
ATOM     70   C  SGN C   4     193.012  61.805  39.5300  0.00  0.00     0.000 C
ATOM     71   O  SGN C   4     190.049  59.722  38.5360  0.00  0.00     0.000 OA
ATOM     72   O  SGN C   4     191.532  60.964  37.0840  0.00  0.00     0.000 OA
ATOM     73   O  SGN C   4     191.680  61.260  39.4710  0.00  0.00     0.000 O
ATOM     74   S  SGN C   4     191.392  60.204  38.3060  0.00  0.00     0.000 S
ATOM     75   O  SGN C   4     192.408  59.184  38.4700  0.00  0.00     0.000 OA
ENDBRANCH 60 70
BRANCH 56 76
ATOM     76  O4  IDS C   5     193.097  65.948  38.7560  0.00  0.00     0.000 O
BRANCH 76 80
ATOM     77  C1  IDS C   5     197.116  66.012  38.0430  0.00  0.00     0.000 C
ATOM     78  C2  IDS C   5     196.695  66.657  39.3640  0.00  0.00     0.000 C
ATOM     79  C3  IDS C   5     195.298  66.203  39.7360  0.00  0.00     0.000 C
ATOM     80  C4  IDS C   5     194.299  66.733  38.7110  0.00  0.00     0.000 C
ATOM     81  C5  IDS C   5     194.926  66.672  37.3110  0.00  0.00     0.000 C
ATOM     82  O5  IDS C   5     195.963  65.686  37.2670  0.00  0.00     0.000 O
BRANCH 78 83
ATOM     83   O  IDS C   5     197.620  66.269  40.4540  0.00  0.00     0.000 O
ATOM     84   S  IDS C   5     198.373  67.397  41.2940  0.00  0.00     0.000 S
ATOM     85   O  IDS C   5     198.938  68.299  40.3270  0.00  0.00     0.000 OA
ATOM     86   O  IDS C   5     197.350  68.007  42.1110  0.00  0.00     0.000 OA
ATOM     87   O  IDS C   5     199.368  66.703  42.0760  0.00  0.00     0.000 OA
ENDBRANCH 78 83
BRANCH 81 88
ATOM     88   C  IDS C   5     193.938  66.345  36.2070  0.00  0.00     0.000 C
ATOM     89   O  IDS C   5     193.199  67.198  35.7930  0.00  0.00     0.000 OA
ATOM     90   O  IDS C   5     193.900  65.227  35.7480  0.00  0.00     0.000 OA
ENDBRANCH 81 88
ENDBRANCH 76 80
ENDBRANCH 56 76
ENDBRANCH 55 59
ENDBRANCH 39 55
ENDBRANCH 38 42
ENDBRANCH 18 38
ENDBRANCH 17 21
ENDBRANCH 1 17
TORSDOF 18
ENDMDL
MODEL 73
REMARK VINA RESULT:      -1.7     58.241     64.742
ROOT
ATOM      1  C1  IDS C   1     201.957  65.952  44.9160  0.00  0.00     0.000 C
ATOM      2  C2  IDS C   1     203.123  66.441  44.0520  0.00  0.00     0.000 C
ATOM      3  C3  IDS C   1     204.329  66.781  44.9150  0.00  0.00     0.000 C
ATOM      4  C4  IDS C   1     203.975  67.854  45.9340  0.00  0.00     0.000 C
ATOM      5  C5  IDS C   1     202.572  67.614  46.4820  0.00  0.00     0.000 C
ATOM      6  O5  IDS C   1     202.195  66.251  46.2860  0.00  0.00     0.000 O
ATOM      7   O  IDS C   1     205.408  67.231  44.0840  0.00  0.00     0.000 O
ATOM      9  HD  IDS C   1     205.394  66.774  43.3480  0.00  0.00     0.000 HD
ENDROOT
BRANCH 2 9
ATOM      9   O  IDS C   1     203.541  65.395  43.0920  0.00  0.00     0.000 O
ATOM     10   S  IDS C   1     203.580  65.732  41.5340  0.00  0.00     0.000 S
ATOM     11   O  IDS C   1     204.035  64.526  40.8790  0.00  0.00     0.000 OA
ATOM     12   O  IDS C   1     202.221  66.088  41.1790  0.00  0.00     0.000 OA
ATOM     13   O  IDS C   1     204.507  66.832  41.3910  0.00  0.00     0.000 OA
ENDBRANCH 2 9
BRANCH 5 14
ATOM     14   C  IDS C   1     202.473  67.932  47.9650  0.00  0.00     0.000 C
ATOM     15   O  IDS C   1     201.991  67.119  48.7150  0.00  0.00     0.000 OA
ATOM     16   O  IDS C   1     202.879  69.003  48.3820  0.00  0.00     0.000 OA
ENDBRANCH 5 14
BRANCH 1 17
ATOM     17  O4  SGN C   2     201.193  64.907  44.5850  0.00  0.00     0.000 O
BRANCH 17 21
ATOM     18  C1  SGN C   2     199.693  61.026  45.0430  0.00  0.00     0.000 C
ATOM     19  C2  SGN C   2     200.476  61.604  46.2280  0.00  0.00     0.000 C
ATOM     20  C3  SGN C   2     200.583  63.127  46.0870  0.00  0.00     0.000 C
ATOM     21  C4  SGN C   2     201.163  63.490  44.7250  0.00  0.00     0.000 C
ATOM     22  C5  SGN C   2     200.298  62.865  43.6340  0.00  0.00     0.000 C
ATOM     23  O5  SGN C   2     200.250  61.430  43.8100  0.00  0.00     0.000 O
ATOM     24   O  SGN C   2     201.380  63.654  47.1350  0.00  0.00     0.000 O
ATOM     26  HD  SGN C   2     200.711  63.622  46.5860  0.00  0.00     0.000 HD
BRANCH 19 28
ATOM     26   N  SGN C   2     200.032  60.732  47.3240  0.00  0.00     0.000 N
ATOM     28  HD  SGN C   2     200.025  60.212  46.6320  0.00  0.00     0.000 HD
ATOM     28   O  SGN C   2     200.138  60.112  49.7380  0.00  0.00     0.000 OA
ATOM     29   S  SGN C   2     201.038  60.199  48.4600  0.00  0.00     0.000 S
ATOM     30   O  SGN C   2     201.435  58.893  48.0970  0.00  0.00     0.000 OA
ATOM     31   O  SGN C   2     202.025  61.201  48.6670  0.00  0.00     0.000 OA
ENDBRANCH 19 28
BRANCH 22 32
ATOM     32   C  SGN C   2     200.820  63.115  42.2400  0.00  0.00     0.000 C
ATOM     33   S  SGN C   2     200.135  62.646  39.8000  0.00  0.00     0.000 S
ATOM     34   O  SGN C   2     200.537  61.264  39.8810  0.00  0.00     0.000 OA
ATOM     35   O  SGN C   2     198.924  62.855  39.0350  0.00  0.00     0.000 OA
ATOM     36   O  SGN C   2     201.203  63.551  39.4440  0.00  0.00     0.000 OA
ATOM     37   O  SGN C   2     199.743  63.030  41.3000  0.00  0.00     0.000 O
ENDBRANCH 22 32
BRANCH 18 38
ATOM     38  O4  IDS C   3     198.378  60.997  44.8110  0.00  0.00     0.000 O
BRANCH 38 42
ATOM     39  C1  IDS C   3     194.951  61.133  45.4100  0.00  0.00     0.000 C
ATOM     40  C2  IDS C   3     195.904  60.470  46.4160  0.00  0.00     0.000 C
ATOM     41  C3  IDS C   3     196.793  59.431  45.7330  0.00  0.00     0.000 C
ATOM     42  C4  IDS C   3     197.420  59.992  44.4630  0.00  0.00     0.000 C
ATOM     43  C5  IDS C   3     196.331  60.595  43.5680  0.00  0.00     0.000 C
ATOM     44  O5  IDS C   3     195.657  61.628  44.2850  0.00  0.00     0.000 O
ATOM     45   O  IDS C   3     196.014  58.276  45.4160  0.00  0.00     0.000 O
ATOM     47  HD  IDS C   3     195.285  58.133  44.9700  0.00  0.00     0.000 HD
BRANCH 40 47
ATOM     47   O  IDS C   3     196.795  61.481  47.0330  0.00  0.00     0.000 O
ATOM     48   S  IDS C   3     196.670  61.805  48.5940  0.00  0.00     0.000 S
ATOM     49   O  IDS C   3     195.500  62.645  48.7330  0.00  0.00     0.000 OA
ATOM     50   O  IDS C   3     197.893  62.498  48.9380  0.00  0.00     0.000 OA
ATOM     51   O  IDS C   3     196.530  60.539  49.2620  0.00  0.00     0.000 OA
ENDBRANCH 40 47
BRANCH 43 52
ATOM     52   C  IDS C   3     196.878  61.148  42.2720  0.00  0.00     0.000 C
ATOM     53   O  IDS C   3     197.602  60.467  41.5830  0.00  0.00     0.000 OA
ATOM     54   O  IDS C   3     196.588  62.267  41.9310  0.00  0.00     0.000 OA
ENDBRANCH 43 52
BRANCH 39 55
ATOM     55  O4  SGN C   4     193.736  60.664  45.1240  0.00  0.00     0.000 O
BRANCH 55 59
ATOM     56  C1  SGN C   4     190.712  63.506  44.5910  0.00  0.00     0.000 C
ATOM     57  C2  SGN C   4     191.045  63.122  46.0420  0.00  0.00     0.000 C
ATOM     58  C3  SGN C   4     192.391  62.405  46.1170  0.00  0.00     0.000 C
ATOM     59  C4  SGN C   4     192.444  61.255  45.1180  0.00  0.00     0.000 C
ATOM     60  C5  SGN C   4     192.125  61.798  43.7270  0.00  0.00     0.000 C
ATOM     61  O5  SGN C   4     190.800  62.364  43.7540  0.00  0.00     0.000 O
ATOM     62   O  SGN C   4     192.605  61.931  47.4400  0.00  0.00     0.000 O
ATOM     64  HD  SGN C   4     192.098  62.626  47.5380  0.00  0.00     0.000 HD
BRANCH 57 66
ATOM     64   N  SGN C   4     189.749  63.627  46.5220  0.00  0.00     0.000 N
ATOM     66  HD  SGN C   4     189.329  63.653  47.2790  0.00  0.00     0.000 HD
ATOM     66   S  SGN C   4     189.677  64.633  47.7590  0.00  0.00     0.000 S
ATOM     67   O  SGN C   4     188.307  64.888  48.0200  0.00  0.00     0.000 OA
ATOM     68   O  SGN C   4     190.494  64.087  48.7870  0.00  0.00     0.000 OA
ATOM     69   O  SGN C   4     190.354  65.933  47.2190  0.00  0.00     0.000 OA
ENDBRANCH 57 66
BRANCH 60 70
ATOM     70   C  SGN C   4     192.156  60.746  42.6390  0.00  0.00     0.000 C
ATOM     71   O  SGN C   4     189.553  58.123  41.9640  0.00  0.00     0.000 OA
ATOM     72   O  SGN C   4     189.897  60.200  40.7730  0.00  0.00     0.000 OA
ATOM     73   O  SGN C   4     191.090  59.795  42.8270  0.00  0.00     0.000 O
ATOM     74   S  SGN C   4     190.503  59.111  41.5060  0.00  0.00     0.000 S
ATOM     75   O  SGN C   4     191.656  58.539  40.8410  0.00  0.00     0.000 OA
ENDBRANCH 60 70
BRANCH 56 76
ATOM     76  O4  IDS C   5     190.894  64.592  43.8170  0.00  0.00     0.000 O
BRANCH 76 80
ATOM     77  C1  IDS C   5     194.149  64.741  41.3600  0.00  0.00     0.000 C
ATOM     78  C2  IDS C   5     194.316  65.493  42.6800  0.00  0.00     0.000 C
ATOM     79  C3  IDS C   5     193.272  65.024  43.6750  0.00  0.00     0.000 C
ATOM     80  C4  IDS C   5     191.883  65.414  43.1800  0.00  0.00     0.000 C
ATOM     81  C5  IDS C   5     191.820  65.244  41.6550  0.00  0.00     0.000 C
ATOM     82  O5  IDS C   5     192.800  64.299  41.2140  0.00  0.00     0.000 O
BRANCH 78 83
ATOM     83   O  IDS C   5     195.658  65.246  43.2580  0.00  0.00     0.000 O
ATOM     84   S  IDS C   5     196.684  66.456  43.4240  0.00  0.00     0.000 S
ATOM     85   O  IDS C   5     196.697  67.141  42.1590  0.00  0.00     0.000 OA
ATOM     86   O  IDS C   5     196.151  67.260  44.4990  0.00  0.00     0.000 OA
ATOM     87   O  IDS C   5     197.951  65.851  43.7570  0.00  0.00     0.000 OA
ENDBRANCH 78 83
BRANCH 81 88
ATOM     88   C  IDS C   5     190.470  64.776  41.1430  0.00  0.00     0.000 C
ATOM     89   O  IDS C   5     190.333  63.644  40.7640  0.00  0.00     0.000 OA
ATOM     90   O  IDS C   5     189.538  65.547  41.1210  0.00  0.00     0.000 OA
ENDBRANCH 81 88
ENDBRANCH 76 80
ENDBRANCH 56 76
ENDBRANCH 55 59
ENDBRANCH 39 55
ENDBRANCH 38 42
ENDBRANCH 18 38
ENDBRANCH 17 21
ENDBRANCH 1 17
TORSDOF 18
ENDMDL
MODEL 74
REMARK VINA RESULT:      -1.7    144.577    152.091
ROOT
ATOM      1  C1  IDS C   1      88.995  35.171 187.0420  0.00  0.00     0.000 C
ATOM      2  C2  IDS C   1      89.882  34.780 185.8560  0.00  0.00     0.000 C
ATOM      3  C3  IDS C   1      89.058  34.122 184.7590  0.00  0.00     0.000 C
ATOM      4  C4  IDS C   1      88.353  32.881 185.2880  0.00  0.00     0.000 C
ATOM      5  C5  IDS C   1      87.846  33.132 186.7050  0.00  0.00     0.000 C
ATOM      6  O5  IDS C   1      87.727  34.534 186.9440  0.00  0.00     0.000 O
ATOM      7   O  IDS C   1      89.909  33.770 183.6590  0.00  0.00     0.000 O
ATOM      9  HD  IDS C   1      90.512  34.386 183.5730  0.00  0.00     0.000 HD
ENDROOT
BRANCH 2 9
ATOM      9   O  IDS C   1      90.533  35.974 185.2700  0.00  0.00     0.000 O
ATOM     10   S  IDS C   1      92.120  36.002 185.1120  0.00  0.00     0.000 S
ATOM     11   O  IDS C   1      92.435  37.276 184.5050  0.00  0.00     0.000 OA
ATOM     12   O  IDS C   1      92.648  35.870 186.4540  0.00  0.00     0.000 OA
ATOM     13   O  IDS C   1      92.452  34.879 184.2630  0.00  0.00     0.000 OA
ENDBRANCH 2 9
BRANCH 5 14
ATOM     14   C  IDS C   1      86.494  32.485 186.9530  0.00  0.00     0.000 C
ATOM     15   O  IDS C   1      85.738  32.977 187.7550  0.00  0.00     0.000 OA
ATOM     16   O  IDS C   1      86.184  31.476 186.3430  0.00  0.00     0.000 OA
ENDBRANCH 5 14
BRANCH 1 17
ATOM     17  O4  SGN C   2      89.107  36.339 187.6810  0.00  0.00     0.000 O
BRANCH 17 21
ATOM     18  C1  SGN C   2      87.967  40.234 188.7070  0.00  0.00     0.000 C
ATOM     19  C2  SGN C   2      86.900  39.361 188.0340  0.00  0.00     0.000 C
ATOM     20  C3  SGN C   2      87.312  37.886 188.1110  0.00  0.00     0.000 C
ATOM     21  C4  SGN C   2      88.714  37.702 187.5410  0.00  0.00     0.000 C
ATOM     22  C5  SGN C   2      89.680  38.614 188.2910  0.00  0.00     0.000 C
ATOM     23  O5  SGN C   2      89.249  39.989 188.1680  0.00  0.00     0.000 O
ATOM     24   O  SGN C   2      86.372  37.085 187.4150  0.00  0.00     0.000 O
ATOM     26  HD  SGN C   2      86.910  37.298 188.0590  0.00  0.00     0.000 HD
BRANCH 19 28
ATOM     26   N  SGN C   2      85.667  40.068 188.4070  0.00  0.00     0.000 N
ATOM     28  HD  SGN C   2      86.255  40.700 188.3430  0.00  0.00     0.000 HD
ATOM     28   O  SGN C   2      83.181  40.235 188.2870  0.00  0.00     0.000 OA
ATOM     29   S  SGN C   2      84.452  40.278 187.3740  0.00  0.00     0.000 S
ATOM     30   O  SGN C   2      84.575  41.577 186.8320  0.00  0.00     0.000 OA
ATOM     31   O  SGN C   2      84.425  39.153 186.5050  0.00  0.00     0.000 OA
ENDBRANCH 19 28
BRANCH 22 32
ATOM     32   C  SGN C   2      91.093  38.552 187.7640  0.00  0.00     0.000 C
ATOM     33   S  SGN C   2      92.947  40.167 186.9940  0.00  0.00     0.000 S
ATOM     34   O  SGN C   2      92.308  40.404 185.7240  0.00  0.00     0.000 OA
ATOM     35   O  SGN C   2      93.557  41.349 187.5670  0.00  0.00     0.000 OA
ATOM     36   O  SGN C   2      93.809  39.009 187.0120  0.00  0.00     0.000 OA
ATOM     37   O  SGN C   2      91.743  39.810 187.9800  0.00  0.00     0.000 O
ENDBRANCH 22 32
BRANCH 18 38
ATOM     38  O4  IDS C   3      88.198  40.469 190.0010  0.00  0.00     0.000 O
BRANCH 38 42
ATOM     39  C1  IDS C   3      88.054  40.567 193.4790  0.00  0.00     0.000 C
ATOM     40  C2  IDS C   3      86.801  40.825 192.6270  0.00  0.00     0.000 C
ATOM     41  C3  IDS C   3      87.061  41.901 191.5730  0.00  0.00     0.000 C
ATOM     42  C4  IDS C   3      88.356  41.632 190.8190  0.00  0.00     0.000 C
ATOM     43  C5  IDS C   3      89.502  41.418 191.8160  0.00  0.00     0.000 C
ATOM     44  O5  IDS C   3      89.185  40.314 192.6620  0.00  0.00     0.000 O
ATOM     45   O  IDS C   3      87.128  43.179 192.2080  0.00  0.00     0.000 O
ATOM     47  HD  IDS C   3      87.596  43.518 192.8530  0.00  0.00     0.000 HD
BRANCH 40 47
ATOM     47   O  IDS C   3      86.394  39.591 191.9130  0.00  0.00     0.000 O
ATOM     48   S  IDS C   3      85.924  38.309 192.7440  0.00  0.00     0.000 S
ATOM     49   O  IDS C   3      87.134  37.701 193.2560  0.00  0.00     0.000 OA
ATOM     50   O  IDS C   3      85.243  37.464 191.7880  0.00  0.00     0.000 OA
ATOM     51   O  IDS C   3      85.060  38.795 193.7870  0.00  0.00     0.000 OA
ENDBRANCH 40 47
BRANCH 43 52
ATOM     52   C  IDS C   3      90.831  41.173 191.1370  0.00  0.00     0.000 C
ATOM     53   O  IDS C   3      91.402  40.118 191.2940  0.00  0.00     0.000 OA
ATOM     54   O  IDS C   3      91.314  42.031 190.4430  0.00  0.00     0.000 OA
ENDBRANCH 43 52
BRANCH 39 55
ATOM     55  O4  SGN C   4      88.333  41.230 194.6010  0.00  0.00     0.000 O
BRANCH 55 59
ATOM     56  C1  SGN C   4      89.873  38.881 197.7030  0.00  0.00     0.000 C
ATOM     57  C2  SGN C   4      88.344  39.040 197.6550  0.00  0.00     0.000 C
ATOM     58  C3  SGN C   4      87.896  39.565 196.2930  0.00  0.00     0.000 C
ATOM     59  C4  SGN C   4      88.685  40.813 195.9130  0.00  0.00     0.000 C
ATOM     60  C5  SGN C   4      90.176  40.489 195.9750  0.00  0.00     0.000 C
ATOM     61  O5  SGN C   4      90.499  40.097 197.3230  0.00  0.00     0.000 O
ATOM     62   O  SGN C   4      86.503  39.843 196.3250  0.00  0.00     0.000 O
ATOM     64  HD  SGN C   4      86.611  39.211 196.9070  0.00  0.00     0.000 HD
BRANCH 57 66
ATOM     64   N  SGN C   4      88.213  38.649 199.0670  0.00  0.00     0.000 N
ATOM     66  HD  SGN C   4      87.568  38.584 199.6410  0.00  0.00     0.000 HD
ATOM     66   S  SGN C   4      87.177  37.516 199.5030  0.00  0.00     0.000 S
ATOM     67   O  SGN C   4      87.236  37.407 200.9160  0.00  0.00     0.000 OA
ATOM     68   O  SGN C   4      85.938  37.822 198.8770  0.00  0.00     0.000 OA
ATOM     69   O  SGN C   4      87.756  36.216 198.8590  0.00  0.00     0.000 OA
ENDBRANCH 57 66
BRANCH 60 70
ATOM     70   C  SGN C   4      91.070  41.654 195.6060  0.00  0.00     0.000 C
ATOM     71   O  SGN C   4      91.879  44.638 197.7380  0.00  0.00     0.000 OA
ATOM     72   O  SGN C   4      93.262  42.696 197.3360  0.00  0.00     0.000 OA
ATOM     73   O  SGN C   4      90.970  42.699 196.5930  0.00  0.00     0.000 O
ATOM     74   S  SGN C   4      92.270  43.605 196.8080  0.00  0.00     0.000 S
ATOM     75   O  SGN C   4      92.593  44.108 195.4880  0.00  0.00     0.000 OA
ENDBRANCH 60 70
BRANCH 56 76
ATOM     76  O4  IDS C   5      90.745  37.884 197.4650  0.00  0.00     0.000 O
BRANCH 76 80
ATOM     77  C1  IDS C   5      92.387  37.554 193.7430  0.00  0.00     0.000 C
ATOM     78  C2  IDS C   5      91.202  36.623 193.9980  0.00  0.00     0.000 C
ATOM     79  C3  IDS C   5      90.409  37.116 195.1930  0.00  0.00     0.000 C
ATOM     80  C4  IDS C   5      91.264  37.008 196.4520  0.00  0.00     0.000 C
ATOM     81  C5  IDS C   5      92.715  37.379 196.1150  0.00  0.00     0.000 C
ATOM     82  O5  IDS C   5      92.764  38.212 194.9530  0.00  0.00     0.000 O
BRANCH 78 83
ATOM     83   O  IDS C   5      90.302  36.586 192.8220  0.00  0.00     0.000 O
ATOM     84   S  IDS C   5      89.883  35.184 192.1880  0.00  0.00     0.000 S
ATOM     85   O  IDS C   5      91.105  34.441 192.0270  0.00  0.00     0.000 OA
ATOM     86   O  IDS C   5      88.980  34.590 193.1450  0.00  0.00     0.000 OA
ATOM     87   O  IDS C   5      89.238  35.498 190.9360  0.00  0.00     0.000 OA
ENDBRANCH 78 83
BRANCH 81 88
ATOM     88   C  IDS C   5      93.439  38.109 197.2320  0.00  0.00     0.000 C
ATOM     89   O  IDS C   5      93.664  39.285 197.1310  0.00  0.00     0.000 OA
ATOM     90   O  IDS C   5      93.785  37.501 198.2190  0.00  0.00     0.000 OA
ENDBRANCH 81 88
ENDBRANCH 76 80
ENDBRANCH 56 76
ENDBRANCH 55 59
ENDBRANCH 39 55
ENDBRANCH 38 42
ENDBRANCH 18 38
ENDBRANCH 17 21
ENDBRANCH 1 17
TORSDOF 18
ENDMDL
MODEL 75
REMARK VINA RESULT:      -1.7    194.674    201.890
ROOT
ATOM      1  C1  IDS C   1      56.948 188.237  88.8360  0.00  0.00     0.000 C
ATOM      2  C2  IDS C   1      56.004 187.113  88.4000  0.00  0.00     0.000 C
ATOM      3  C3  IDS C   1      56.481 185.769  88.9320  0.00  0.00     0.000 C
ATOM      4  C4  IDS C   1      57.887 185.464  88.4360  0.00  0.00     0.000 C
ATOM      5  C5  IDS C   1      58.731 186.735  88.4400  0.00  0.00     0.000 C
ATOM      6  O5  IDS C   1      58.166 187.696  89.3310  0.00  0.00     0.000 O
ATOM      7   O  IDS C   1      55.579 184.734  88.5150  0.00  0.00     0.000 O
ATOM      9  HD  IDS C   1      54.774 185.054  88.5270  0.00  0.00     0.000 HD
ENDROOT
BRANCH 2 9
ATOM      9   O  IDS C   1      54.638 187.340  88.9230  0.00  0.00     0.000 O
ATOM     10   S  IDS C   1      53.430 187.540  87.9010  0.00  0.00     0.000 S
ATOM     11   O  IDS C   1      52.248 187.723  88.7140  0.00  0.00     0.000 OA
ATOM     12   O  IDS C   1      53.768 188.716  87.1240  0.00  0.00     0.000 OA
ATOM     13   O  IDS C   1      53.383 186.333  87.1050  0.00  0.00     0.000 OA
ENDBRANCH 2 9
BRANCH 5 14
ATOM     14   C  IDS C   1      60.166 186.469  88.8650  0.00  0.00     0.000 C
ATOM     15   O  IDS C   1      60.895 187.399  89.1060  0.00  0.00     0.000 OA
ATOM     16   O  IDS C   1      60.567 185.321  88.9560  0.00  0.00     0.000 OA
ENDBRANCH 5 14
BRANCH 1 17
ATOM     17  O4  SGN C   2      56.515 189.421  89.2770  0.00  0.00     0.000 O
BRANCH 17 21
ATOM     18  C1  SGN C   2      55.445 191.953  92.4350  0.00  0.00     0.000 C
ATOM     19  C2  SGN C   2      55.814 190.511  92.8050  0.00  0.00     0.000 C
ATOM     20  C3  SGN C   2      56.572 189.854  91.6460  0.00  0.00     0.000 C
ATOM     21  C4  SGN C   2      55.768 189.977  90.3560  0.00  0.00     0.000 C
ATOM     22  C5  SGN C   2      55.469 191.450  90.0940  0.00  0.00     0.000 C
ATOM     23  O5  SGN C   2      54.741 192.007  91.2120  0.00  0.00     0.000 O
ATOM     24   O  SGN C   2      56.837 188.495  91.9510  0.00  0.00     0.000 O
ATOM     26  HD  SGN C   2      57.009 189.289  91.6500  0.00  0.00     0.000 HD
BRANCH 19 28
ATOM     26   N  SGN C   2      56.119 190.646  94.2360  0.00  0.00     0.000 N
ATOM     28  HD  SGN C   2      55.513 191.249  94.0980  0.00  0.00     0.000 HD
ATOM     28   O  SGN C   2      56.790 189.578  96.3880  0.00  0.00     0.000 OA
ATOM     29   S  SGN C   2      55.643 189.561  95.3230  0.00  0.00     0.000 S
ATOM     30   O  SGN C   2      54.462 190.051  95.9230  0.00  0.00     0.000 OA
ATOM     31   O  SGN C   2      55.633 188.289  94.6870  0.00  0.00     0.000 OA
ENDBRANCH 19 28
BRANCH 22 32
ATOM     32   C  SGN C   2      54.623 191.679  88.8650  0.00  0.00     0.000 C
ATOM     33   S  SGN C   2      52.509 192.986  88.1840  0.00  0.00     0.000 S
ATOM     34   O  SGN C   2      51.632 192.029  88.8110  0.00  0.00     0.000 OA
ATOM     35   O  SGN C   2      52.078 194.359  88.3410  0.00  0.00     0.000 OA
ATOM     36   O  SGN C   2      52.874 192.650  86.8280  0.00  0.00     0.000 OA
ATOM     37   O  SGN C   2      53.865 192.884  89.0210  0.00  0.00     0.000 O
ENDBRANCH 22 32
BRANCH 18 38
ATOM     38  O4  IDS C   3      56.193 193.059  92.4280  0.00  0.00     0.000 O
BRANCH 38 42
ATOM     39  C1  IDS C   3      58.752 195.364  92.9390  0.00  0.00     0.000 C
ATOM     40  C2  IDS C   3      58.250 194.472  94.0850  0.00  0.00     0.000 C
ATOM     41  C3  IDS C   3      56.732 194.564  94.2330  0.00  0.00     0.000 C
ATOM     42  C4  IDS C   3      56.036 194.405  92.8880  0.00  0.00     0.000 C
ATOM     43  C5  IDS C   3      56.644 195.379  91.8710  0.00  0.00     0.000 C
ATOM     44  O5  IDS C   3      58.038 195.109  91.7410  0.00  0.00     0.000 O
ATOM     45   O  IDS C   3      56.388 195.827  94.8070  0.00  0.00     0.000 O
ATOM     47  HD  IDS C   3      56.547 196.654  94.6060  0.00  0.00     0.000 HD
BRANCH 40 47
ATOM     47   O  IDS C   3      58.586 193.052  93.8240  0.00  0.00     0.000 O
ATOM     48   S  IDS C   3      59.346 192.196  94.9410  0.00  0.00     0.000 S
ATOM     49   O  IDS C   3      60.731 192.610  94.8840  0.00  0.00     0.000 OA
ATOM     50   O  IDS C   3      59.165 190.815  94.5500  0.00  0.00     0.000 OA
ATOM     51   O  IDS C   3      58.719 192.516  96.1950  0.00  0.00     0.000 OA
ENDBRANCH 40 47
BRANCH 43 52
ATOM     52   C  IDS C   3      55.982 195.298  90.5130  0.00  0.00     0.000 C
ATOM     53   O  IDS C   3      56.629 194.969  89.5460  0.00  0.00     0.000 OA
ATOM     54   O  IDS C   3      54.811 195.561  90.4030  0.00  0.00     0.000 OA
ENDBRANCH 43 52
BRANCH 39 55
ATOM     55  O4  SGN C   4      59.107 196.640  93.0970  0.00  0.00     0.000 O
BRANCH 55 59
ATOM     56  C1  SGN C   4      62.295 197.819  90.6580  0.00  0.00     0.000 C
ATOM     57  C2  SGN C   4      62.637 197.478  92.1180  0.00  0.00     0.000 C
ATOM     58  C3  SGN C   4      61.498 196.701  92.7730  0.00  0.00     0.000 C
ATOM     59  C4  SGN C   4      60.170 197.424  92.5750  0.00  0.00     0.000 C
ATOM     60  C5  SGN C   4      59.959 197.660  91.0810  0.00  0.00     0.000 C
ATOM     61  O5  SGN C   4      61.041 198.478  90.5940  0.00  0.00     0.000 O
ATOM     62   O  SGN C   4      61.773 196.529  94.1570  0.00  0.00     0.000 O
ATOM     64  HD  SGN C   4      62.554 196.582  93.7860  0.00  0.00     0.000 HD
BRANCH 57 66
ATOM     64   N  SGN C   4      63.953 198.027  91.7530  0.00  0.00     0.000 N
ATOM     66  HD  SGN C   4      64.606 198.414  92.1690  0.00  0.00     0.000 HD
ATOM     66   S  SGN C   4      65.271 197.548  92.5140  0.00  0.00     0.000 S
ATOM     67   O  SGN C   4      66.358 198.291  91.9890  0.00  0.00     0.000 OA
ATOM     68   O  SGN C   4      64.992 197.607  93.9070  0.00  0.00     0.000 OA
ATOM     69   O  SGN C   4      65.417 196.050  92.0960  0.00  0.00     0.000 OA
ENDBRANCH 57 66
BRANCH 60 70
ATOM     70   C  SGN C   4      58.661 198.367  90.7520  0.00  0.00     0.000 C
ATOM     71   O  SGN C   4      58.062 200.795  87.9510  0.00  0.00     0.000 OA
ATOM     72   O  SGN C   4      57.446 198.458  88.0330  0.00  0.00     0.000 OA
ATOM     73   O  SGN C   4      58.876 199.372  89.7430  0.00  0.00     0.000 O
ATOM     74   S  SGN C   4      57.643 199.684  88.7730  0.00  0.00     0.000 S
ATOM     75   O  SGN C   4      56.544 200.005  89.6620  0.00  0.00     0.000 OA
ENDBRANCH 60 70
BRANCH 56 76
ATOM     76  O4  IDS C   5      62.515 197.247  89.4600  0.00  0.00     0.000 O
BRANCH 76 80
ATOM     77  C1  IDS C   5      59.715 194.847  87.7100  0.00  0.00     0.000 C
ATOM     78  C2  IDS C   5      60.762 194.101  88.5390  0.00  0.00     0.000 C
ATOM     79  C3  IDS C   5      61.459 195.067  89.4760  0.00  0.00     0.000 C
ATOM     80  C4  IDS C   5      62.259 196.080  88.6630  0.00  0.00     0.000 C
ATOM     81  C5  IDS C   5      61.470 196.456  87.4000  0.00  0.00     0.000 C
ATOM     82  O5  IDS C   5      60.072 196.224  87.5940  0.00  0.00     0.000 O
BRANCH 78 83
ATOM     83   O  IDS C   5      60.126 193.037  89.3500  0.00  0.00     0.000 O
ATOM     84   S  IDS C   5      60.509 191.510  89.0950  0.00  0.00     0.000 S
ATOM     85   O  IDS C   5      60.415 191.311  87.6730  0.00  0.00     0.000 OA
ATOM     86   O  IDS C   5      61.854 191.367  89.6010  0.00  0.00     0.000 OA
ATOM     87   O  IDS C   5      59.548 190.736  89.8430  0.00  0.00     0.000 OA
ENDBRANCH 78 83
BRANCH 81 88
ATOM     88   C  IDS C   5      61.639 197.904  86.9760  0.00  0.00     0.000 C
ATOM     89   O  IDS C   5      62.662 198.259  86.4540  0.00  0.00     0.000 OA
ATOM     90   O  IDS C   5      60.741 198.692  87.1660  0.00  0.00     0.000 OA
ENDBRANCH 81 88
ENDBRANCH 76 80
ENDBRANCH 56 76
ENDBRANCH 55 59
ENDBRANCH 39 55
ENDBRANCH 38 42
ENDBRANCH 18 38
ENDBRANCH 17 21
ENDBRANCH 1 17
TORSDOF 18
ENDMDL
MODEL 76
REMARK VINA RESULT:      -1.7    167.013    172.908
ROOT
ATOM      1  C1  IDS C   1      66.138 127.097 152.1520  0.00  0.00     0.000 C
ATOM      2  C2  IDS C   1      66.740 125.700 151.9760  0.00  0.00     0.000 C
ATOM      3  C3  IDS C   1      68.041 125.570 152.7560  0.00  0.00     0.000 C
ATOM      4  C4  IDS C   1      69.050 126.613 152.2950  0.00  0.00     0.000 C
ATOM      5  C5  IDS C   1      68.345 127.938 152.0210  0.00  0.00     0.000 C
ATOM      6  O5  IDS C   1      67.098 127.983 152.7150  0.00  0.00     0.000 O
ATOM      7   O  IDS C   1      68.583 124.253 152.5790  0.00  0.00     0.000 O
ATOM      9  HD  IDS C   1      67.925 123.690 152.5460  0.00  0.00     0.000 HD
ENDROOT
BRANCH 2 9
ATOM      9   O  IDS C   1      65.814 124.660 152.4780  0.00  0.00     0.000 O
ATOM     10   S  IDS C   1      65.383 123.464 151.5150  0.00  0.00     0.000 S
ATOM     11   O  IDS C   1      64.500 122.625 152.2950  0.00  0.00     0.000 OA
ATOM     12   O  IDS C   1      64.720 124.089 150.3900  0.00  0.00     0.000 OA
ATOM     13   O  IDS C   1      66.611 122.794 151.1450  0.00  0.00     0.000 OA
ENDBRANCH 2 9
BRANCH 5 14
ATOM     14   C  IDS C   1      69.179 129.131 152.4540  0.00  0.00     0.000 C
ATOM     15   O  IDS C   1      70.339 129.196 152.1250  0.00  0.00     0.000 OA
ATOM     16   O  IDS C   1      68.673 130.011 153.1300  0.00  0.00     0.000 OA
ENDBRANCH 5 14
BRANCH 1 17
ATOM     17  O4  SGN C   2      64.835 127.307 152.3570  0.00  0.00     0.000 O
BRANCH 17 21
ATOM     18  C1  SGN C   2      61.447 128.245 154.6310  0.00  0.00     0.000 C
ATOM     19  C2  SGN C   2      62.806 128.622 155.2350  0.00  0.00     0.000 C
ATOM     20  C3  SGN C   2      63.881 128.614 154.1410  0.00  0.00     0.000 C
ATOM     21  C4  SGN C   2      63.877 127.275 153.4120  0.00  0.00     0.000 C
ATOM     22  C5  SGN C   2      62.480 127.015 152.8550  0.00  0.00     0.000 C
ATOM     23  O5  SGN C   2      61.516 127.019 153.9330  0.00  0.00     0.000 O
ATOM     24   O  SGN C   2      65.152 128.877 154.7120  0.00  0.00     0.000 O
ATOM     26  HD  SGN C   2      64.517 128.938 154.1260  0.00  0.00     0.000 HD
BRANCH 19 28
ATOM     26   N  SGN C   2      62.411 129.608 156.2510  0.00  0.00     0.000 N
ATOM     28  HD  SGN C   2      61.757 129.039 156.2500  0.00  0.00     0.000 HD
ATOM     28   O  SGN C   2      63.072 131.218 158.0370  0.00  0.00     0.000 OA
ATOM     29   S  SGN C   2      63.124 129.692 157.6890  0.00  0.00     0.000 S
ATOM     30   O  SGN C   2      62.313 128.991 158.6080  0.00  0.00     0.000 OA
ATOM     31   O  SGN C   2      64.484 129.312 157.5190  0.00  0.00     0.000 OA
ENDBRANCH 19 28
BRANCH 22 32
ATOM     32   C  SGN C   2      62.352 125.682 152.1610  0.00  0.00     0.000 C
ATOM     33   S  SGN C   2      60.784 123.636 152.1670  0.00  0.00     0.000 S
ATOM     34   O  SGN C   2      61.339 123.128 153.3970  0.00  0.00     0.000 OA
ATOM     35   O  SGN C   2      59.350 123.464 152.0630  0.00  0.00     0.000 OA
ATOM     36   O  SGN C   2      61.500 123.224 150.9830  0.00  0.00     0.000 OA
ATOM     37   O  SGN C   2      61.001 125.215 152.2600  0.00  0.00     0.000 O
ENDBRANCH 22 32
BRANCH 18 38
ATOM     38  O4  IDS C   3      60.588 128.976 153.9180  0.00  0.00     0.000 O
BRANCH 38 42
ATOM     39  C1  IDS C   3      59.186 131.134 151.5720  0.00  0.00     0.000 C
ATOM     40  C2  IDS C   3      60.489 131.497 152.3020  0.00  0.00     0.000 C
ATOM     41  C3  IDS C   3      60.327 131.372 153.8160  0.00  0.00     0.000 C
ATOM     42  C4  IDS C   3      59.678 130.047 154.1940  0.00  0.00     0.000 C
ATOM     43  C5  IDS C   3      58.386 129.855 153.3910  0.00  0.00     0.000 C
ATOM     44  O5  IDS C   3      58.694 129.875 151.9980  0.00  0.00     0.000 O
ATOM     45   O  IDS C   3      59.529 132.454 154.2980  0.00  0.00     0.000 O
ATOM     47  HD  IDS C   3      58.743 132.765 154.1120  0.00  0.00     0.000 HD
BRANCH 40 47
ATOM     47   O  IDS C   3      61.584 130.585 151.8940  0.00  0.00     0.000 O
ATOM     48   S  IDS C   3      62.698 131.090 150.8640  0.00  0.00     0.000 S
ATOM     49   O  IDS C   3      62.079 131.048 149.5570  0.00  0.00     0.000 OA
ATOM     50   O  IDS C   3      63.789 130.148 150.9900  0.00  0.00     0.000 OA
ATOM     51   O  IDS C   3      63.053 132.424 151.2710  0.00  0.00     0.000 OA
ENDBRANCH 40 47
BRANCH 43 52
ATOM     52   C  IDS C   3      57.668 128.568 153.7340  0.00  0.00     0.000 C
ATOM     53   O  IDS C   3      57.419 128.307 154.8890  0.00  0.00     0.000 OA
ATOM     54   O  IDS C   3      57.348 127.810 152.8550  0.00  0.00     0.000 OA
ENDBRANCH 43 52
BRANCH 39 55
ATOM     55  O4  SGN C   4      58.232 132.019 151.2810  0.00  0.00     0.000 O
BRANCH 55 59
ATOM     56  C1  SGN C   4      57.414 132.329 147.1890  0.00  0.00     0.000 C
ATOM     57  C2  SGN C   4      58.314 133.419 147.7950  0.00  0.00     0.000 C
ATOM     58  C3  SGN C   4      58.848 132.986 149.1570  0.00  0.00     0.000 C
ATOM     59  C4  SGN C   4      57.710 132.517 150.0570  0.00  0.00     0.000 C
ATOM     60  C5  SGN C   4      56.935 131.417 149.3350  0.00  0.00     0.000 C
ATOM     61  O5  SGN C   4      56.401 131.967 148.1140  0.00  0.00     0.000 O
ATOM     62   O  SGN C   4      59.551 134.065 149.7580  0.00  0.00     0.000 O
ATOM     64  HD  SGN C   4      59.634 134.199 148.9070  0.00  0.00     0.000 HD
BRANCH 57 66
ATOM     64   N  SGN C   4      58.042 134.329 146.6700  0.00  0.00     0.000 N
ATOM     66  HD  SGN C   4      58.249 135.143 146.4590  0.00  0.00     0.000 HD
ATOM     66   S  SGN C   4      59.241 135.042 145.8960  0.00  0.00     0.000 S
ATOM     67   O  SGN C   4      58.668 135.893 144.9170  0.00  0.00     0.000 OA
ATOM     68   O  SGN C   4      60.103 135.595 146.8830  0.00  0.00     0.000 OA
ATOM     69   O  SGN C   4      59.981 133.862 145.1880  0.00  0.00     0.000 OA
ENDBRANCH 57 66
BRANCH 60 70
ATOM     70   C  SGN C   4      55.778 130.860 150.1350  0.00  0.00     0.000 C
ATOM     71   O  SGN C   4      52.461 132.510 150.7550  0.00  0.00     0.000 OA
ATOM     72   O  SGN C   4      52.962 130.761 149.1630  0.00  0.00     0.000 OA
ATOM     73   O  SGN C   4      54.762 131.865 150.3220  0.00  0.00     0.000 O
ATOM     74   S  SGN C   4      53.257 131.343 150.4520  0.00  0.00     0.000 S
ATOM     75   O  SGN C   4      53.293 130.373 151.5290  0.00  0.00     0.000 OA
ENDBRANCH 60 70
BRANCH 56 76
ATOM     76  O4  IDS C   5      57.593 131.288 146.3540  0.00  0.00     0.000 O
BRANCH 76 80
ATOM     77  C1  IDS C   5      58.424 127.612 147.9190  0.00  0.00     0.000 C
ATOM     78  C2  IDS C   5      59.650 128.387 147.4350  0.00  0.00     0.000 C
ATOM     79  C3  IDS C   5      59.305 129.857 147.2940  0.00  0.00     0.000 C
ATOM     80  C4  IDS C   5      58.272 130.035 146.1850  0.00  0.00     0.000 C
ATOM     81  C5  IDS C   5      57.271 128.872 146.2320  0.00  0.00     0.000 C
ATOM     82  O5  IDS C   5      57.230 128.296 147.5410  0.00  0.00     0.000 O
BRANCH 78 83
ATOM     83   O  IDS C   5      60.766 128.258 148.4010  0.00  0.00     0.000 O
ATOM     84   S  IDS C   5      62.189 127.739 147.9030  0.00  0.00     0.000 S
ATOM     85   O  IDS C   5      61.930 126.553 147.1310  0.00  0.00     0.000 OA
ATOM     86   O  IDS C   5      62.733 128.821 147.1160  0.00  0.00     0.000 OA
ATOM     87   O  IDS C   5      62.953 127.483 149.1000  0.00  0.00     0.000 OA
ENDBRANCH 78 83
BRANCH 81 88
ATOM     88   C  IDS C   5      55.852 129.266 145.8610  0.00  0.00     0.000 C
ATOM     89   O  IDS C   5      55.574 129.491 144.7140  0.00  0.00     0.000 OA
ATOM     90   O  IDS C   5      55.009 129.349 146.7240  0.00  0.00     0.000 OA
ENDBRANCH 81 88
ENDBRANCH 76 80
ENDBRANCH 56 76
ENDBRANCH 55 59
ENDBRANCH 39 55
ENDBRANCH 38 42
ENDBRANCH 18 38
ENDBRANCH 17 21
ENDBRANCH 1 17
TORSDOF 18
ENDMDL
MODEL 77
REMARK VINA RESULT:      -1.7    144.695    153.126
ROOT
ATOM      1  C1  IDS C   1      89.950  37.175 187.2420  0.00  0.00     0.000 C
ATOM      2  C2  IDS C   1      91.082  37.088 186.2140  0.00  0.00     0.000 C
ATOM      3  C3  IDS C   1      90.608  36.394 184.9460  0.00  0.00     0.000 C
ATOM      4  C4  IDS C   1      90.103  34.992 185.2570  0.00  0.00     0.000 C
ATOM      5  C5  IDS C   1      89.329  34.994 186.5720  0.00  0.00     0.000 C
ATOM      6  O5  IDS C   1      88.880  36.315 186.8740  0.00  0.00     0.000 O
ATOM      7   O  IDS C   1      91.683  36.328 183.9980  0.00  0.00     0.000 O
ATOM      9  HD  IDS C   1      92.148  37.056 184.0630  0.00  0.00     0.000 HD
ENDROOT
BRANCH 2 9
ATOM      9   O  IDS C   1      91.554  38.439 185.8340  0.00  0.00     0.000 O
ATOM     10   S  IDS C   1      93.105  38.790 185.9560  0.00  0.00     0.000 S
ATOM     11   O  IDS C   1      93.239  40.156 185.5030  0.00  0.00     0.000 OA
ATOM     12   O  IDS C   1      93.433  38.625 187.3570  0.00  0.00     0.000 OA
ATOM     13   O  IDS C   1      93.792  37.846 185.1020  0.00  0.00     0.000 OA
ENDBRANCH 2 9
BRANCH 5 14
ATOM     14   C  IDS C   1      88.122  34.073 186.5280  0.00  0.00     0.000 C
ATOM     15   O  IDS C   1      88.259  32.931 186.1630  0.00  0.00     0.000 OA
ATOM     16   O  IDS C   1      87.026  34.495 186.8580  0.00  0.00     0.000 OA
ENDBRANCH 5 14
BRANCH 1 17
ATOM     17  O4  SGN C   2      89.707  38.272 187.9640  0.00  0.00     0.000 O
BRANCH 17 21
ATOM     18  C1  SGN C   2      87.653  41.770 189.0030  0.00  0.00     0.000 C
ATOM     19  C2  SGN C   2      86.909  40.779 188.0980  0.00  0.00     0.000 C
ATOM     20  C3  SGN C   2      87.591  39.407 188.1580  0.00  0.00     0.000 C
ATOM     21  C4  SGN C   2      89.076  39.544 187.8390  0.00  0.00     0.000 C
ATOM     22  C5  SGN C   2      89.702  40.547 188.8040  0.00  0.00     0.000 C
ATOM     23  O5  SGN C   2      89.029  41.822 188.6890  0.00  0.00     0.000 O
ATOM     24   O  SGN C   2      86.959  38.514 187.2570  0.00  0.00     0.000 O
ATOM     26  HD  SGN C   2      87.330  38.762 188.0000  0.00  0.00     0.000 HD
BRANCH 19 28
ATOM     26   N  SGN C   2      85.515  41.205 188.2830  0.00  0.00     0.000 N
ATOM     28  HD  SGN C   2      85.967  41.940 188.3600  0.00  0.00     0.000 HD
ATOM     28   O  SGN C   2      83.100  40.912 187.7320  0.00  0.00     0.000 OA
ATOM     29   S  SGN C   2      84.469  41.274 187.0640  0.00  0.00     0.000 S
ATOM     30   O  SGN C   2      84.416  42.616 186.6250  0.00  0.00     0.000 OA
ATOM     31   O  SGN C   2      84.811  40.246 186.1430  0.00  0.00     0.000 OA
ENDBRANCH 19 28
BRANCH 22 32
ATOM     32   C  SGN C   2      91.165  40.801 188.5360  0.00  0.00     0.000 C
ATOM     33   S  SGN C   2      92.779  42.800 188.3280  0.00  0.00     0.000 S
ATOM     34   O  SGN C   2      92.310  43.129 187.0050  0.00  0.00     0.000 OA
ATOM     35   O  SGN C   2      93.060  43.959 189.1500  0.00  0.00     0.000 OA
ATOM     36   O  SGN C   2      93.830  41.810 188.3510  0.00  0.00     0.000 OA
ATOM     37   O  SGN C   2      91.527  42.098 189.0260  0.00  0.00     0.000 O
ENDBRANCH 22 32
BRANCH 18 38
ATOM     38  O4  IDS C   3      87.617  41.920 190.3290  0.00  0.00     0.000 O
BRANCH 38 42
ATOM     39  C1  IDS C   3      86.486  42.805 193.5010  0.00  0.00     0.000 C
ATOM     40  C2  IDS C   3      86.265  43.732 192.2950  0.00  0.00     0.000 C
ATOM     41  C3  IDS C   3      87.575  43.997 191.5540  0.00  0.00     0.000 C
ATOM     42  C4  IDS C   3      88.331  42.701 191.2920  0.00  0.00     0.000 C
ATOM     43  C5  IDS C   3      88.480  41.913 192.5990  0.00  0.00     0.000 C
ATOM     44  O5  IDS C   3      87.183  41.630 193.1230  0.00  0.00     0.000 O
ATOM     45   O  IDS C   3      88.386  44.881 192.3300  0.00  0.00     0.000 O
ATOM     47  HD  IDS C   3      88.697  44.876 193.1380  0.00  0.00     0.000 HD
BRANCH 40 47
ATOM     47   O  IDS C   3      85.325  43.113 191.3290  0.00  0.00     0.000 O
ATOM     48   S  IDS C   3      83.823  43.652 191.2260  0.00  0.00     0.000 S
ATOM     49   O  IDS C   3      83.124  43.103 192.3680  0.00  0.00     0.000 OA
ATOM     50   O  IDS C   3      83.320  43.137 189.9710  0.00  0.00     0.000 OA
ATOM     51   O  IDS C   3      83.902  45.088 191.2570  0.00  0.00     0.000 OA
ENDBRANCH 40 47
BRANCH 43 52
ATOM     52   C  IDS C   3      89.248  40.623 192.4210  0.00  0.00     0.000 C
ATOM     53   O  IDS C   3      88.663  39.564 192.4400  0.00  0.00     0.000 OA
ATOM     54   O  IDS C   3      90.442  40.656 192.2610  0.00  0.00     0.000 OA
ENDBRANCH 43 52
BRANCH 39 55
ATOM     55  O4  SGN C   4      86.785  43.244 194.7240  0.00  0.00     0.000 O
BRANCH 55 59
ATOM     56  C1  SGN C   4      85.461  41.085 198.0550  0.00  0.00     0.000 C
ATOM     57  C2  SGN C   4      84.387  41.840 197.2530  0.00  0.00     0.000 C
ATOM     58  C3  SGN C   4      84.918  42.242 195.8800  0.00  0.00     0.000 C
ATOM     59  C4  SGN C   4      86.252  42.969 196.0120  0.00  0.00     0.000 C
ATOM     60  C5  SGN C   4      87.218  42.084 196.7980  0.00  0.00     0.000 C
ATOM     61  O5  SGN C   4      86.655  41.849 198.1040  0.00  0.00     0.000 O
ATOM     62   O  SGN C   4      83.963  43.062 195.2210  0.00  0.00     0.000 O
ATOM     64  HD  SGN C   4      83.492  42.560 195.7470  0.00  0.00     0.000 HD
BRANCH 57 66
ATOM     64   N  SGN C   4      83.363  40.838 197.5910  0.00  0.00     0.000 N
ATOM     66  HD  SGN C   4      82.889  40.639 198.2880  0.00  0.00     0.000 HD
ATOM     66   S  SGN C   4      81.952  41.289 198.1850  0.00  0.00     0.000 S
ATOM     67   O  SGN C   4      81.213  40.112 198.4640  0.00  0.00     0.000 OA
ATOM     68   O  SGN C   4      82.217  42.212 199.2330  0.00  0.00     0.000 OA
ATOM     69   O  SGN C   4      81.279  42.055 197.0020  0.00  0.00     0.000 OA
ENDBRANCH 57 66
BRANCH 60 70
ATOM     70   C  SGN C   4      88.589  42.696 196.9880  0.00  0.00     0.000 C
ATOM     71   O  SGN C   4      91.600  42.212 194.7960  0.00  0.00     0.000 OA
ATOM     72   O  SGN C   4      90.104  44.111 194.8470  0.00  0.00     0.000 OA
ATOM     73   O  SGN C   4      89.533  42.115 196.0690  0.00  0.00     0.000 O
ATOM     74   S  SGN C   4      90.740  43.052 195.5970  0.00  0.00     0.000 S
ATOM     75   O  SGN C   4      91.358  43.506 196.8270  0.00  0.00     0.000 OA
ENDBRANCH 60 70
BRANCH 56 76
ATOM     76  O4  IDS C   5      85.796  39.794 198.2370  0.00  0.00     0.000 O
BRANCH 76 80
ATOM     77  C1  IDS C   5      88.218  37.985 195.4950  0.00  0.00     0.000 C
ATOM     78  C2  IDS C   5      86.728  37.702 195.3090  0.00  0.00     0.000 C
ATOM     79  C3  IDS C   5      85.911  38.733 196.0630  0.00  0.00     0.000 C
ATOM     80  C4  IDS C   5      86.151  38.578 197.5620  0.00  0.00     0.000 C
ATOM     81  C5  IDS C   5      87.628  38.239 197.8080  0.00  0.00     0.000 C
ATOM     82  O5  IDS C   5      88.436  38.690 196.7170  0.00  0.00     0.000 O
BRANCH 78 83
ATOM     83   O  IDS C   5      86.357  37.767 193.8760  0.00  0.00     0.000 O
ATOM     84   S  IDS C   5      85.732  36.485 193.1600  0.00  0.00     0.000 S
ATOM     85   O  IDS C   5      86.589  35.383 193.5050  0.00  0.00     0.000 OA
ATOM     86   O  IDS C   5      84.400  36.360 193.7040  0.00  0.00     0.000 OA
ATOM     87   O  IDS C   5      85.731  36.788 191.7500  0.00  0.00     0.000 OA
ENDBRANCH 78 83
BRANCH 81 88
ATOM     88   C  IDS C   5      88.195  38.845 199.0790  0.00  0.00     0.000 C
ATOM     89   O  IDS C   5      88.986  39.748 199.0100  0.00  0.00     0.000 OA
ATOM     90   O  IDS C   5      87.847  38.415 200.1550  0.00  0.00     0.000 OA
ENDBRANCH 81 88
ENDBRANCH 76 80
ENDBRANCH 56 76
ENDBRANCH 55 59
ENDBRANCH 39 55
ENDBRANCH 38 42
ENDBRANCH 18 38
ENDBRANCH 17 21
ENDBRANCH 1 17
TORSDOF 18
ENDMDL
MODEL 78
REMARK VINA RESULT:      -1.7    165.521    171.326
ROOT
ATOM      1  C1  IDS C   1      67.507 125.660 152.2090  0.00  0.00     0.000 C
ATOM      2  C2  IDS C   1      67.903 124.194 152.0140  0.00  0.00     0.000 C
ATOM      3  C3  IDS C   1      69.098 123.836 152.8850  0.00  0.00     0.000 C
ATOM      4  C4  IDS C   1      70.289 124.726 152.5550  0.00  0.00     0.000 C
ATOM      5  C5  IDS C   1      69.818 126.153 152.2920  0.00  0.00     0.000 C
ATOM      6  O5  IDS C   1      68.538 126.366 152.8870  0.00  0.00     0.000 O
ATOM      7   O  IDS C   1      69.447 122.459 152.6880  0.00  0.00     0.000 O
ATOM      9  HD  IDS C   1      68.717 122.006 152.5770  0.00  0.00     0.000 HD
ENDROOT
BRANCH 2 9
ATOM      9   O  IDS C   1      66.791 123.293 152.3910  0.00  0.00     0.000 O
ATOM     10   S  IDS C   1      66.266 122.214 151.3400  0.00  0.00     0.000 S
ATOM     11   O  IDS C   1      65.203 121.495 152.0080  0.00  0.00     0.000 OA
ATOM     12   O  IDS C   1      65.802 122.975 150.1980  0.00  0.00     0.000 OA
ATOM     13   O  IDS C   1      67.404 121.375 151.0340  0.00  0.00     0.000 OA
ENDBRANCH 2 9
BRANCH 5 14
ATOM     14   C  IDS C   1      70.784 127.187 152.8450  0.00  0.00     0.000 C
ATOM     15   O  IDS C   1      70.384 128.016 153.6260  0.00  0.00     0.000 OA
ATOM     16   O  IDS C   1      71.953 127.172 152.4960  0.00  0.00     0.000 OA
ENDBRANCH 5 14
BRANCH 1 17
ATOM     17  O4  SGN C   2      66.238 126.062 152.3220  0.00  0.00     0.000 O
BRANCH 17 21
ATOM     18  C1  SGN C   2      62.848 127.420 154.3690  0.00  0.00     0.000 C
ATOM     19  C2  SGN C   2      64.191 127.556 155.0980  0.00  0.00     0.000 C
ATOM     20  C3  SGN C   2      65.342 127.425 154.0940  0.00  0.00     0.000 C
ATOM     21  C4  SGN C   2      65.198 126.136 153.2950  0.00  0.00     0.000 C
ATOM     22  C5  SGN C   2      63.832 126.121 152.6160  0.00  0.00     0.000 C
ATOM     23  O5  SGN C   2      62.790 126.230 153.6120  0.00  0.00     0.000 O
ATOM     24   O  SGN C   2      66.584 127.463 154.7770  0.00  0.00     0.000 O
ATOM     26  HD  SGN C   2      66.019 127.647 154.1470  0.00  0.00     0.000 HD
BRANCH 19 28
ATOM     26   N  SGN C   2      63.865 128.552 156.1280  0.00  0.00     0.000 N
ATOM     28  HD  SGN C   2      63.131 128.100 156.0390  0.00  0.00     0.000 HD
ATOM     28   O  SGN C   2      64.604 129.957 158.0520  0.00  0.00     0.000 OA
ATOM     29   S  SGN C   2      64.442 128.459 157.6260  0.00  0.00     0.000 S
ATOM     30   O  SGN C   2      63.443 127.867 158.4310  0.00  0.00     0.000 OA
ATOM     31   O  SGN C   2      65.732 127.865 157.5560  0.00  0.00     0.000 OA
ENDBRANCH 19 28
BRANCH 22 32
ATOM     32   C  SGN C   2      63.563 124.854 151.8410  0.00  0.00     0.000 C
ATOM     33   S  SGN C   2      61.705 123.083 151.6060  0.00  0.00     0.000 S
ATOM     34   O  SGN C   2      62.063 122.444 152.8470  0.00  0.00     0.000 OA
ATOM     35   O  SGN C   2      60.277 123.144 151.3740  0.00  0.00     0.000 OA
ATOM     36   O  SGN C   2      62.453 122.612 150.4640  0.00  0.00     0.000 OA
ATOM     37   O  SGN C   2      62.153 124.603 151.8030  0.00  0.00     0.000 O
ENDBRANCH 22 32
BRANCH 18 38
ATOM     38  O4  IDS C   3      62.175 128.306 153.6320  0.00  0.00     0.000 O
BRANCH 38 42
ATOM     39  C1  IDS C   3      61.314 130.803 151.3620  0.00  0.00     0.000 C
ATOM     40  C2  IDS C   3      62.532 130.959 152.2860  0.00  0.00     0.000 C
ATOM     41  C3  IDS C   3      62.154 130.715 153.7460  0.00  0.00     0.000 C
ATOM     42  C4  IDS C   3      61.339 129.438 153.8990  0.00  0.00     0.000 C
ATOM     43  C5  IDS C   3      60.157 129.457 152.9230  0.00  0.00     0.000 C
ATOM     44  O5  IDS C   3      60.653 129.569 151.5900  0.00  0.00     0.000 O
ATOM     45   O  IDS C   3      61.401 131.828 154.2320  0.00  0.00     0.000 O
ATOM     47  HD  IDS C   3      60.680 132.236 153.9800  0.00  0.00     0.000 HD
BRANCH 40 47
ATOM     47   O  IDS C   3      63.584 129.977 151.9290  0.00  0.00     0.000 O
ATOM     48   S  IDS C   3      64.897 130.462 151.1560  0.00  0.00     0.000 S
ATOM     49   O  IDS C   3      64.499 130.648 149.7770  0.00  0.00     0.000 OA
ATOM     50   O  IDS C   3      65.852 129.388 151.3160  0.00  0.00     0.000 OA
ATOM     51   O  IDS C   3      65.310 131.687 151.7860  0.00  0.00     0.000 OA
ENDBRANCH 40 47
BRANCH 43 52
ATOM     52   C  IDS C   3      59.283 128.228 153.0370  0.00  0.00     0.000 C
ATOM     53   O  IDS C   3      58.855 127.890 154.1170  0.00  0.00     0.000 OA
ATOM     54   O  IDS C   3      59.016 127.591 152.0500  0.00  0.00     0.000 OA
ENDBRANCH 43 52
BRANCH 39 55
ATOM     55  O4  SGN C   4      60.495 131.806 151.0450  0.00  0.00     0.000 O
BRANCH 55 59
ATOM     56  C1  SGN C   4      60.386 132.651 146.9490  0.00  0.00     0.000 C
ATOM     57  C2  SGN C   4      61.235 133.591 147.8220  0.00  0.00     0.000 C
ATOM     58  C3  SGN C   4      61.510 132.961 149.1850  0.00  0.00     0.000 C
ATOM     59  C4  SGN C   4      60.213 132.482 149.8280  0.00  0.00     0.000 C
ATOM     60  C5  SGN C   4      59.505 131.538 148.8590  0.00  0.00     0.000 C
ATOM     61  O5  SGN C   4      59.215 132.265 147.6490  0.00  0.00     0.000 O
ATOM     62   O  SGN C   4      62.165 133.906 150.0220  0.00  0.00     0.000 O
ATOM     64  HD  SGN C   4      62.397 134.131 149.2180  0.00  0.00     0.000 HD
BRANCH 57 66
ATOM     64   N  SGN C   4      62.164 133.851 146.7110  0.00  0.00     0.000 N
ATOM     66  HD  SGN C   4      62.155 134.325 145.9860  0.00  0.00     0.000 HD
ATOM     66   S  SGN C   4      62.558 135.345 146.3140  0.00  0.00     0.000 S
ATOM     67   O  SGN C   4      63.408 135.275 145.1820  0.00  0.00     0.000 OA
ATOM     68   O  SGN C   4      61.347 136.087 146.2350  0.00  0.00     0.000 OA
ATOM     69   O  SGN C   4      63.375 135.852 147.5460  0.00  0.00     0.000 OA
ENDBRANCH 57 66
BRANCH 60 70
ATOM     70   C  SGN C   4      58.201 130.984 149.3900  0.00  0.00     0.000 C
ATOM     71   O  SGN C   4      55.107 130.206 147.4070  0.00  0.00     0.000 OA
ATOM     72   O  SGN C   4      56.771 128.648 148.2140  0.00  0.00     0.000 OA
ATOM     73   O  SGN C   4      57.186 131.017 148.3680  0.00  0.00     0.000 O
ATOM     74   S  SGN C   4      56.059 129.885 148.4450  0.00  0.00     0.000 S
ATOM     75   O  SGN C   4      55.514 129.995 149.7840  0.00  0.00     0.000 OA
ENDBRANCH 60 70
BRANCH 56 76
ATOM     76  O4  IDS C   5      60.640 131.704 146.0270  0.00  0.00     0.000 O
BRANCH 76 80
ATOM     77  C1  IDS C   5      60.933 127.755 147.0150  0.00  0.00     0.000 C
ATOM     78  C2  IDS C   5      62.262 128.508 147.0120  0.00  0.00     0.000 C
ATOM     79  C3  IDS C   5      62.008 130.002 147.0740  0.00  0.00     0.000 C
ATOM     80  C4  IDS C   5      61.305 130.453 145.7970  0.00  0.00     0.000 C
ATOM     81  C5  IDS C   5      60.294 129.380 145.3660  0.00  0.00     0.000 C
ATOM     82  O5  IDS C   5      59.898 128.584 146.4870  0.00  0.00     0.000 O
BRANCH 78 83
ATOM     83   O  IDS C   5      63.084 128.125 148.1840  0.00  0.00     0.000 O
ATOM     84   S  IDS C   5      64.489 127.402 147.9650  0.00  0.00     0.000 S
ATOM     85   O  IDS C   5      64.244 126.334 147.0340  0.00  0.00     0.000 OA
ATOM     86   O  IDS C   5      65.362 128.425 147.4380  0.00  0.00     0.000 OA
ATOM     87   O  IDS C   5      64.898 126.939 149.2680  0.00  0.00     0.000 OA
ENDBRANCH 78 83
BRANCH 81 88
ATOM     88   C  IDS C   5      59.033 129.940 144.7340  0.00  0.00     0.000 C
ATOM     89   O  IDS C   5      59.062 130.352 143.6050  0.00  0.00     0.000 OA
ATOM     90   O  IDS C   5      58.005 129.968 145.3710  0.00  0.00     0.000 OA
ENDBRANCH 81 88
ENDBRANCH 76 80
ENDBRANCH 56 76
ENDBRANCH 55 59
ENDBRANCH 39 55
ENDBRANCH 38 42
ENDBRANCH 18 38
ENDBRANCH 17 21
ENDBRANCH 1 17
TORSDOF 18
ENDMDL
MODEL 79
REMARK VINA RESULT:      -1.7    159.816    166.927
ROOT
ATOM      1  C1  IDS C   1      93.032  77.124 202.5460  0.00  0.00     0.000 C
ATOM      2  C2  IDS C   1      93.313  77.736 203.9210  0.00  0.00     0.000 C
ATOM      3  C3  IDS C   1      94.769  78.165 204.0330  0.00  0.00     0.000 C
ATOM      4  C4  IDS C   1      95.697  76.979 203.8120  0.00  0.00     0.000 C
ATOM      5  C5  IDS C   1      95.151  76.088 202.7010  0.00  0.00     0.000 C
ATOM      6  O5  IDS C   1      94.250  76.827 201.8760  0.00  0.00     0.000 O
ATOM      7   O  IDS C   1      95.007  78.739 205.3270  0.00  0.00     0.000 O
ATOM      9  HD  IDS C   1      94.303  79.185 205.5600  0.00  0.00     0.000 HD
ENDROOT
BRANCH 2 9
ATOM      9   O  IDS C   1      92.476  78.936 204.1450  0.00  0.00     0.000 O
ATOM     10   S  IDS C   1      91.567  79.024 205.4530  0.00  0.00     0.000 S
ATOM     11   O  IDS C   1      90.895  80.303 205.3840  0.00  0.00     0.000 OA
ATOM     12   O  IDS C   1      90.654  77.902 205.3680  0.00  0.00     0.000 OA
ATOM     13   O  IDS C   1      92.476  78.928 206.5730  0.00  0.00     0.000 OA
ENDBRANCH 2 9
BRANCH 5 14
ATOM     14   C  IDS C   1      96.256  75.525 201.8230  0.00  0.00     0.000 C
ATOM     15   O  IDS C   1      97.271  75.119 202.3330  0.00  0.00     0.000 OA
ATOM     16   O  IDS C   1      96.109  75.491 200.6120  0.00  0.00     0.000 OA
ENDBRANCH 5 14
BRANCH 1 17
ATOM     17  O4  SGN C   2      91.932  77.399 201.8390  0.00  0.00     0.000 O
BRANCH 17 21
ATOM     18  C1  SGN C   2      89.730  79.227 198.7830  0.00  0.00     0.000 C
ATOM     19  C2  SGN C   2      91.254  79.206 198.6130  0.00  0.00     0.000 C
ATOM     20  C3  SGN C   2      91.868  78.164 199.5560  0.00  0.00     0.000 C
ATOM     21  C4  SGN C   2      91.407  78.414 200.9870  0.00  0.00     0.000 C
ATOM     22  C5  SGN C   2      89.882  78.407 201.0280  0.00  0.00     0.000 C
ATOM     23  O5  SGN C   2      89.364  79.419 200.1340  0.00  0.00     0.000 O
ATOM     24   O  SGN C   2      93.282  78.203 199.4640  0.00  0.00     0.000 O
ATOM     26  HD  SGN C   2      92.500  77.834 199.5200  0.00  0.00     0.000 HD
BRANCH 19 28
ATOM     26   N  SGN C   2      91.390  79.449 197.1710  0.00  0.00     0.000 N
ATOM     28  HD  SGN C   2      90.682  79.898 197.3890  0.00  0.00     0.000 HD
ATOM     28   O  SGN C   2      92.869  79.743 195.1830  0.00  0.00     0.000 OA
ATOM     29   S  SGN C   2      92.535  80.402 196.5640  0.00  0.00     0.000 S
ATOM     30   O  SGN C   2      91.955  81.669 196.3320  0.00  0.00     0.000 OA
ATOM     31   O  SGN C   2      93.676  80.295 197.4060  0.00  0.00     0.000 OA
ENDBRANCH 19 28
BRANCH 22 32
ATOM     32   C  SGN C   2      89.318  78.705 202.3950  0.00  0.00     0.000 C
ATOM     33   S  SGN C   2      87.540  80.231 203.4690  0.00  0.00     0.000 S
ATOM     34   O  SGN C   2      88.387  81.394 203.3830  0.00  0.00     0.000 OA
ATOM     35   O  SGN C   2      86.146  80.506 203.1900  0.00  0.00     0.000 OA
ATOM     36   O  SGN C   2      87.743  79.441 204.6610  0.00  0.00     0.000 OA
ATOM     37   O  SGN C   2      88.023  79.303 202.2630  0.00  0.00     0.000 O
ENDBRANCH 22 32
BRANCH 18 38
ATOM     38  O4  IDS C   3      88.799  78.396 198.3100  0.00  0.00     0.000 O
BRANCH 38 42
ATOM     39  C1  IDS C   3      86.384  76.619 196.5390  0.00  0.00     0.000 C
ATOM     40  C2  IDS C   3      86.052  77.277 197.8880  0.00  0.00     0.000 C
ATOM     41  C3  IDS C   3      87.055  76.865 198.9650  0.00  0.00     0.000 C
ATOM     42  C4  IDS C   3      88.487  77.008 198.4680  0.00  0.00     0.000 C
ATOM     43  C5  IDS C   3      88.647  76.279 197.1290  0.00  0.00     0.000 C
ATOM     44  O5  IDS C   3      87.738  76.838 196.1820  0.00  0.00     0.000 O
ATOM     45   O  IDS C   3      86.809  75.510 199.3470  0.00  0.00     0.000 O
ATOM     47  HD  IDS C   3      86.758  74.755 198.9250  0.00  0.00     0.000 HD
BRANCH 40 47
ATOM     47   O  IDS C   3      86.104  78.754 197.7730  0.00  0.00     0.000 O
ATOM     48   S  IDS C   3      84.750  79.587 197.5960  0.00  0.00     0.000 S
ATOM     49   O  IDS C   3      84.359  79.420 196.2130  0.00  0.00     0.000 OA
ATOM     50   O  IDS C   3      85.101  80.954 197.9110  0.00  0.00     0.000 OA
ATOM     51   O  IDS C   3      83.801  79.020 198.5170  0.00  0.00     0.000 OA
ENDBRANCH 40 47
BRANCH 43 52
ATOM     52   C  IDS C   3      90.056  76.355 196.5850  0.00  0.00     0.000 C
ATOM     53   O  IDS C   3      90.936  75.702 197.0990  0.00  0.00     0.000 OA
ATOM     54   O  IDS C   3      90.296  77.065 195.6420  0.00  0.00     0.000 OA
ENDBRANCH 43 52
BRANCH 39 55
ATOM     55  O4  SGN C   4      85.908  75.433 196.1590  0.00  0.00     0.000 O
BRANCH 55 59
ATOM     56  C1  SGN C   4      85.325  74.686 192.0840  0.00  0.00     0.000 C
ATOM     57  C2  SGN C   4      84.343  75.664 192.7510  0.00  0.00     0.000 C
ATOM     58  C3  SGN C   4      84.888  76.148 194.0920  0.00  0.00     0.000 C
ATOM     59  C4  SGN C   4      85.307  74.966 194.9590  0.00  0.00     0.000 C
ATOM     60  C5  SGN C   4      86.303  74.112 194.1760  0.00  0.00     0.000 C
ATOM     61  O5  SGN C   4      85.650  73.638 192.9820  0.00  0.00     0.000 O
ATOM     62   O  SGN C   4      83.901  76.929 194.7530  0.00  0.00     0.000 O
ATOM     64  HD  SGN C   4      83.730  77.032 193.9100  0.00  0.00     0.000 HD
BRANCH 57 66
ATOM     64   N  SGN C   4      83.354  75.479 191.6760  0.00  0.00     0.000 N
ATOM     66  HD  SGN C   4      82.551  75.757 191.5110  0.00  0.00     0.000 HD
ATOM     66   S  SGN C   4      82.706  76.740 190.9440  0.00  0.00     0.000 S
ATOM     67   O  SGN C   4      81.758  76.248 190.0120  0.00  0.00     0.000 OA
ATOM     68   O  SGN C   4      82.285  77.641 191.9600  0.00  0.00     0.000 OA
ATOM     69   O  SGN C   4      83.907  77.379 190.1740  0.00  0.00     0.000 OA
ENDBRANCH 57 66
BRANCH 60 70
ATOM     70   C  SGN C   4      86.804  72.905 194.9390  0.00  0.00     0.000 C
ATOM     71   O  SGN C   4      89.907  72.698 197.0450  0.00  0.00     0.000 OA
ATOM     72   O  SGN C   4      87.626  72.957 197.8040  0.00  0.00     0.000 OA
ATOM     73   O  SGN C   4      88.127  73.148 195.4550  0.00  0.00     0.000 O
ATOM     74   S  SGN C   4      88.514  72.395 196.8120  0.00  0.00     0.000 S
ATOM     75   O  SGN C   4      88.265  70.993 196.5410  0.00  0.00     0.000 OA
ENDBRANCH 60 70
BRANCH 56 76
ATOM     76  O4  IDS C   5      86.333  74.790 191.1970  0.00  0.00     0.000 O
BRANCH 76 80
ATOM     77  C1  IDS C   5      90.050  75.902 192.4620  0.00  0.00     0.000 C
ATOM     78  C2  IDS C   5      89.201  77.045 191.9070  0.00  0.00     0.000 C
ATOM     79  C3  IDS C   5      87.742  76.636 191.8830  0.00  0.00     0.000 C
ATOM     80  C4  IDS C   5      87.547  75.492 190.8930  0.00  0.00     0.000 C
ATOM     81  C5  IDS C   5      88.750  74.542 190.9700  0.00  0.00     0.000 C
ATOM     82  O5  IDS C   5      89.396  74.652 192.2420  0.00  0.00     0.000 O
BRANCH 78 83
ATOM     83   O  IDS C   5      89.336  78.255 192.7500  0.00  0.00     0.000 O
ATOM     84   S  IDS C   5      90.007  79.571 192.1470  0.00  0.00     0.000 S
ATOM     85   O  IDS C   5      91.230  79.141 191.5230  0.00  0.00     0.000 OA
ATOM     86   O  IDS C   5      89.043  80.091 191.2070  0.00  0.00     0.000 OA
ATOM     87   O  IDS C   5      90.220  80.451 193.2710  0.00  0.00     0.000 OA
ENDBRANCH 78 83
BRANCH 81 88
ATOM     88   C  IDS C   5      88.396  73.081 190.7620  0.00  0.00     0.000 C
ATOM     89   O  IDS C   5      88.401  72.325 191.6960  0.00  0.00     0.000 OA
ATOM     90   O  IDS C   5      88.109  72.686 189.6550  0.00  0.00     0.000 OA
ENDBRANCH 81 88
ENDBRANCH 76 80
ENDBRANCH 56 76
ENDBRANCH 55 59
ENDBRANCH 39 55
ENDBRANCH 38 42
ENDBRANCH 18 38
ENDBRANCH 17 21
ENDBRANCH 1 17
TORSDOF 18
ENDMDL
MODEL 80
REMARK VINA RESULT:      -1.7    120.632    125.135
ROOT
ATOM      1  C1  IDS C   1     122.567   9.620 175.2030  0.00  0.00     0.000 C
ATOM      2  C2  IDS C   1     121.232   9.857 175.9130  0.00  0.00     0.000 C
ATOM      3  C3  IDS C   1     120.226   8.775 175.5480  0.00  0.00     0.000 C
ATOM      4  C4  IDS C   1     119.996   8.741 174.0430  0.00  0.00     0.000 C
ATOM      5  C5  IDS C   1     121.312   8.968 173.3070  0.00  0.00     0.000 C
ATOM      6  O5  IDS C   1     122.413   8.662 174.1640  0.00  0.00     0.000 O
ATOM      7   O  IDS C   1     118.986   9.016 176.2280  0.00  0.00     0.000 O
ATOM      9  HD  IDS C   1     119.163   9.332 177.0140  0.00  0.00     0.000 HD
ENDROOT
BRANCH 2 9
ATOM      9   O  IDS C   1     121.404   9.829 177.3830  0.00  0.00     0.000 O
ATOM     10   S  IDS C   1     120.923  11.077 178.2520  0.00  0.00     0.000 S
ATOM     11   O  IDS C   1     121.213  10.737 179.6270  0.00  0.00     0.000 OA
ATOM     12   O  IDS C   1     121.696  12.205 177.7740  0.00  0.00     0.000 OA
ATOM     13   O  IDS C   1     119.507  11.215 177.9950  0.00  0.00     0.000 OA
ENDBRANCH 2 9
BRANCH 5 14
ATOM     14   C  IDS C   1     121.424   8.115 172.0550  0.00  0.00     0.000 C
ATOM     15   O  IDS C   1     120.542   8.149 171.2330  0.00  0.00     0.000 OA
ATOM     16   O  IDS C   1     122.401   7.403 171.8930  0.00  0.00     0.000 OA
ENDBRANCH 5 14
BRANCH 1 17
ATOM     17  O4  SGN C   2     123.749   9.761 175.8100  0.00  0.00     0.000 O
BRANCH 17 21
ATOM     18  C1  SGN C   2     127.336   8.408 177.4910  0.00  0.00     0.000 C
ATOM     19  C2  SGN C   2     126.576   7.414 176.6030  0.00  0.00     0.000 C
ATOM     20  C3  SGN C   2     125.551   8.165 175.7440  0.00  0.00     0.000 C
ATOM     21  C4  SGN C   2     124.651   9.021 176.6280  0.00  0.00     0.000 C
ATOM     22  C5  SGN C   2     125.518   9.965 177.4540  0.00  0.00     0.000 C
ATOM     23  O5  SGN C   2     126.451   9.201 178.2530  0.00  0.00     0.000 O
ATOM     24   O  SGN C   2     124.788   7.241 174.9870  0.00  0.00     0.000 O
ATOM     26  HD  SGN C   2     125.237   7.966 175.1340  0.00  0.00     0.000 HD
BRANCH 19 28
ATOM     26   N  SGN C   2     127.631   6.443 176.2820  0.00  0.00     0.000 N
ATOM     28  HD  SGN C   2     127.827   6.702 177.0850  0.00  0.00     0.000 HD
ATOM     28   O  SGN C   2     128.330   4.359 175.1040  0.00  0.00     0.000 OA
ATOM     29   S  SGN C   2     127.352   4.861 176.2180  0.00  0.00     0.000 S
ATOM     30   O  SGN C   2     127.754   4.308 177.4550  0.00  0.00     0.000 OA
ATOM     31   O  SGN C   2     126.017   4.676 175.7670  0.00  0.00     0.000 OA
ENDBRANCH 19 28
BRANCH 22 32
ATOM     32   C  SGN C   2     124.726  10.822 178.4110  0.00  0.00     0.000 C
ATOM     33   S  SGN C   2     125.077  12.079 180.6340  0.00  0.00     0.000 S
ATOM     34   O  SGN C   2     125.015  10.866 181.4090  0.00  0.00     0.000 OA
ATOM     35   O  SGN C   2     126.063  13.025 181.1120  0.00  0.00     0.000 OA
ATOM     36   O  SGN C   2     123.788  12.676 180.3700  0.00  0.00     0.000 OA
ATOM     37   O  SGN C   2     125.620  11.608 179.2080  0.00  0.00     0.000 O
ENDBRANCH 22 32
BRANCH 18 38
ATOM     38  O4  IDS C   3     128.340   9.236 177.1940  0.00  0.00     0.000 O
BRANCH 38 42
ATOM     39  C1  IDS C   3     130.541  11.690 176.0700  0.00  0.00     0.000 C
ATOM     40  C2  IDS C   3     130.111  10.532 175.1550  0.00  0.00     0.000 C
ATOM     41  C3  IDS C   3     130.330   9.180 175.8340  0.00  0.00     0.000 C
ATOM     42  C4  IDS C   3     129.769   9.178 177.2490  0.00  0.00     0.000 C
ATOM     43  C5  IDS C   3     130.312  10.384 178.0260  0.00  0.00     0.000 C
ATOM     44  O5  IDS C   3     129.938  11.582 177.3480  0.00  0.00     0.000 O
ATOM     45   O  IDS C   3     131.729   8.890 175.8690  0.00  0.00     0.000 O
ATOM     47  HD  IDS C   3     132.432   9.298 176.1690  0.00  0.00     0.000 HD
BRANCH 40 47
ATOM     47   O  IDS C   3     128.670  10.636 174.8250  0.00  0.00     0.000 O
ATOM     48   S  IDS C   3     128.214  11.331 173.4590  0.00  0.00     0.000 S
ATOM     49   O  IDS C   3     128.342  12.756 173.6760  0.00  0.00     0.000 OA
ATOM     50   O  IDS C   3     126.840  10.922 173.2640  0.00  0.00     0.000 OA
ATOM     51   O  IDS C   3     129.101  10.841 172.4380  0.00  0.00     0.000 OA
ENDBRANCH 40 47
BRANCH 43 52
ATOM     52   C  IDS C   3     129.818  10.432 179.4540  0.00  0.00     0.000 C
ATOM     53   O  IDS C   3     128.973  11.237 179.7730  0.00  0.00     0.000 OA
ATOM     54   O  IDS C   3     130.268   9.666 180.2680  0.00  0.00     0.000 OA
ENDBRANCH 43 52
BRANCH 39 55
ATOM     55  O4  SGN C   4     131.774  12.196 176.0920  0.00  0.00     0.000 O
BRANCH 55 59
ATOM     56  C1  SGN C   4     132.104  16.310 176.7760  0.00  0.00     0.000 C
ATOM     57  C2  SGN C   4     131.779  15.876 175.3370  0.00  0.00     0.000 C
ATOM     58  C3  SGN C   4     131.302  14.427 175.3030  0.00  0.00     0.000 C
ATOM     59  C4  SGN C   4     132.281  13.521 176.0410  0.00  0.00     0.000 C
ATOM     60  C5  SGN C   4     132.475  14.060 177.4570  0.00  0.00     0.000 C
ATOM     61  O5  SGN C   4     133.014  15.394 177.3640  0.00  0.00     0.000 O
ATOM     62   O  SGN C   4     131.151  14.007 173.9530  0.00  0.00     0.000 O
ATOM     64  HD  SGN C   4     131.015  14.862 173.9310  0.00  0.00     0.000 HD
BRANCH 57 66
ATOM     64   N  SGN C   4     131.654  16.453 173.9880  0.00  0.00     0.000 N
ATOM     66  HD  SGN C   4     131.056  16.905 173.5550  0.00  0.00     0.000 HD
ATOM     66   S  SGN C   4     131.303  17.998 173.7960  0.00  0.00     0.000 S
ATOM     67   O  SGN C   4     131.191  18.237 172.4030  0.00  0.00     0.000 OA
ATOM     68   O  SGN C   4     130.198  18.283 174.6450  0.00  0.00     0.000 OA
ATOM     69   O  SGN C   4     132.563  18.736 174.3490  0.00  0.00     0.000 OA
ENDBRANCH 57 66
BRANCH 60 70
ATOM     70   C  SGN C   4     133.425  13.236 178.2990  0.00  0.00     0.000 C
ATOM     71   O  SGN C   4     137.174  13.463 178.3470  0.00  0.00     0.000 OA
ATOM     72   O  SGN C   4     135.620  14.383 179.9560  0.00  0.00     0.000 OA
ATOM     73   O  SGN C   4     134.788  13.462 177.8910  0.00  0.00     0.000 O
ATOM     74   S  SGN C   4     135.906  13.315 179.0240  0.00  0.00     0.000 S
ATOM     75   O  SGN C   4     135.699  11.993 179.5800  0.00  0.00     0.000 OA
ENDBRANCH 60 70
BRANCH 56 76
ATOM     76  O4  IDS C   5     131.433  16.914 177.7740  0.00  0.00     0.000 O
BRANCH 76 80
ATOM     77  C1  IDS C   5     128.777  14.763 180.0040  0.00  0.00     0.000 C
ATOM     78  C2  IDS C   5     128.145  15.572 178.8710  0.00  0.00     0.000 C
ATOM     79  C3  IDS C   5     129.209  15.961 177.8630  0.00  0.00     0.000 C
ATOM     80  C4  IDS C   5     130.203  16.918 178.5140  0.00  0.00     0.000 C
ATOM     81  C5  IDS C   5     130.449  16.485 179.9660  0.00  0.00     0.000 C
ATOM     82  O5  IDS C   5     130.159  15.094 180.1320  0.00  0.00     0.000 O
BRANCH 78 83
ATOM     83   O  IDS C   5     127.109  14.775 178.1740  0.00  0.00     0.000 O
ATOM     84   S  IDS C   5     125.628  15.353 178.0310  0.00  0.00     0.000 S
ATOM     85   O  IDS C   5     125.251  15.803 179.3440  0.00  0.00     0.000 OA
ATOM     86   O  IDS C   5     125.732  16.426 177.0700  0.00  0.00     0.000 OA
ATOM     87   O  IDS C   5     124.825  14.254 177.5520  0.00  0.00     0.000 OA
ENDBRANCH 78 83
BRANCH 81 88
ATOM     88   C  IDS C   5     131.871  16.717 180.4450  0.00  0.00     0.000 C
ATOM     89   O  IDS C   5     132.607  15.781 180.6080  0.00  0.00     0.000 OA
ATOM     90   O  IDS C   5     132.255  17.844 180.6590  0.00  0.00     0.000 OA
ENDBRANCH 81 88
ENDBRANCH 76 80
ENDBRANCH 56 76
ENDBRANCH 55 59
ENDBRANCH 39 55
ENDBRANCH 38 42
ENDBRANCH 18 38
ENDBRANCH 17 21
ENDBRANCH 1 17
TORSDOF 18
ENDMDL
MODEL 81
REMARK VINA RESULT:      -1.6    143.085    150.836
ROOT
ATOM      1  C1  IDS C   1      92.585  34.792 187.7850  0.00  0.00     0.000 C
ATOM      2  C2  IDS C   1      93.084  33.512 188.4630  0.00  0.00     0.000 C
ATOM      3  C3  IDS C   1      94.370  33.023 187.8140  0.00  0.00     0.000 C
ATOM      4  C4  IDS C   1      94.155  32.754 186.3310  0.00  0.00     0.000 C
ATOM      5  C5  IDS C   1      93.247  33.824 185.7320  0.00  0.00     0.000 C
ATOM      6  O5  IDS C   1      93.260  34.994 186.5500  0.00  0.00     0.000 O
ATOM      7   O  IDS C   1      94.819  31.827 188.4680  0.00  0.00     0.000 O
ATOM      9  HD  IDS C   1      94.644  31.898 189.3140  0.00  0.00     0.000 HD
ENDROOT
BRANCH 2 9
ATOM      9   O  IDS C   1      93.370  33.752 189.8960  0.00  0.00     0.000 O
ATOM     10   S  IDS C   1      92.673  32.834 190.9980  0.00  0.00     0.000 S
ATOM     11   O  IDS C   1      93.162  33.307 192.2740  0.00  0.00     0.000 OA
ATOM     12   O  IDS C   1      91.248  33.037 190.8300  0.00  0.00     0.000 OA
ATOM     13   O  IDS C   1      93.088  31.480 190.7050  0.00  0.00     0.000 OA
ENDBRANCH 2 9
BRANCH 5 14
ATOM     14   C  IDS C   1      93.673  34.215 184.3270  0.00  0.00     0.000 C
ATOM     15   O  IDS C   1      93.830  33.356 183.4930  0.00  0.00     0.000 OA
ATOM     16   O  IDS C   1      93.854  35.390 184.0540  0.00  0.00     0.000 OA
ENDBRANCH 5 14
BRANCH 1 17
ATOM     17  O4  SGN C   2      92.113  35.840 188.4660  0.00  0.00     0.000 O
BRANCH 17 21
ATOM     18  C1  SGN C   2      92.219  39.734 189.9980  0.00  0.00     0.000 C
ATOM     19  C2  SGN C   2      93.207  39.413 188.8700  0.00  0.00     0.000 C
ATOM     20  C3  SGN C   2      92.770  38.134 188.1450  0.00  0.00     0.000 C
ATOM     21  C4  SGN C   2      92.583  37.001 189.1470  0.00  0.00     0.000 C
ATOM     22  C5  SGN C   2      91.580  37.437 190.2110  0.00  0.00     0.000 C
ATOM     23  O5  SGN C   2      92.054  38.634 190.8680  0.00  0.00     0.000 O
ATOM     24   O  SGN C   2      93.728  37.787 187.1590  0.00  0.00     0.000 O
ATOM     26  HD  SGN C   2      92.936  37.904 187.4900  0.00  0.00     0.000 HD
BRANCH 19 28
ATOM     26   N  SGN C   2      93.566  40.759 188.4030  0.00  0.00     0.000 N
ATOM     28  HD  SGN C   2      93.449  40.861 189.2560  0.00  0.00     0.000 HD
ATOM     28   O  SGN C   2      94.848  42.203 186.8240  0.00  0.00     0.000 OA
ATOM     29   S  SGN C   2      95.062  41.144 187.9580  0.00  0.00     0.000 S
ATOM     30   O  SGN C   2      95.683  41.778 189.0570  0.00  0.00     0.000 OA
ATOM     31   O  SGN C   2      95.655  39.983 187.3890  0.00  0.00     0.000 OA
ENDBRANCH 19 28
BRANCH 22 32
ATOM     32   C  SGN C   2      91.364  36.404 191.2890  0.00  0.00     0.000 C
ATOM     33   S  SGN C   2      90.509  36.286 193.7180  0.00  0.00     0.000 S
ATOM     34   O  SGN C   2      91.737  36.825 194.2480  0.00  0.00     0.000 OA
ATOM     35   O  SGN C   2      89.323  36.768 194.3940  0.00  0.00     0.000 OA
ATOM     36   O  SGN C   2      90.525  34.854 193.5360  0.00  0.00     0.000 OA
ATOM     37   O  SGN C   2      90.417  36.895 192.2450  0.00  0.00     0.000 O
ENDBRANCH 22 32
BRANCH 18 38
ATOM     38  O4  IDS C   3      91.008  40.294 189.9500  0.00  0.00     0.000 O
BRANCH 38 42
ATOM     39  C1  IDS C   3      87.716  41.104 189.1530  0.00  0.00     0.000 C
ATOM     40  C2  IDS C   3      88.761  40.864 188.0520  0.00  0.00     0.000 C
ATOM     41  C3  IDS C   3      90.009  41.716 188.2780  0.00  0.00     0.000 C
ATOM     42  C4  IDS C   3      90.495  41.610 189.7170  0.00  0.00     0.000 C
ATOM     43  C5  IDS C   3      89.336  41.898 190.6790  0.00  0.00     0.000 C
ATOM     44  O5  IDS C   3      88.289  40.959 190.4420  0.00  0.00     0.000 O
ATOM     45   O  IDS C   3      89.713  43.080 187.9690  0.00  0.00     0.000 O
ATOM     47  HD  IDS C   3      89.119  43.652 188.2320  0.00  0.00     0.000 HD
BRANCH 40 47
ATOM     47   O  IDS C   3      89.189  39.444 188.0410  0.00  0.00     0.000 O
ATOM     48   S  IDS C   3      88.547  38.429 186.9850  0.00  0.00     0.000 S
ATOM     49   O  IDS C   3      87.232  38.105 187.4940  0.00  0.00     0.000 OA
ATOM     50   O  IDS C   3      89.432  37.285 186.9720  0.00  0.00     0.000 OA
ATOM     51   O  IDS C   3      88.503  39.124 185.7270  0.00  0.00     0.000 OA
ENDBRANCH 40 47
BRANCH 43 52
ATOM     52   C  IDS C   3      89.752  41.837 192.1320  0.00  0.00     0.000 C
ATOM     53   O  IDS C   3      90.715  42.465 192.5100  0.00  0.00     0.000 OA
ATOM     54   O  IDS C   3      89.121  41.164 192.9070  0.00  0.00     0.000 OA
ENDBRANCH 43 52
BRANCH 39 55
ATOM     55  O4  SGN C   4      86.770  42.041 189.0810  0.00  0.00     0.000 O
BRANCH 55 59
ATOM     56  C1  SGN C   4      83.072  41.012 190.7470  0.00  0.00     0.000 C
ATOM     57  C2  SGN C   4      83.305  40.601 189.2830  0.00  0.00     0.000 C
ATOM     58  C3  SGN C   4      84.789  40.671 188.9300  0.00  0.00     0.000 C
ATOM     59  C4  SGN C   4      85.370  42.026 189.3180  0.00  0.00     0.000 C
ATOM     60  C5  SGN C   4      85.089  42.275 190.7980  0.00  0.00     0.000 C
ATOM     61  O5  SGN C   4      83.661  42.279 190.9940  0.00  0.00     0.000 O
ATOM     62   O  SGN C   4      84.959  40.432 187.5400  0.00  0.00     0.000 O
ATOM     64  HD  SGN C   4      84.238  40.000 187.7470  0.00  0.00     0.000 HD
BRANCH 57 66
ATOM     64   N  SGN C   4      82.570  40.032 188.1420  0.00  0.00     0.000 N
ATOM     66  HD  SGN C   4      82.308  39.243 187.8980  0.00  0.00     0.000 HD
ATOM     66   S  SGN C   4      81.276  39.128 188.3810  0.00  0.00     0.000 S
ATOM     67   O  SGN C   4      80.830  38.681 187.1110  0.00  0.00     0.000 OA
ATOM     68   O  SGN C   4      81.614  38.173 189.3790  0.00  0.00     0.000 OA
ATOM     69   O  SGN C   4      80.231  40.126 188.9760  0.00  0.00     0.000 OA
ENDBRANCH 57 66
BRANCH 60 70
ATOM     70   C  SGN C   4      85.629  43.594 191.3090  0.00  0.00     0.000 C
ATOM     71   O  SGN C   4      83.962  46.952 191.0850  0.00  0.00     0.000 OA
ATOM     72   O  SGN C   4      84.082  45.491 193.0080  0.00  0.00     0.000 OA
ATOM     73   O  SGN C   4      84.805  44.686 190.8560  0.00  0.00     0.000 O
ATOM     74   S  SGN C   4      84.733  45.968 191.8090  0.00  0.00     0.000 S
ATOM     75   O  SGN C   4      86.114  46.354 192.0160  0.00  0.00     0.000 OA
ENDBRANCH 60 70
BRANCH 56 76
ATOM     76  O4  IDS C   5      82.985  40.368 191.9250  0.00  0.00     0.000 O
BRANCH 76 80
ATOM     77  C1  IDS C   5      86.373  39.023 193.7600  0.00  0.00     0.000 C
ATOM     78  C2  IDS C   5      85.643  37.970 192.9270  0.00  0.00     0.000 C
ATOM     79  C3  IDS C   5      84.690  38.649 191.9620  0.00  0.00     0.000 C
ATOM     80  C4  IDS C   5      83.588  39.355 192.7450  0.00  0.00     0.000 C
ATOM     81  C5  IDS C   5      84.185  39.979 194.0140  0.00  0.00     0.000 C
ATOM     82  O5  IDS C   5      85.587  40.211 193.8480  0.00  0.00     0.000 O
BRANCH 78 83
ATOM     83   O  IDS C   5      86.606  37.162 192.1430  0.00  0.00     0.000 O
ATOM     84   S  IDS C   5      86.546  35.569 192.2130  0.00  0.00     0.000 S
ATOM     85   O  IDS C   5      86.487  35.236 193.6110  0.00  0.00     0.000 OA
ATOM     86   O  IDS C   5      85.350  35.204 191.4910  0.00  0.00     0.000 OA
ATOM     87   O  IDS C   5      87.749  35.104 191.5660  0.00  0.00     0.000 OA
ENDBRANCH 78 83
BRANCH 81 88
ATOM     88   C  IDS C   5      83.547  41.297 194.4120  0.00  0.00     0.000 C
ATOM     89   O  IDS C   5      84.156  42.324 194.2710  0.00  0.00     0.000 OA
ATOM     90   O  IDS C   5      82.426  41.307 194.8680  0.00  0.00     0.000 OA
ENDBRANCH 81 88
ENDBRANCH 76 80
ENDBRANCH 56 76
ENDBRANCH 55 59
ENDBRANCH 39 55
ENDBRANCH 38 42
ENDBRANCH 18 38
ENDBRANCH 17 21
ENDBRANCH 1 17
TORSDOF 18
ENDMDL
MODEL 82
REMARK VINA RESULT:      -1.6    147.415    155.022
ROOT
ATOM      1  C1  IDS C   1     105.200 158.827 114.1710  0.00  0.00     0.000 C
ATOM      2  C2  IDS C   1     105.286 158.446 115.6520  0.00  0.00     0.000 C
ATOM      3  C3  IDS C   1     104.378 159.332 116.4920  0.00  0.00     0.000 C
ATOM      4  C4  IDS C   1     104.756 160.798 116.3280  0.00  0.00     0.000 C
ATOM      5  C5  IDS C   1     105.126 161.083 114.8750  0.00  0.00     0.000 C
ATOM      6  O5  IDS C   1     104.561 160.088 114.0210  0.00  0.00     0.000 O
ATOM      7   O  IDS C   1     104.472 158.954 117.8720  0.00  0.00     0.000 O
ATOM      9  HD  IDS C   1     104.560 158.093 117.9130  0.00  0.00     0.000 HD
ENDROOT
BRANCH 2 9
ATOM      9   O  IDS C   1     104.859 157.044 115.8610  0.00  0.00     0.000 O
ATOM     10   S  IDS C   1     105.835 156.031 116.6130  0.00  0.00     0.000 S
ATOM     11   O  IDS C   1     105.131 154.769 116.6680  0.00  0.00     0.000 OA
ATOM     12   O  IDS C   1     107.035 155.973 115.8040  0.00  0.00     0.000 OA
ATOM     13   O  IDS C   1     106.065 156.603 117.9220  0.00  0.00     0.000 OA
ENDBRANCH 2 9
BRANCH 5 14
ATOM     14   C  IDS C   1     104.636 162.446 114.4170  0.00  0.00     0.000 C
ATOM     15   O  IDS C   1     104.974 162.866 113.3370  0.00  0.00     0.000 OA
ATOM     16   O  IDS C   1     103.908 163.103 115.1420  0.00  0.00     0.000 OA
ENDBRANCH 5 14
BRANCH 1 17
ATOM     17  O4  SGN C   2     105.130 157.923 113.1900  0.00  0.00     0.000 O
BRANCH 17 21
ATOM     18  C1  SGN C   2     103.249 155.757 110.1420  0.00  0.00     0.000 C
ATOM     19  C2  SGN C   2     102.549 157.040 110.6050  0.00  0.00     0.000 C
ATOM     20  C3  SGN C   2     103.535 157.917 111.3860  0.00  0.00     0.000 C
ATOM     21  C4  SGN C   2     104.169 157.115 112.5170  0.00  0.00     0.000 C
ATOM     22  C5  SGN C   2     104.834 155.871 111.9330  0.00  0.00     0.000 C
ATOM     23  O5  SGN C   2     103.853 155.079 111.2240  0.00  0.00     0.000 O
ATOM     24   O  SGN C   2     102.869 159.063 111.8890  0.00  0.00     0.000 O
ATOM     26  HD  SGN C   2     103.513 158.618 111.5190  0.00  0.00     0.000 HD
BRANCH 19 28
ATOM     26   N  SGN C   2     101.239 157.440 110.0720  0.00  0.00     0.000 N
ATOM     28  HD  SGN C   2     101.093 157.334 110.9200  0.00  0.00     0.000 HD
ATOM     28   O  SGN C   2      99.916 158.757 108.4170  0.00  0.00     0.000 OA
ATOM     29   S  SGN C   2     100.927 158.945 109.5980  0.00  0.00     0.000 S
ATOM     30   O  SGN C   2     100.264 159.597 110.6610  0.00  0.00     0.000 OA
ATOM     31   O  SGN C   2     102.133 159.493 109.0800  0.00  0.00     0.000 OA
ENDBRANCH 19 28
BRANCH 22 32
ATOM     32   C  SGN C   2     105.446 154.972 112.9790  0.00  0.00     0.000 C
ATOM     33   S  SGN C   2     106.097 152.495 113.2660  0.00  0.00     0.000 S
ATOM     34   O  SGN C   2     104.731 152.089 113.4780  0.00  0.00     0.000 OA
ATOM     35   O  SGN C   2     106.866 151.557 112.4750  0.00  0.00     0.000 OA
ATOM     36   O  SGN C   2     106.776 152.929 114.4650  0.00  0.00     0.000 OA
ATOM     37   O  SGN C   2     105.983 153.801 112.3540  0.00  0.00     0.000 O
ENDBRANCH 22 32
BRANCH 18 38
ATOM     38  O4  IDS C   3     104.086 155.551 109.1230  0.00  0.00     0.000 O
BRANCH 38 42
ATOM     39  C1  IDS C   3     106.639 155.367 106.7620  0.00  0.00     0.000 C
ATOM     40  C2  IDS C   3     105.634 156.530 106.7520  0.00  0.00     0.000 C
ATOM     41  C3  IDS C   3     104.195 156.017 106.7590  0.00  0.00     0.000 C
ATOM     42  C4  IDS C   3     103.995 154.950 107.8260  0.00  0.00     0.000 C
ATOM     43  C5  IDS C   3     105.065 153.861 107.6790  0.00  0.00     0.000 C
ATOM     44  O5  IDS C   3     106.356 154.454 107.8090  0.00  0.00     0.000 O
ATOM     45   O  IDS C   3     103.878 155.479 105.4740  0.00  0.00     0.000 O
ATOM     47  HD  IDS C   3     104.226 154.874 104.9610  0.00  0.00     0.000 HD
BRANCH 40 47
ATOM     47   O  IDS C   3     105.810 157.379 107.9550  0.00  0.00     0.000 O
ATOM     48   S  IDS C   3     106.599 158.765 107.8420  0.00  0.00     0.000 S
ATOM     49   O  IDS C   3     108.004 158.420 107.7910  0.00  0.00     0.000 OA
ATOM     50   O  IDS C   3     106.253 159.498 109.0400  0.00  0.00     0.000 OA
ATOM     51   O  IDS C   3     106.137 159.399 106.6370  0.00  0.00     0.000 OA
ENDBRANCH 40 47
BRANCH 43 52
ATOM     52   C  IDS C   3     104.913 152.748 108.6920  0.00  0.00     0.000 C
ATOM     53   O  IDS C   3     105.862 152.405 109.3580  0.00  0.00     0.000 OA
ATOM     54   O  IDS C   3     103.844 152.209 108.8300  0.00  0.00     0.000 OA
ENDBRANCH 43 52
BRANCH 39 55
ATOM     55  O4  SGN C   4     107.115 154.793 105.6560  0.00  0.00     0.000 O
BRANCH 55 59
ATOM     56  C1  SGN C   4     111.023 153.301 105.6920  0.00  0.00     0.000 C
ATOM     57  C2  SGN C   4     110.872 154.832 105.6480  0.00  0.00     0.000 C
ATOM     58  C3  SGN C   4     109.455 155.246 106.0340  0.00  0.00     0.000 C
ATOM     59  C4  SGN C   4     108.427 154.475 105.2150  0.00  0.00     0.000 C
ATOM     60  C5  SGN C   4     108.685 152.979 105.3850  0.00  0.00     0.000 C
ATOM     61  O5  SGN C   4     110.013 152.692 104.9040  0.00  0.00     0.000 O
ATOM     62   O  SGN C   4     109.300 156.646 105.8430  0.00  0.00     0.000 O
ATOM     64  HD  SGN C   4     110.143 156.542 106.0110  0.00  0.00     0.000 HD
BRANCH 57 66
ATOM     64   N  SGN C   4     112.247 154.994 105.1500  0.00  0.00     0.000 N
ATOM     66  HD  SGN C   4     112.744 155.653 104.8880  0.00  0.00     0.000 HD
ATOM     66   S  SGN C   4     113.247 156.023 105.8480  0.00  0.00     0.000 S
ATOM     67   O  SGN C   4     114.460 156.000 105.1140  0.00  0.00     0.000 OA
ATOM     68   O  SGN C   4     112.544 157.250 105.9990  0.00  0.00     0.000 OA
ATOM     69   O  SGN C   4     113.486 155.405 107.2630  0.00  0.00     0.000 OA
ENDBRANCH 57 66
BRANCH 60 70
ATOM     70   C  SGN C   4     107.717 152.101 104.6230  0.00  0.00     0.000 C
ATOM     71   O  SGN C   4     104.484 150.674 105.8930  0.00  0.00     0.000 OA
ATOM     72   O  SGN C   4     104.783 152.595 104.4540  0.00  0.00     0.000 OA
ATOM     73   O  SGN C   4     106.702 151.584 105.5040  0.00  0.00     0.000 O
ATOM     74   S  SGN C   4     105.271 151.294 104.8520  0.00  0.00     0.000 S
ATOM     75   O  SGN C   4     105.545 150.413 103.7340  0.00  0.00     0.000 OA
ENDBRANCH 60 70
BRANCH 56 76
ATOM     76  O4  IDS C   5     111.426 152.400 106.6070  0.00  0.00     0.000 O
BRANCH 76 80
ATOM     77  C1  IDS C   5     109.051 151.424 109.7800  0.00  0.00     0.000 C
ATOM     78  C2  IDS C   5     110.074 152.523 110.0670  0.00  0.00     0.000 C
ATOM     79  C3  IDS C   5     110.581 153.107 108.7630  0.00  0.00     0.000 C
ATOM     80  C4  IDS C   5     111.361 152.044 107.9960  0.00  0.00     0.000 C
ATOM     81  C5  IDS C   5     110.671 150.683 108.1690  0.00  0.00     0.000 C
ATOM     82  O5  IDS C   5     109.287 150.859 108.4900  0.00  0.00     0.000 O
BRANCH 78 83
ATOM     83   O  IDS C   5     109.462 153.613 110.8630  0.00  0.00     0.000 O
ATOM     84   S  IDS C   5     109.990 153.909 112.3390  0.00  0.00     0.000 S
ATOM     85   O  IDS C   5     110.033 152.636 113.0070  0.00  0.00     0.000 OA
ATOM     86   O  IDS C   5     111.295 154.502 112.1620  0.00  0.00     0.000 OA
ATOM     87   O  IDS C   5     109.037 154.824 112.9180  0.00  0.00     0.000 OA
ENDBRANCH 78 83
BRANCH 81 88
ATOM     88   C  IDS C   5     110.746 149.794 106.9410  0.00  0.00     0.000 C
ATOM     89   O  IDS C   5     109.773 149.643 106.2510  0.00  0.00     0.000 OA
ATOM     90   O  IDS C   5     111.786 149.243 106.6640  0.00  0.00     0.000 OA
ENDBRANCH 81 88
ENDBRANCH 76 80
ENDBRANCH 56 76
ENDBRANCH 55 59
ENDBRANCH 39 55
ENDBRANCH 38 42
ENDBRANCH 18 38
ENDBRANCH 17 21
ENDBRANCH 1 17
TORSDOF 18
ENDMDL
MODEL 83
REMARK VINA RESULT:      -1.5    133.859    140.302
ROOT
ATOM      1  C1  IDS C   1     131.947 141.580 107.5330  0.00  0.00     0.000 C
ATOM      2  C2  IDS C   1     131.430 141.300 106.1200  0.00  0.00     0.000 C
ATOM      3  C3  IDS C   1     130.224 140.371 106.1600  0.00  0.00     0.000 C
ATOM      4  C4  IDS C   1     130.583 139.054 106.8340  0.00  0.00     0.000 C
ATOM      5  C5  IDS C   1     131.507 139.309 108.0210  0.00  0.00     0.000 C
ATOM      6  O5  IDS C   1     131.382 140.662 108.4590  0.00  0.00     0.000 O
ATOM      7   O  IDS C   1     129.756 140.127 104.8260  0.00  0.00     0.000 O
ATOM      9  HD  IDS C   1     129.850 140.855 104.3670  0.00  0.00     0.000 HD
ENDROOT
BRANCH 2 9
ATOM      9   O  IDS C   1     131.006 142.553 105.4550  0.00  0.00     0.000 O
ATOM     10   S  IDS C   1     131.630 142.939 104.0390  0.00  0.00     0.000 S
ATOM     11   O  IDS C   1     131.011 144.189 103.6610  0.00  0.00     0.000 OA
ATOM     12   O  IDS C   1     133.056 143.061 104.2630  0.00  0.00     0.000 OA
ATOM     13   O  IDS C   1     131.290 141.852 103.1480  0.00  0.00     0.000 OA
ENDBRANCH 2 9
BRANCH 5 14
ATOM     14   C  IDS C   1     131.200 138.392 109.1930  0.00  0.00     0.000 C
ATOM     15   O  IDS C   1     132.107 137.963 109.8640  0.00  0.00     0.000 OA
ATOM     16   O  IDS C   1     130.044 138.097 109.4440  0.00  0.00     0.000 OA
ENDBRANCH 5 14
BRANCH 1 17
ATOM     17  O4  SGN C   2     132.321 142.796 107.9430  0.00  0.00     0.000 O
BRANCH 17 21
ATOM     18  C1  SGN C   2     131.904 146.374 110.0750  0.00  0.00     0.000 C
ATOM     19  C2  SGN C   2     130.989 145.216 110.4920  0.00  0.00     0.000 C
ATOM     20  C3  SGN C   2     131.537 143.895 109.9370  0.00  0.00     0.000 C
ATOM     21  C4  SGN C   2     131.750 144.007 108.4320  0.00  0.00     0.000 C
ATOM     22  C5  SGN C   2     132.675 145.186 108.1450  0.00  0.00     0.000 C
ATOM     23  O5  SGN C   2     132.098 146.401 108.6770  0.00  0.00     0.000 O
ATOM     24   O  SGN C   2     130.648 142.836 110.2470  0.00  0.00     0.000 O
ATOM     26  HD  SGN C   2     131.415 143.226 110.1530  0.00  0.00     0.000 HD
BRANCH 19 28
ATOM     26   N  SGN C   2     129.945 145.351 111.5170  0.00  0.00     0.000 N
ATOM     28  HD  SGN C   2     129.511 145.094 110.8140  0.00  0.00     0.000 HD
ATOM     28   O  SGN C   2     129.269 145.186 113.9130  0.00  0.00     0.000 OA
ATOM     29   S  SGN C   2     129.790 144.304 112.7280  0.00  0.00     0.000 S
ATOM     30   O  SGN C   2     128.779 143.386 112.3700  0.00  0.00     0.000 OA
ATOM     31   O  SGN C   2     131.089 143.827 113.0550  0.00  0.00     0.000 OA
ENDBRANCH 19 28
BRANCH 22 32
ATOM     32   C  SGN C   2     132.907 145.421 106.6730  0.00  0.00     0.000 C
ATOM     33   S  SGN C   2     132.745 147.348 104.9690  0.00  0.00     0.000 S
ATOM     34   O  SGN C   2     131.309 147.256 104.8980  0.00  0.00     0.000 OA
ATOM     35   O  SGN C   2     133.243 148.708 104.9340  0.00  0.00     0.000 OA
ATOM     36   O  SGN C   2     133.438 146.459 104.0670  0.00  0.00     0.000 OA
ATOM     37   O  SGN C   2     133.101 146.820 106.4330  0.00  0.00     0.000 O
ENDBRANCH 22 32
BRANCH 18 38
ATOM     38  O4  IDS C   3     133.078 146.767 110.5740  0.00  0.00     0.000 O
BRANCH 38 42
ATOM     39  C1  IDS C   3     136.190 146.378 112.0880  0.00  0.00     0.000 C
ATOM     40  C2  IDS C   3     134.994 145.504 112.4990  0.00  0.00     0.000 C
ATOM     41  C3  IDS C   3     133.777 146.360 112.8450  0.00  0.00     0.000 C
ATOM     42  C4  IDS C   3     133.519 147.411 111.7740  0.00  0.00     0.000 C
ATOM     43  C5  IDS C   3     134.805 148.201 111.5020  0.00  0.00     0.000 C
ATOM     44  O5  IDS C   3     135.825 147.300 111.0740  0.00  0.00     0.000 O
ATOM     45   O  IDS C   3     133.991 146.999 114.1060  0.00  0.00     0.000 O
ATOM     47  HD  IDS C   3     134.605 147.513 114.4350  0.00  0.00     0.000 HD
BRANCH 40 47
ATOM     47   O  IDS C   3     134.603 144.602 111.3890  0.00  0.00     0.000 O
ATOM     48   S  IDS C   3     135.584 143.422 110.9400  0.00  0.00     0.000 S
ATOM     49   O  IDS C   3     136.628 144.049 110.1580  0.00  0.00     0.000 OA
ATOM     50   O  IDS C   3     134.765 142.527 110.1510  0.00  0.00     0.000 OA
ATOM     51   O  IDS C   3     136.077 142.820 112.1490  0.00  0.00     0.000 OA
ENDBRANCH 40 47
BRANCH 43 52
ATOM     52   C  IDS C   3     134.618 149.285 110.4640  0.00  0.00     0.000 C
ATOM     53   O  IDS C   3     135.136 149.175 109.3760  0.00  0.00     0.000 OA
ATOM     54   O  IDS C   3     133.952 150.254 110.7260  0.00  0.00     0.000 OA
ENDBRANCH 43 52
BRANCH 39 55
ATOM     55  O4  SGN C   4     137.092 146.847 112.9490  0.00  0.00     0.000 O
BRANCH 55 59
ATOM     56  C1  SGN C   4     141.053 147.348 111.6980  0.00  0.00     0.000 C
ATOM     57  C2  SGN C   4     140.565 145.900 111.8720  0.00  0.00     0.000 C
ATOM     58  C3  SGN C   4     139.041 145.846 111.9370  0.00  0.00     0.000 C
ATOM     59  C4  SGN C   4     138.513 146.832 112.9730  0.00  0.00     0.000 C
ATOM     60  C5  SGN C   4     139.054 148.223 112.6490  0.00  0.00     0.000 C
ATOM     61  O5  SGN C   4     140.493 148.173 112.7080  0.00  0.00     0.000 O
ATOM     62   O  SGN C   4     138.624 144.523 112.2450  0.00  0.00     0.000 O
ATOM     64  HD  SGN C   4     139.380 144.422 111.8350  0.00  0.00     0.000 HD
BRANCH 57 66
ATOM     64   N  SGN C   4     141.465 145.422 110.8100  0.00  0.00     0.000 N
ATOM     66  HD  SGN C   4     142.313 145.263 110.7340  0.00  0.00     0.000 HD
ATOM     66   S  SGN C   4     142.425 144.172 111.0620  0.00  0.00     0.000 S
ATOM     67   O  SGN C   4     143.205 143.993 109.8920  0.00  0.00     0.000 OA
ATOM     68   O  SGN C   4     143.074 144.390 112.3080  0.00  0.00     0.000 OA
ATOM     69   O  SGN C   4     141.438 142.971 111.2160  0.00  0.00     0.000 OA
ENDBRANCH 57 66
BRANCH 60 70
ATOM     70   C  SGN C   4     138.590 149.298 113.6070  0.00  0.00     0.000 C
ATOM     71   O  SGN C   4     135.574 151.505 113.2310  0.00  0.00     0.000 OA
ATOM     72   O  SGN C   4     135.799 149.542 114.6250  0.00  0.00     0.000 OA
ATOM     73   O  SGN C   4     137.521 150.067 113.0230  0.00  0.00     0.000 O
ATOM     74   S  SGN C   4     136.453 150.690 114.0370  0.00  0.00     0.000 S
ATOM     75   O  SGN C   4     137.242 151.452 114.9840  0.00  0.00     0.000 OA
ENDBRANCH 60 70
BRANCH 56 76
ATOM     76  O4  IDS C   5     141.368 148.139 110.6550  0.00  0.00     0.000 O
BRANCH 76 80
ATOM     77  C1  IDS C   5     138.373 150.091 108.6870  0.00  0.00     0.000 C
ATOM     78  C2  IDS C   5     138.838 148.800 108.0140  0.00  0.00     0.000 C
ATOM     79  C3  IDS C   5     139.603 147.949 109.0080  0.00  0.00     0.000 C
ATOM     80  C4  IDS C   5     140.891 148.663 109.4070  0.00  0.00     0.000 C
ATOM     81  C5  IDS C   5     140.621 150.170 109.5270  0.00  0.00     0.000 C
ATOM     82  O5  IDS C   5     139.234 150.413 109.7790  0.00  0.00     0.000 O
BRANCH 78 83
ATOM     83   O  IDS C   5     137.679 148.019 107.5220  0.00  0.00     0.000 O
ATOM     84   S  IDS C   5     137.652 147.507 106.0110  0.00  0.00     0.000 S
ATOM     85   O  IDS C   5     137.990 148.646 105.2010  0.00  0.00     0.000 OA
ATOM     86   O  IDS C   5     138.640 146.455 105.9510  0.00  0.00     0.000 OA
ATOM     87   O  IDS C   5     136.312 147.024 105.7860  0.00  0.00     0.000 OA
ENDBRANCH 78 83
BRANCH 81 88
ATOM     88   C  IDS C   5     141.413 150.852 110.6270  0.00  0.00     0.000 C
ATOM     89   O  IDS C   5     140.852 151.237 111.6180  0.00  0.00     0.000 OA
ATOM     90   O  IDS C   5     142.606 151.003 110.5010  0.00  0.00     0.000 OA
ENDBRANCH 81 88
ENDBRANCH 76 80
ENDBRANCH 56 76
ENDBRANCH 55 59
ENDBRANCH 39 55
ENDBRANCH 38 42
ENDBRANCH 18 38
ENDBRANCH 17 21
ENDBRANCH 1 17
TORSDOF 18
ENDMDL
MODEL 84
REMARK VINA RESULT:      -1.5    131.008    136.950
ROOT
ATOM      1  C1  IDS C   1     131.124 139.388 105.6330  0.00  0.00     0.000 C
ATOM      2  C2  IDS C   1     130.600 139.447 104.1950  0.00  0.00     0.000 C
ATOM      3  C3  IDS C   1     129.321 138.635 104.0520  0.00  0.00     0.000 C
ATOM      4  C4  IDS C   1     129.561 137.182 104.4400  0.00  0.00     0.000 C
ATOM      5  C5  IDS C   1     130.490 137.110 105.6470  0.00  0.00     0.000 C
ATOM      6  O5  IDS C   1     130.474 138.350 106.3550  0.00  0.00     0.000 O
ATOM      7   O  IDS C   1     128.848 138.709 102.7000  0.00  0.00     0.000 O
ATOM      9  HD  IDS C   1     129.008 139.505 102.3990  0.00  0.00     0.000 HD
ENDROOT
BRANCH 2 9
ATOM      9   O  IDS C   1     130.290 140.841 103.8040  0.00  0.00     0.000 O
ATOM     10   S  IDS C   1     130.956 141.453 102.4910  0.00  0.00     0.000 S
ATOM     11   O  IDS C   1     130.448 142.802 102.3810  0.00  0.00     0.000 OA
ATOM     12   O  IDS C   1     132.386 141.404 102.7200  0.00  0.00     0.000 OA
ATOM     13   O  IDS C   1     130.531 140.603 101.4000  0.00  0.00     0.000 OA
ENDBRANCH 2 9
BRANCH 5 14
ATOM     14   C  IDS C   1     130.095 136.002 106.6090  0.00  0.00     0.000 C
ATOM     15   O  IDS C   1     130.890 135.618 107.4320  0.00  0.00     0.000 OA
ATOM     16   O  IDS C   1     128.982 135.509 106.5400  0.00  0.00     0.000 OA
ENDBRANCH 5 14
BRANCH 1 17
ATOM     17  O4  SGN C   2     131.594 140.457 106.2800  0.00  0.00     0.000 O
BRANCH 17 21
ATOM     18  C1  SGN C   2     131.456 143.567 109.0800  0.00  0.00     0.000 C
ATOM     19  C2  SGN C   2     130.444 142.429 109.2660  0.00  0.00     0.000 C
ATOM     20  C3  SGN C   2     130.886 141.203 108.4580  0.00  0.00     0.000 C
ATOM     21  C4  SGN C   2     131.121 141.591 107.0030  0.00  0.00     0.000 C
ATOM     22  C5  SGN C   2     132.144 142.722 106.9480  0.00  0.00     0.000 C
ATOM     23  O5  SGN C   2     131.665 143.852 107.7130  0.00  0.00     0.000 O
ATOM     24   O  SGN C   2     129.909 140.181 108.5590  0.00  0.00     0.000 O
ATOM     26  HD  SGN C   2     130.707 140.517 108.5390  0.00  0.00     0.000 HD
BRANCH 19 28
ATOM     26   N  SGN C   2     129.427 142.494 110.3250  0.00  0.00     0.000 N
ATOM     28  HD  SGN C   2     128.964 142.502 109.5940  0.00  0.00     0.000 HD
ATOM     28   O  SGN C   2     128.696 141.869 112.6270  0.00  0.00     0.000 OA
ATOM     29   S  SGN C   2     129.065 141.227 111.2470  0.00  0.00     0.000 S
ATOM     30   O  SGN C   2     127.908 140.624 110.7050  0.00  0.00     0.000 OA
ATOM     31   O  SGN C   2     130.249 140.457 111.4070  0.00  0.00     0.000 OA
ENDBRANCH 19 28
BRANCH 22 32
ATOM     32   C  SGN C   2     132.407 143.224 105.5490  0.00  0.00     0.000 C
ATOM     33   S  SGN C   2     132.468 145.461 104.2710  0.00  0.00     0.000 S
ATOM     34   O  SGN C   2     131.030 145.542 104.2070  0.00  0.00     0.000 OA
ATOM     35   O  SGN C   2     133.112 146.737 104.5020  0.00  0.00     0.000 OA
ATOM     36   O  SGN C   2     133.064 144.702 103.1960  0.00  0.00     0.000 OA
ATOM     37   O  SGN C   2     132.755 144.613 105.5920  0.00  0.00     0.000 O
ENDBRANCH 22 32
BRANCH 18 38
ATOM     38  O4  IDS C   3     132.654 143.755 109.6370  0.00  0.00     0.000 O
BRANCH 38 42
ATOM     39  C1  IDS C   3     135.768 143.560 111.1840  0.00  0.00     0.000 C
ATOM     40  C2  IDS C   3     134.486 143.160 111.9320  0.00  0.00     0.000 C
ATOM     41  C3  IDS C   3     133.436 144.268 111.8600  0.00  0.00     0.000 C
ATOM     42  C4  IDS C   3     133.266 144.775 110.4340  0.00  0.00     0.000 C
ATOM     43  C5  IDS C   3     134.634 145.146 109.8480  0.00  0.00     0.000 C
ATOM     44  O5  IDS C   3     135.477 143.996 109.8660  0.00  0.00     0.000 O
ATOM     45   O  IDS C   3     133.827 145.346 112.7120  0.00  0.00     0.000 O
ATOM     47  HD  IDS C   3     134.532 145.844 112.7840  0.00  0.00     0.000 HD
BRANCH 40 47
ATOM     47   O  IDS C   3     133.891 141.943 111.3300  0.00  0.00     0.000 O
ATOM     48   S  IDS C   3     134.429 140.499 111.7580  0.00  0.00     0.000 S
ATOM     49   O  IDS C   3     135.683 140.319 111.0600  0.00  0.00     0.000 OA
ATOM     50   O  IDS C   3     133.412 139.569 111.3180  0.00  0.00     0.000 OA
ATOM     51   O  IDS C   3     134.586 140.531 113.1880  0.00  0.00     0.000 OA
ENDBRANCH 40 47
BRANCH 43 52
ATOM     52   C  IDS C   3     134.540 145.686 108.4390  0.00  0.00     0.000 C
ATOM     53   O  IDS C   3     135.235 145.217 107.5660  0.00  0.00     0.000 OA
ATOM     54   O  IDS C   3     133.773 146.581 108.1910  0.00  0.00     0.000 OA
ENDBRANCH 43 52
BRANCH 39 55
ATOM     55  O4  SGN C   4     136.786 144.203 111.7550  0.00  0.00     0.000 O
BRANCH 55 59
ATOM     56  C1  SGN C   4     140.671 143.383 110.4360  0.00  0.00     0.000 C
ATOM     57  C2  SGN C   4     139.992 142.299 111.2900  0.00  0.00     0.000 C
ATOM     58  C3  SGN C   4     138.486 142.534 111.3670  0.00  0.00     0.000 C
ATOM     59  C4  SGN C   4     138.187 143.968 111.7900  0.00  0.00     0.000 C
ATOM     60  C5  SGN C   4     138.899 144.921 110.8320  0.00  0.00     0.000 C
ATOM     61  O5  SGN C   4     140.316 144.670 110.9150  0.00  0.00     0.000 O
ATOM     62   O  SGN C   4     137.905 141.611 112.2780  0.00  0.00     0.000 O
ATOM     64  HD  SGN C   4     138.605 141.203 111.9720  0.00  0.00     0.000 HD
BRANCH 57 66
ATOM     64   N  SGN C   4     141.243 141.609 110.9370  0.00  0.00     0.000 N
ATOM     66  HD  SGN C   4     141.875 141.201 111.3660  0.00  0.00     0.000 HD
ATOM     66   S  SGN C   4     141.514 140.116 111.4320  0.00  0.00     0.000 S
ATOM     67   O  SGN C   4     142.811 139.751 110.9920  0.00  0.00     0.000 OA
ATOM     68   O  SGN C   4     141.210 140.076 112.8210  0.00  0.00     0.000 OA
ATOM     69   O  SGN C   4     140.448 139.271 110.6630  0.00  0.00     0.000 OA
ENDBRANCH 57 66
BRANCH 60 70
ATOM     70   C  SGN C   4     138.670 146.384 111.1440  0.00  0.00     0.000 C
ATOM     71   O  SGN C   4     135.965 148.590 109.7570  0.00  0.00     0.000 OA
ATOM     72   O  SGN C   4     136.037 147.537 111.9330  0.00  0.00     0.000 OA
ATOM     73   O  SGN C   4     137.671 146.937 110.2660  0.00  0.00     0.000 O
ATOM     74   S  SGN C   4     136.789 148.135 110.8530  0.00  0.00     0.000 S
ATOM     75   O  SGN C   4     137.754 149.121 111.2990  0.00  0.00     0.000 OA
ENDBRANCH 60 70
BRANCH 56 76
ATOM     76  O4  IDS C   5     141.018 143.511 109.1420  0.00  0.00     0.000 O
BRANCH 76 80
ATOM     77  C1  IDS C   5     138.310 144.768 106.3590  0.00  0.00     0.000 C
ATOM     78  C2  IDS C   5     138.434 143.250 106.4830  0.00  0.00     0.000 C
ATOM     79  C3  IDS C   5     139.101 142.894 107.7970  0.00  0.00     0.000 C
ATOM     80  C4  IDS C   5     140.540 143.400 107.7930  0.00  0.00     0.000 C
ATOM     81  C5  IDS C   5     140.597 144.764 107.0900  0.00  0.00     0.000 C
ATOM     82  O5  IDS C   5     139.321 145.408 107.1380  0.00  0.00     0.000 O
BRANCH 78 83
ATOM     83   O  IDS C   5     137.097 142.611 106.4480  0.00  0.00     0.000 O
ATOM     84   S  IDS C   5     136.795 141.462 105.3840  0.00  0.00     0.000 S
ATOM     85   O  IDS C   5     137.247 141.968 104.1160  0.00  0.00     0.000 OA
ATOM     86   O  IDS C   5     137.549 140.317 105.8400  0.00  0.00     0.000 OA
ATOM     87   O  IDS C   5     135.370 141.245 105.4360  0.00  0.00     0.000 OA
ENDBRANCH 78 83
BRANCH 81 88
ATOM     88   C  IDS C   5     141.615 145.721 107.6840  0.00  0.00     0.000 C
ATOM     89   O  IDS C   5     142.785 145.567 107.4570  0.00  0.00     0.000 OA
ATOM     90   O  IDS C   5     141.241 146.634 108.3840  0.00  0.00     0.000 OA
ENDBRANCH 81 88
ENDBRANCH 76 80
ENDBRANCH 56 76
ENDBRANCH 55 59
ENDBRANCH 39 55
ENDBRANCH 38 42
ENDBRANCH 18 38
ENDBRANCH 17 21
ENDBRANCH 1 17
TORSDOF 18
ENDMDL
MODEL 85
REMARK VINA RESULT:      -1.5    149.440    155.920
ROOT
ATOM      1  C1  IDS C   1     105.502 158.964 114.4400  0.00  0.00     0.000 C
ATOM      2  C2  IDS C   1     106.015 158.767 115.8700  0.00  0.00     0.000 C
ATOM      3  C3  IDS C   1     105.104 159.464 116.8710  0.00  0.00     0.000 C
ATOM      4  C4  IDS C   1     105.015 160.953 116.5690  0.00  0.00     0.000 C
ATOM      5  C5  IDS C   1     104.961 161.180 115.0620  0.00  0.00     0.000 C
ATOM      6  O5  IDS C   1     104.522 159.993 114.4020  0.00  0.00     0.000 O
ATOM      7   O  IDS C   1     105.602 159.262 118.2010  0.00  0.00     0.000 O
ATOM      9  HD  IDS C   1     105.931 158.463 118.2500  0.00  0.00     0.000 HD
ENDROOT
BRANCH 2 9
ATOM      9   O  IDS C   1     106.051 157.330 116.2240  0.00  0.00     0.000 O
ATOM     10   S  IDS C   1     107.408 156.690 116.7630  0.00  0.00     0.000 S
ATOM     11   O  IDS C   1     107.113 155.299 117.0270  0.00  0.00     0.000 OA
ATOM     12   O  IDS C   1     108.373 156.869 115.6970  0.00  0.00     0.000 OA
ATOM     13   O  IDS C   1     107.746 157.429 117.9590  0.00  0.00     0.000 OA
ENDBRANCH 2 9
BRANCH 5 14
ATOM     14   C  IDS C   1     104.024 162.315 114.6850  0.00  0.00     0.000 C
ATOM     15   O  IDS C   1     104.114 163.374 115.2570  0.00  0.00     0.000 OA
ATOM     16   O  IDS C   1     103.188 162.145 113.8140  0.00  0.00     0.000 OA
ENDBRANCH 5 14
BRANCH 1 17
ATOM     17  O4  SGN C   2     105.473 157.980 113.5370  0.00  0.00     0.000 O
BRANCH 17 21
ATOM     18  C1  SGN C   2     103.666 155.032 111.1760  0.00  0.00     0.000 C
ATOM     19  C2  SGN C   2     102.738 156.099 111.7730  0.00  0.00     0.000 C
ATOM     20  C3  SGN C   2     103.564 157.307 112.2320  0.00  0.00     0.000 C
ATOM     21  C4  SGN C   2     104.676 156.856 113.1720  0.00  0.00     0.000 C
ATOM     22  C5  SGN C   2     105.528 155.805 112.4670  0.00  0.00     0.000 C
ATOM     23  O5  SGN C   2     104.699 154.687 112.0740  0.00  0.00     0.000 O
ATOM     24   O  SGN C   2     102.720 158.256 112.8620  0.00  0.00     0.000 O
ATOM     26  HD  SGN C   2     103.358 157.981 112.3450  0.00  0.00     0.000 HD
BRANCH 19 28
ATOM     26   N  SGN C   2     101.556 155.974 110.9080  0.00  0.00     0.000 N
ATOM     28  HD  SGN C   2     101.875 155.170 110.9380  0.00  0.00     0.000 HD
ATOM     28   O  SGN C   2      99.246 156.714 110.3290  0.00  0.00     0.000 OA
ATOM     29   S  SGN C   2     100.058 156.043 111.4870  0.00  0.00     0.000 S
ATOM     30   O  SGN C   2      99.603 154.716 111.6480  0.00  0.00     0.000 OA
ATOM     31   O  SGN C   2     100.067 156.923 112.6040  0.00  0.00     0.000 OA
ENDBRANCH 19 28
BRANCH 22 32
ATOM     32   C  SGN C   2     106.629 155.247 113.3360  0.00  0.00     0.000 C
ATOM     33   S  SGN C   2     107.612 152.954 113.9850  0.00  0.00     0.000 S
ATOM     34   O  SGN C   2     106.527 152.669 114.8900  0.00  0.00     0.000 OA
ATOM     35   O  SGN C   2     108.061 151.801 113.2340  0.00  0.00     0.000 OA
ATOM     36   O  SGN C   2     108.690 153.710 114.5770  0.00  0.00     0.000 OA
ATOM     37   O  SGN C   2     106.968 153.927 112.8940  0.00  0.00     0.000 O
ENDBRANCH 22 32
BRANCH 18 38
ATOM     38  O4  IDS C   3     104.244 154.968 109.9750  0.00  0.00     0.000 O
BRANCH 38 42
ATOM     39  C1  IDS C   3     105.247 155.585 106.6970  0.00  0.00     0.000 C
ATOM     40  C2  IDS C   3     103.766 155.666 107.1010  0.00  0.00     0.000 C
ATOM     41  C3  IDS C   3     103.319 154.396 107.8230  0.00  0.00     0.000 C
ATOM     42  C4  IDS C   3     104.305 154.007 108.9160  0.00  0.00     0.000 C
ATOM     43  C5  IDS C   3     105.725 153.953 108.3390  0.00  0.00     0.000 C
ATOM     44  O5  IDS C   3     106.060 155.233 107.8040  0.00  0.00     0.000 O
ATOM     45   O  IDS C   3     103.202 153.331 106.8780  0.00  0.00     0.000 O
ATOM     47  HD  IDS C   3     103.732 152.967 106.2970  0.00  0.00     0.000 HD
BRANCH 40 47
ATOM     47   O  IDS C   3     103.540 156.805 108.0240  0.00  0.00     0.000 O
ATOM     48   S  IDS C   3     102.216 157.691 107.8850  0.00  0.00     0.000 S
ATOM     49   O  IDS C   3     102.437 158.560 106.7490  0.00  0.00     0.000 OA
ATOM     50   O  IDS C   3     102.115 158.421 109.1290  0.00  0.00     0.000 OA
ATOM     51   O  IDS C   3     101.130 156.770 107.6790  0.00  0.00     0.000 OA
ENDBRANCH 40 47
BRANCH 43 52
ATOM     52   C  IDS C   3     106.759 153.545 109.3640  0.00  0.00     0.000 C
ATOM     53   O  IDS C   3     106.660 152.480 109.9300  0.00  0.00     0.000 OA
ATOM     54   O  IDS C   3     107.678 154.283 109.6120  0.00  0.00     0.000 OA
ENDBRANCH 43 52
BRANCH 39 55
ATOM     55  O4  SGN C   4     105.669 155.089 105.5340  0.00  0.00     0.000 O
BRANCH 55 59
ATOM     56  C1  SGN C   4     109.459 156.418 104.3610  0.00  0.00     0.000 C
ATOM     57  C2  SGN C   4     108.254 157.200 103.8090  0.00  0.00     0.000 C
ATOM     58  C3  SGN C   4     106.991 156.880 104.6040  0.00  0.00     0.000 C
ATOM     59  C4  SGN C   4     106.787 155.373 104.7060  0.00  0.00     0.000 C
ATOM     60  C5  SGN C   4     108.047 154.746 105.2980  0.00  0.00     0.000 C
ATOM     61  O5  SGN C   4     109.152 155.034 104.4180  0.00  0.00     0.000 O
ATOM     62   O  SGN C   4     105.870 157.497 103.9840  0.00  0.00     0.000 O
ATOM     64  HD  SGN C   4     106.540 158.006 103.7760  0.00  0.00     0.000 HD
BRANCH 57 66
ATOM     64   N  SGN C   4     107.977 158.221 102.7860  0.00  0.00     0.000 N
ATOM     66  HD  SGN C   4     107.990 159.086 102.7460  0.00  0.00     0.000 HD
ATOM     66   S  SGN C   4     109.064 159.336 102.4360  0.00  0.00     0.000 S
ATOM     67   O  SGN C   4     108.490 160.201 101.4710  0.00  0.00     0.000 OA
ATOM     68   O  SGN C   4     109.521 159.872 103.6710  0.00  0.00     0.000 OA
ATOM     69   O  SGN C   4     110.228 158.526 101.7800  0.00  0.00     0.000 OA
ENDBRANCH 57 66
BRANCH 60 70
ATOM     70   C  SGN C   4     107.964 153.244 105.4590  0.00  0.00     0.000 C
ATOM     71   O  SGN C   4     110.824 150.872 106.0120  0.00  0.00     0.000 OA
ATOM     72   O  SGN C   4     109.272 151.720 107.6620  0.00  0.00     0.000 OA
ATOM     73   O  SGN C   4     109.281 152.660 105.4430  0.00  0.00     0.000 O
ATOM     74   S  SGN C   4     109.478 151.317 106.2890  0.00  0.00     0.000 S
ATOM     75   O  SGN C   4     108.458 150.415 105.7930  0.00  0.00     0.000 OA
ENDBRANCH 60 70
BRANCH 56 76
ATOM     76  O4  IDS C   5     110.431 156.657 105.2600  0.00  0.00     0.000 O
BRANCH 76 80
ATOM     77  C1  IDS C   5     112.679 156.705 108.6660  0.00  0.00     0.000 C
ATOM     78  C2  IDS C   5     111.179 156.889 108.8930  0.00  0.00     0.000 C
ATOM     79  C3  IDS C   5     110.413 156.425 107.6700  0.00  0.00     0.000 C
ATOM     80  C4  IDS C   5     110.739 157.333 106.4880  0.00  0.00     0.000 C
ATOM     81  C5  IDS C   5     112.226 157.711 106.5330  0.00  0.00     0.000 C
ATOM     82  O5  IDS C   5     112.971 156.736 107.2690  0.00  0.00     0.000 O
BRANCH 78 83
ATOM     83   O  IDS C   5     110.725 156.096 110.0600  0.00  0.00     0.000 O
ATOM     84   S  IDS C   5     110.027 156.828 111.2930  0.00  0.00     0.000 S
ATOM     85   O  IDS C   5     110.876 157.941 111.6240  0.00  0.00     0.000 OA
ATOM     86   O  IDS C   5     108.727 157.229 110.8090  0.00  0.00     0.000 OA
ATOM     87   O  IDS C   5     109.949 155.840 112.3410  0.00  0.00     0.000 OA
ENDBRANCH 78 83
BRANCH 81 88
ATOM     88   C  IDS C   5     112.870 157.843 105.1650  0.00  0.00     0.000 C
ATOM     89   O  IDS C   5     112.633 158.802 104.4810  0.00  0.00     0.000 OA
ATOM     90   O  IDS C   5     113.621 156.979 104.7710  0.00  0.00     0.000 OA
ENDBRANCH 81 88
ENDBRANCH 76 80
ENDBRANCH 56 76
ENDBRANCH 55 59
ENDBRANCH 39 55
ENDBRANCH 38 42
ENDBRANCH 18 38
ENDBRANCH 17 21
ENDBRANCH 1 17
TORSDOF 18
ENDMDL
MODEL 86
REMARK VINA RESULT:      -1.5    132.234    139.026
ROOT
ATOM      1  C1  IDS C   1     129.611 139.432 104.9980  0.00  0.00     0.000 C
ATOM      2  C2  IDS C   1     129.362 139.369 103.4890  0.00  0.00     0.000 C
ATOM      3  C3  IDS C   1     127.907 139.034 103.1950  0.00  0.00     0.000 C
ATOM      4  C4  IDS C   1     127.524 137.701 103.8230  0.00  0.00     0.000 C
ATOM      5  C5  IDS C   1     128.173 137.565 105.1970  0.00  0.00     0.000 C
ATOM      6  O5  IDS C   1     128.521 138.853 105.7050  0.00  0.00     0.000 O
ATOM      7   O  IDS C   1     127.697 138.985 101.7760  0.00  0.00     0.000 O
ATOM      9  HD  IDS C   1     128.186 139.598 101.4080  0.00  0.00     0.000 HD
ENDROOT
BRANCH 2 9
ATOM      9   O  IDS C   1     129.658 140.671 102.8510  0.00  0.00     0.000 O
ATOM     10   S  IDS C   1     130.689 140.732 101.6350  0.00  0.00     0.000 S
ATOM     11   O  IDS C   1     130.747 142.120 101.2340  0.00  0.00     0.000 OA
ATOM     12   O  IDS C   1     131.946 140.245 102.1660  0.00  0.00     0.000 OA
ATOM     13   O  IDS C   1     130.139 139.874 100.6090  0.00  0.00     0.000 OA
ENDBRANCH 2 9
BRANCH 5 14
ATOM     14   C  IDS C   1     127.255 136.885 106.1990  0.00  0.00     0.000 C
ATOM     15   O  IDS C   1     127.671 136.621 107.3010  0.00  0.00     0.000 OA
ATOM     16   O  IDS C   1     126.110 136.609 105.8810  0.00  0.00     0.000 OA
ENDBRANCH 5 14
BRANCH 1 17
ATOM     17  O4  SGN C   2     130.349 140.384 105.5750  0.00  0.00     0.000 O
BRANCH 17 21
ATOM     18  C1  SGN C   2     130.976 143.847 107.8420  0.00  0.00     0.000 C
ATOM     19  C2  SGN C   2     129.596 143.189 107.9600  0.00  0.00     0.000 C
ATOM     20  C3  SGN C   2     129.659 141.750 107.4340  0.00  0.00     0.000 C
ATOM     21  C4  SGN C   2     130.236 141.732 106.0230  0.00  0.00     0.000 C
ATOM     22  C5  SGN C   2     131.604 142.407 106.0360  0.00  0.00     0.000 C
ATOM     23  O5  SGN C   2     131.477 143.762 106.5240  0.00  0.00     0.000 O
ATOM     24   O  SGN C   2     128.366 141.169 107.4620  0.00  0.00     0.000 O
ATOM     26  HD  SGN C   2     129.226 141.199 107.5660  0.00  0.00     0.000 HD
BRANCH 19 28
ATOM     26   N  SGN C   2     129.086 143.799 109.1960  0.00  0.00     0.000 N
ATOM     28  HD  SGN C   2     129.529 144.440 108.8190  0.00  0.00     0.000 HD
ATOM     28   O  SGN C   2     127.288 143.953 110.9190  0.00  0.00     0.000 OA
ATOM     29   S  SGN C   2     127.536 144.181 109.3900  0.00  0.00     0.000 S
ATOM     30   O  SGN C   2     127.399 145.559 109.1100  0.00  0.00     0.000 OA
ATOM     31   O  SGN C   2     126.764 143.236 108.6590  0.00  0.00     0.000 OA
ENDBRANCH 19 28
BRANCH 22 32
ATOM     32   C  SGN C   2     132.241 142.494 104.6700  0.00  0.00     0.000 C
ATOM     33   S  SGN C   2     133.275 144.278 103.1240  0.00  0.00     0.000 S
ATOM     34   O  SGN C   2     131.984 144.789 102.7370  0.00  0.00     0.000 OA
ATOM     35   O  SGN C   2     134.278 145.307 103.3010  0.00  0.00     0.000 OA
ATOM     36   O  SGN C   2     133.730 143.163 102.3270  0.00  0.00     0.000 OA
ATOM     37   O  SGN C   2     133.039 143.681 104.5860  0.00  0.00     0.000 O
ENDBRANCH 22 32
BRANCH 18 38
ATOM     38  O4  IDS C   3     132.060 143.719 108.6100  0.00  0.00     0.000 O
BRANCH 38 42
ATOM     39  C1  IDS C   3     134.989 145.546 109.0770  0.00  0.00     0.000 C
ATOM     40  C2  IDS C   3     134.960 144.025 109.3000  0.00  0.00     0.000 C
ATOM     41  C3  IDS C   3     133.828 143.627 110.2470  0.00  0.00     0.000 C
ATOM     42  C4  IDS C   3     132.515 144.284 109.8440  0.00  0.00     0.000 C
ATOM     43  C5  IDS C   3     132.719 145.796 109.6840  0.00  0.00     0.000 C
ATOM     44  O5  IDS C   3     133.714 146.030 108.6900  0.00  0.00     0.000 O
ATOM     45   O  IDS C   3     134.170 144.011 111.5810  0.00  0.00     0.000 O
ATOM     47  HD  IDS C   3     134.402 144.753 111.9640  0.00  0.00     0.000 HD
BRANCH 40 47
ATOM     47   O  IDS C   3     134.737 143.315 108.0180  0.00  0.00     0.000 O
ATOM     48   S  IDS C   3     135.917 143.225 106.9430  0.00  0.00     0.000 S
ATOM     49   O  IDS C   3     135.970 144.520 106.3000  0.00  0.00     0.000 OA
ATOM     50   O  IDS C   3     135.523 142.171 106.0330  0.00  0.00     0.000 OA
ATOM     51   O  IDS C   3     137.115 142.919 107.6790  0.00  0.00     0.000 OA
ENDBRANCH 40 47
BRANCH 43 52
ATOM     52   C  IDS C   3     131.445 146.522 109.3110  0.00  0.00     0.000 C
ATOM     53   O  IDS C   3     130.469 146.429 110.0180  0.00  0.00     0.000 OA
ATOM     54   O  IDS C   3     131.411 147.190 108.3090  0.00  0.00     0.000 OA
ENDBRANCH 43 52
BRANCH 39 55
ATOM     55  O4  SGN C   4     135.682 146.391 109.8400  0.00  0.00     0.000 O
BRANCH 55 59
ATOM     56  C1  SGN C   4     137.667 149.570 107.9790  0.00  0.00     0.000 C
ATOM     57  C2  SGN C   4     138.299 148.177 107.8200  0.00  0.00     0.000 C
ATOM     58  C3  SGN C   4     137.300 147.083 108.1890  0.00  0.00     0.000 C
ATOM     59  C4  SGN C   4     136.684 147.357 109.5560  0.00  0.00     0.000 C
ATOM     60  C5  SGN C   4     136.071 148.756 109.5460  0.00  0.00     0.000 C
ATOM     61  O5  SGN C   4     137.120 149.708 109.2810  0.00  0.00     0.000 O
ATOM     62   O  SGN C   4     137.952 145.820 108.1770  0.00  0.00     0.000 O
ATOM     64  HD  SGN C   4     138.393 146.297 107.6040  0.00  0.00     0.000 HD
BRANCH 57 66
ATOM     64   N  SGN C   4     138.963 148.796 106.6620  0.00  0.00     0.000 N
ATOM     66  HD  SGN C   4     139.736 149.151 106.5000  0.00  0.00     0.000 HD
ATOM     66   S  SGN C   4     140.385 148.269 106.1640  0.00  0.00     0.000 S
ATOM     67   O  SGN C   4     140.789 149.094 105.0840  0.00  0.00     0.000 OA
ATOM     68   O  SGN C   4     141.216 148.166 107.3130  0.00  0.00     0.000 OA
ATOM     69   O  SGN C   4     140.083 146.831 105.6340  0.00  0.00     0.000 OA
ENDBRANCH 57 66
BRANCH 60 70
ATOM     70   C  SGN C   4     135.414 149.144 110.8530  0.00  0.00     0.000 C
ATOM     71   O  SGN C   4     137.141 150.028 114.0690  0.00  0.00     0.000 OA
ATOM     72   O  SGN C   4     136.163 151.542 112.4560  0.00  0.00     0.000 OA
ATOM     73   O  SGN C   4     136.392 149.207 111.9100  0.00  0.00     0.000 O
ATOM     74   S  SGN C   4     136.100 150.245 113.0910  0.00  0.00     0.000 S
ATOM     75   O  SGN C   4     134.777 149.900 113.5690  0.00  0.00     0.000 OA
ENDBRANCH 60 70
BRANCH 56 76
ATOM     76  O4  IDS C   5     137.018 150.430 107.1720  0.00  0.00     0.000 O
BRANCH 76 80
ATOM     77  C1  IDS C   5     132.937 150.409 107.2270  0.00  0.00     0.000 C
ATOM     78  C2  IDS C   5     133.560 149.650 106.0550  0.00  0.00     0.000 C
ATOM     79  C3  IDS C   5     135.014 149.343 106.3560  0.00  0.00     0.000 C
ATOM     80  C4  IDS C   5     135.804 150.646 106.4370  0.00  0.00     0.000 C
ATOM     81  C5  IDS C   5     134.947 151.719 107.1210  0.00  0.00     0.000 C
ATOM     82  O5  IDS C   5     133.948 151.114 107.9480  0.00  0.00     0.000 O
BRANCH 78 83
ATOM     83   O  IDS C   5     132.849 148.371 105.8240  0.00  0.00     0.000 O
ATOM     84   S  IDS C   5     131.842 148.234 104.5940  0.00  0.00     0.000 S
ATOM     85   O  IDS C   5     130.986 149.389 104.6540  0.00  0.00     0.000 OA
ATOM     86   O  IDS C   5     132.682 148.210 103.4190  0.00  0.00     0.000 OA
ATOM     87   O  IDS C   5     131.139 146.992 104.8010  0.00  0.00     0.000 OA
ENDBRANCH 78 83
BRANCH 81 88
ATOM     88   C  IDS C   5     135.739 152.679 107.9900  0.00  0.00     0.000 C
ATOM     89   O  IDS C   5     136.446 153.505 107.4790  0.00  0.00     0.000 OA
ATOM     90   O  IDS C   5     135.653 152.607 109.1950  0.00  0.00     0.000 OA
ENDBRANCH 81 88
ENDBRANCH 76 80
ENDBRANCH 56 76
ENDBRANCH 55 59
ENDBRANCH 39 55
ENDBRANCH 38 42
ENDBRANCH 18 38
ENDBRANCH 17 21
ENDBRANCH 1 17
TORSDOF 18
ENDMDL
MODEL 87
REMARK VINA RESULT:      -1.5    172.003    180.973
ROOT
ATOM      1  C1  IDS C   1      71.783  98.606 186.7570  0.00  0.00     0.000 C
ATOM      2  C2  IDS C   1      72.489  98.548 185.4000  0.00  0.00     0.000 C
ATOM      3  C3  IDS C   1      71.788  97.572 184.4670  0.00  0.00     0.000 C
ATOM      4  C4  IDS C   1      71.753  96.177 185.0750  0.00  0.00     0.000 C
ATOM      5  C5  IDS C   1      71.490  96.267 186.5750  0.00  0.00     0.000 C
ATOM      6  O5  IDS C   1      70.878  97.517 186.8920  0.00  0.00     0.000 O
ATOM      7   O  IDS C   1      72.464  97.538 183.2020  0.00  0.00     0.000 O
ATOM      9  HD  IDS C   1      72.743  98.338 183.0210  0.00  0.00     0.000 HD
ENDROOT
BRANCH 2 9
ATOM      9   O  IDS C   1      72.482  99.875 184.7450  0.00  0.00     0.000 O
ATOM     10   S  IDS C   1      73.861 100.525 184.2760  0.00  0.00     0.000 S
ATOM     11   O  IDS C   1      73.516 101.792 183.6710  0.00  0.00     0.000 OA
ATOM     12   O  IDS C   1      74.652 100.672 185.4810  0.00  0.00     0.000 OA
ATOM     13   O  IDS C   1      74.437  99.591 183.3330  0.00  0.00     0.000 OA
ENDBRANCH 2 9
BRANCH 5 14
ATOM     14   C  IDS C   1      70.584  95.150 187.0660  0.00  0.00     0.000 C
ATOM     15   O  IDS C   1      69.593  95.423 187.6980  0.00  0.00     0.000 OA
ATOM     16   O  IDS C   1      70.866  93.989 186.8200  0.00  0.00     0.000 OA
ENDBRANCH 5 14
BRANCH 1 17
ATOM     17  O4  SGN C   2      71.553  99.749 187.4090  0.00  0.00     0.000 O
BRANCH 17 21
ATOM     18  C1  SGN C   2      69.162 102.825 188.9410  0.00  0.00     0.000 C
ATOM     19  C2  SGN C   2      68.438 101.543 188.5090  0.00  0.00     0.000 C
ATOM     20  C3  SGN C   2      69.447 100.395 188.3830  0.00  0.00     0.000 C
ATOM     21  C4  SGN C   2      70.592 100.801 187.4630  0.00  0.00     0.000 C
ATOM     22  C5  SGN C   2      71.232 102.079 187.9970  0.00  0.00     0.000 C
ATOM     23  O5  SGN C   2      70.238 103.126 188.0780  0.00  0.00     0.000 O
ATOM     24   O  SGN C   2      68.796  99.232 187.9000  0.00  0.00     0.000 O
ATOM     26  HD  SGN C   2      69.337  99.690 188.3980  0.00  0.00     0.000 HD
BRANCH 19 28
ATOM     26   N  SGN C   2      67.160 101.675 189.2220  0.00  0.00     0.000 N
ATOM     28  HD  SGN C   2      67.377 102.493 189.0360  0.00  0.00     0.000 HD
ATOM     28   O  SGN C   2      64.909 100.746 189.7610  0.00  0.00     0.000 OA
ATOM     29   S  SGN C   2      65.757 101.266 188.5520  0.00  0.00     0.000 S
ATOM     30   O  SGN C   2      65.161 102.447 188.0560  0.00  0.00     0.000 OA
ATOM     31   O  SGN C   2      66.001 100.178 187.6690  0.00  0.00     0.000 OA
ENDBRANCH 19 28
BRANCH 22 32
ATOM     32   C  SGN C   2      72.346 102.602 187.1240  0.00  0.00     0.000 C
ATOM     33   S  SGN C   2      73.838 104.694 186.9300  0.00  0.00     0.000 S
ATOM     34   O  SGN C   2      72.783 105.476 186.3370  0.00  0.00     0.000 OA
ATOM     35   O  SGN C   2      74.658 105.437 187.8640  0.00  0.00     0.000 OA
ATOM     36   O  SGN C   2      74.604 103.922 185.9800  0.00  0.00     0.000 OA
ATOM     37   O  SGN C   2      73.073 103.616 187.8260  0.00  0.00     0.000 O
ENDBRANCH 22 32
BRANCH 18 38
ATOM     38  O4  IDS C   3      69.595 103.206 190.1450  0.00  0.00     0.000 O
BRANCH 38 42
ATOM     39  C1  IDS C   3      70.416 104.731 193.1660  0.00  0.00     0.000 C
ATOM     40  C2  IDS C   3      71.492 104.439 192.1080  0.00  0.00     0.000 C
ATOM     41  C3  IDS C   3      71.451 102.976 191.6680  0.00  0.00     0.000 C
ATOM     42  C4  IDS C   3      70.030 102.541 191.3360  0.00  0.00     0.000 C
ATOM     43  C5  IDS C   3      69.095 102.888 192.5000  0.00  0.00     0.000 C
ATOM     44  O5  IDS C   3      69.139 104.296 192.7300  0.00  0.00     0.000 O
ATOM     45   O  IDS C   3      71.976 102.152 192.7100  0.00  0.00     0.000 O
ATOM     47  HD  IDS C   3      71.795 102.037 193.5500  0.00  0.00     0.000 HD
BRANCH 40 47
ATOM     47   O  IDS C   3      71.277 105.273 190.9020  0.00  0.00     0.000 O
ATOM     48   S  IDS C   3      72.187 106.565 190.6560  0.00  0.00     0.000 S
ATOM     49   O  IDS C   3      71.675 107.587 191.5430  0.00  0.00     0.000 OA
ATOM     50   O  IDS C   3      72.002 106.900 189.2610  0.00  0.00     0.000 OA
ATOM     51   O  IDS C   3      73.537 106.178 190.9710  0.00  0.00     0.000 OA
ENDBRANCH 40 47
BRANCH 43 52
ATOM     52   C  IDS C   3      67.666 102.459 192.2530  0.00  0.00     0.000 C
ATOM     53   O  IDS C   3      67.368 101.288 192.3210  0.00  0.00     0.000 OA
ATOM     54   O  IDS C   3      66.831 103.286 191.9890  0.00  0.00     0.000 OA
ENDBRANCH 43 52
BRANCH 39 55
ATOM     55  O4  SGN C   4      70.615 104.603 194.4780  0.00  0.00     0.000 O
BRANCH 55 59
ATOM     56  C1  SGN C   4      68.614 107.437 196.8150  0.00  0.00     0.000 C
ATOM     57  C2  SGN C   4      70.069 107.762 196.4370  0.00  0.00     0.000 C
ATOM     58  C3  SGN C   4      70.540 106.875 195.2880  0.00  0.00     0.000 C
ATOM     59  C4  SGN C   4      70.268 105.407 195.5960  0.00  0.00     0.000 C
ATOM     60  C5  SGN C   4      68.785 105.239 195.9180  0.00  0.00     0.000 C
ATOM     61  O5  SGN C   4      68.478 106.048 197.0710  0.00  0.00     0.000 O
ATOM     62   O  SGN C   4      71.926 107.090 195.0580  0.00  0.00     0.000 O
ATOM     64  HD  SGN C   4      71.641 107.841 195.3820  0.00  0.00     0.000 HD
BRANCH 57 66
ATOM     64   N  SGN C   4      70.170 108.744 197.5280  0.00  0.00     0.000 N
ATOM     66  HD  SGN C   4      70.791 109.245 197.8630  0.00  0.00     0.000 HD
ATOM     66   S  SGN C   4      70.733 110.211 197.2510  0.00  0.00     0.000 S
ATOM     67   O  SGN C   4      70.766 110.895 198.4920  0.00  0.00     0.000 OA
ATOM     68   O  SGN C   4      71.933 110.062 196.5020  0.00  0.00     0.000 OA
ATOM     69   O  SGN C   4      69.647 110.857 196.3320  0.00  0.00     0.000 OA
ENDBRANCH 57 66
BRANCH 60 70
ATOM     70   C  SGN C   4      68.386 103.814 196.2350  0.00  0.00     0.000 C
ATOM     71   O  SGN C   4      65.080 102.643 197.5780  0.00  0.00     0.000 OA
ATOM     72   O  SGN C   4      65.865 102.533 195.2940  0.00  0.00     0.000 OA
ATOM     73   O  SGN C   4      67.121 103.785 196.9240  0.00  0.00     0.000 O
ATOM     74   S  SGN C   4      66.213 102.489 196.6960  0.00  0.00     0.000 S
ATOM     75   O  SGN C   4      67.069 101.372 197.0440  0.00  0.00     0.000 OA
ENDBRANCH 60 70
BRANCH 56 76
ATOM     76  O4  IDS C   5      67.401 107.907 196.4690  0.00  0.00     0.000 O
BRANCH 76 80
ATOM     77  C1  IDS C   5      65.093 105.903 193.7640  0.00  0.00     0.000 C
ATOM     78  C2  IDS C   5      65.939 107.028 193.1660  0.00  0.00     0.000 C
ATOM     79  C3  IDS C   5      67.052 107.400 194.1260  0.00  0.00     0.000 C
ATOM     80  C4  IDS C   5      66.452 107.999 195.3960  0.00  0.00     0.000 C
ATOM     81  C5  IDS C   5      65.163 107.245 195.7540  0.00  0.00     0.000 C
ATOM     82  O5  IDS C   5      65.176 105.931 195.1880  0.00  0.00     0.000 O
BRANCH 78 83
ATOM     83   O  IDS C   5      66.549 106.601 191.8850  0.00  0.00     0.000 O
ATOM     84   S  IDS C   5      66.221 107.402 190.5450  0.00  0.00     0.000 S
ATOM     85   O  IDS C   5      64.789 107.540 190.5070  0.00  0.00     0.000 OA
ATOM     86   O  IDS C   5      66.909 108.664 190.6810  0.00  0.00     0.000 OA
ATOM     87   O  IDS C   5      66.744 106.596 189.4700  0.00  0.00     0.000 OA
ENDBRANCH 78 83
BRANCH 81 88
ATOM     88   C  IDS C   5      64.930 107.099 197.2460  0.00  0.00     0.000 C
ATOM     89   O  IDS C   5      64.577 108.048 197.8930  0.00  0.00     0.000 OA
ATOM     90   O  IDS C   5      65.100 106.025 197.7770  0.00  0.00     0.000 OA
ENDBRANCH 81 88
ENDBRANCH 76 80
ENDBRANCH 56 76
ENDBRANCH 55 59
ENDBRANCH 39 55
ENDBRANCH 38 42
ENDBRANCH 18 38
ENDBRANCH 17 21
ENDBRANCH 1 17
TORSDOF 18
ENDMDL
MODEL 88
REMARK VINA RESULT:      -1.5    195.707    202.409
ROOT
ATOM      1  C1  IDS C   1     136.395 173.439 191.4730  0.00  0.00     0.000 C
ATOM      2  C2  IDS C   1     134.984 173.749 191.9800  0.00  0.00     0.000 C
ATOM      3  C3  IDS C   1     134.891 175.185 192.4760  0.00  0.00     0.000 C
ATOM      4  C4  IDS C   1     135.892 175.433 193.5960  0.00  0.00     0.000 C
ATOM      5  C5  IDS C   1     137.204 174.715 193.2930  0.00  0.00     0.000 C
ATOM      6  O5  IDS C   1     137.306 174.448 191.8940  0.00  0.00     0.000 O
ATOM      7   O  IDS C   1     133.560 175.452 192.9410  0.00  0.00     0.000 O
ATOM      9  HD  IDS C   1     133.003 175.030 192.4290  0.00  0.00     0.000 HD
ENDROOT
BRANCH 2 9
ATOM      9   O  IDS C   1     133.988 173.585 190.8980  0.00  0.00     0.000 O
ATOM     10   S  IDS C   1     132.732 172.629 191.1260  0.00  0.00     0.000 S
ATOM     11   O  IDS C   1     131.956 172.696 189.9080  0.00  0.00     0.000 OA
ATOM     12   O  IDS C   1     133.284 171.313 191.3720  0.00  0.00     0.000 OA
ATOM     13   O  IDS C   1     132.029 173.168 192.2700  0.00  0.00     0.000 OA
ENDBRANCH 2 9
BRANCH 5 14
ATOM     14   C  IDS C   1     138.414 175.531 193.7160  0.00  0.00     0.000 C
ATOM     15   O  IDS C   1     138.268 176.464 194.4670  0.00  0.00     0.000 OA
ATOM     16   O  IDS C   1     139.519 175.238 193.2920  0.00  0.00     0.000 OA
ENDBRANCH 5 14
BRANCH 1 17
ATOM     17  O4  SGN C   2     136.631 172.754 190.3510  0.00  0.00     0.000 O
BRANCH 17 21
ATOM     18  C1  SGN C   2     137.731 172.278 186.3400  0.00  0.00     0.000 C
ATOM     19  C2  SGN C   2     138.150 173.590 187.0160  0.00  0.00     0.000 C
ATOM     20  C3  SGN C   2     138.062 173.440 188.5400  0.00  0.00     0.000 C
ATOM     21  C4  SGN C   2     136.675 172.951 188.9400  0.00  0.00     0.000 C
ATOM     22  C5  SGN C   2     136.377 171.645 188.2110  0.00  0.00     0.000 C
ATOM     23  O5  SGN C   2     136.459 171.853 186.7820  0.00  0.00     0.000 O
ATOM     24   O  SGN C   2     138.365 174.676 189.1640  0.00  0.00     0.000 O
ATOM     26  HD  SGN C   2     138.385 173.818 189.0530  0.00  0.00     0.000 HD
BRANCH 19 28
ATOM     26   N  SGN C   2     139.216 174.054 186.1180  0.00  0.00     0.000 N
ATOM     28  HD  SGN C   2     138.665 173.646 185.5890  0.00  0.00     0.000 HD
ATOM     28   O  SGN C   2     140.938 175.768 185.5510  0.00  0.00     0.000 OA
ATOM     29   S  SGN C   2     139.390 175.601 185.7180  0.00  0.00     0.000 S
ATOM     30   O  SGN C   2     138.777 175.787 184.4580  0.00  0.00     0.000 OA
ATOM     31   O  SGN C   2     138.966 176.384 186.8270  0.00  0.00     0.000 OA
ENDBRANCH 19 28
BRANCH 22 32
ATOM     32   C  SGN C   2     134.998 171.102 188.4930  0.00  0.00     0.000 C
ATOM     33   S  SGN C   2     133.025 170.055 187.2070  0.00  0.00     0.000 S
ATOM     34   O  SGN C   2     132.597 171.331 186.6890  0.00  0.00     0.000 OA
ATOM     35   O  SGN C   2     132.904 168.971 186.2550  0.00  0.00     0.000 OA
ATOM     36   O  SGN C   2     132.489 169.739 188.5100  0.00  0.00     0.000 OA
ATOM     37   O  SGN C   2     134.596 170.229 187.4310  0.00  0.00     0.000 O
ENDBRANCH 22 32
BRANCH 18 38
ATOM     38  O4  IDS C   3     138.411 171.142 186.1680  0.00  0.00     0.000 O
BRANCH 38 42
ATOM     39  C1  IDS C   3     140.974 168.788 186.0420  0.00  0.00     0.000 C
ATOM     40  C2  IDS C   3     141.192 170.223 185.5390  0.00  0.00     0.000 C
ATOM     41  C3  IDS C   3     140.111 170.628 184.5370  0.00  0.00     0.000 C
ATOM     42  C4  IDS C   3     138.721 170.290 185.0600  0.00  0.00     0.000 C
ATOM     43  C5  IDS C   3     138.674 168.822 185.4990  0.00  0.00     0.000 C
ATOM     44  O5  IDS C   3     139.650 168.608 186.5170  0.00  0.00     0.000 O
ATOM     45   O  IDS C   3     140.337 169.952 183.2980  0.00  0.00     0.000 O
ATOM     47  HD  IDS C   3     140.427 169.125 183.0600  0.00  0.00     0.000 HD
BRANCH 40 47
ATOM     47   O  IDS C   3     141.136 171.184 186.6650  0.00  0.00     0.000 O
ATOM     48   S  IDS C   3     142.306 172.258 186.8540  0.00  0.00     0.000 S
ATOM     49   O  IDS C   3     143.420 171.535 187.4300  0.00  0.00     0.000 OA
ATOM     50   O  IDS C   3     141.768 173.254 187.7550  0.00  0.00     0.000 OA
ATOM     51   O  IDS C   3     142.596 172.778 185.5440  0.00  0.00     0.000 OA
ENDBRANCH 40 47
BRANCH 43 52
ATOM     52   C  IDS C   3     137.311 168.406 186.0060  0.00  0.00     0.000 C
ATOM     53   O  IDS C   3     136.361 168.415 185.2580  0.00  0.00     0.000 OA
ATOM     54   O  IDS C   3     137.179 168.066 187.1550  0.00  0.00     0.000 OA
ENDBRANCH 43 52
BRANCH 39 55
ATOM     55  O4  SGN C   4     141.488 167.710 185.4490  0.00  0.00     0.000 O
BRANCH 55 59
ATOM     56  C1  SGN C   4     141.633 164.291 187.8550  0.00  0.00     0.000 C
ATOM     57  C2  SGN C   4     142.884 165.185 187.8560  0.00  0.00     0.000 C
ATOM     58  C3  SGN C   4     142.566 166.561 187.2770  0.00  0.00     0.000 C
ATOM     59  C4  SGN C   4     141.872 166.429 185.9270  0.00  0.00     0.000 C
ATOM     60  C5  SGN C   4     140.637 165.545 186.0940  0.00  0.00     0.000 C
ATOM     61  O5  SGN C   4     141.068 164.248 186.5540  0.00  0.00     0.000 O
ATOM     62   O  SGN C   4     143.766 167.314 187.1520  0.00  0.00     0.000 O
ATOM     64  HD  SGN C   4     143.916 166.774 187.8120  0.00  0.00     0.000 HD
BRANCH 57 66
ATOM     64   N  SGN C   4     143.706 164.083 188.3820  0.00  0.00     0.000 N
ATOM     66  HD  SGN C   4     144.545 163.956 188.5540  0.00  0.00     0.000 HD
ATOM     66   S  SGN C   4     144.668 164.314 189.6340  0.00  0.00     0.000 S
ATOM     67   O  SGN C   4     145.365 163.101 189.8640  0.00  0.00     0.000 OA
ATOM     68   O  SGN C   4     145.402 165.506 189.3810  0.00  0.00     0.000 OA
ATOM     69   O  SGN C   4     143.681 164.576 190.8170  0.00  0.00     0.000 OA
ENDBRANCH 57 66
BRANCH 60 70
ATOM     70   C  SGN C   4     139.852 165.344 184.8160  0.00  0.00     0.000 C
ATOM     71   O  SGN C   4     140.922 163.386 181.7950  0.00  0.00     0.000 OA
ATOM     72   O  SGN C   4     139.390 162.694 183.5340  0.00  0.00     0.000 OA
ATOM     73   O  SGN C   4     140.672 164.714 183.8130  0.00  0.00     0.000 O
ATOM     74   S  SGN C   4     139.916 163.789 182.7510  0.00  0.00     0.000 S
ATOM     75   O  SGN C   4     138.889 164.640 182.1840  0.00  0.00     0.000 OA
ENDBRANCH 60 70
BRANCH 56 76
ATOM     76  O4  IDS C   5     140.654 164.005 188.7330  0.00  0.00     0.000 O
BRANCH 76 80
ATOM     77  C1  IDS C   5     137.099 163.969 190.7370  0.00  0.00     0.000 C
ATOM     78  C2  IDS C   5     137.614 165.364 190.3840  0.00  0.00     0.000 C
ATOM     79  C3  IDS C   5     138.663 165.264 189.2940  0.00  0.00     0.000 C
ATOM     80  C4  IDS C   5     139.885 164.524 189.8290  0.00  0.00     0.000 C
ATOM     81  C5  IDS C   5     139.428 163.384 190.7500  0.00  0.00     0.000 C
ATOM     82  O5  IDS C   5     138.090 162.988 190.4330  0.00  0.00     0.000 O
BRANCH 78 83
ATOM     83   O  IDS C   5     136.509 166.221 189.8940  0.00  0.00     0.000 O
ATOM     84   S  IDS C   5     136.111 167.540 190.6990  0.00  0.00     0.000 S
ATOM     85   O  IDS C   5     135.990 167.141 192.0750  0.00  0.00     0.000 OA
ATOM     86   O  IDS C   5     137.196 168.465 190.4690  0.00  0.00     0.000 OA
ATOM     87   O  IDS C   5     134.867 167.988 190.1240  0.00  0.00     0.000 OA
ENDBRANCH 78 83
BRANCH 81 88
ATOM     88   C  IDS C   5     140.301 162.145 190.6780  0.00  0.00     0.000 C
ATOM     89   O  IDS C   5     141.381 162.142 191.2080  0.00  0.00     0.000 OA
ATOM     90   O  IDS C   5     139.905 161.167 190.0890  0.00  0.00     0.000 OA
ENDBRANCH 81 88
ENDBRANCH 76 80
ENDBRANCH 56 76
ENDBRANCH 55 59
ENDBRANCH 39 55
ENDBRANCH 38 42
ENDBRANCH 18 38
ENDBRANCH 17 21
ENDBRANCH 1 17
TORSDOF 18
ENDMDL
MODEL 89
REMARK VINA RESULT:      -1.5    171.530    180.082
ROOT
ATOM      1  C1  IDS C   1      71.783  98.606 186.7570  0.00  0.00     0.000 C
ATOM      2  C2  IDS C   1      72.524  98.786 185.4290  0.00  0.00     0.000 C
ATOM      3  C3  IDS C   1      71.930  97.888 184.3530  0.00  0.00     0.000 C
ATOM      4  C4  IDS C   1      72.001  96.427 184.7740  0.00  0.00     0.000 C
ATOM      5  C5  IDS C   1      71.695  96.295 186.2630  0.00  0.00     0.000 C
ATOM      6  O5  IDS C   1      70.972  97.439 186.7180  0.00  0.00     0.000 O
ATOM      7   O  IDS C   1      72.637  98.077 183.1190  0.00  0.00     0.000 O
ATOM      9  HD  IDS C   1      72.851  98.914 183.0540  0.00  0.00     0.000 HD
ENDROOT
BRANCH 2 9
ATOM      9   O  IDS C   1      72.419 100.183 184.9520  0.00  0.00     0.000 O
ATOM     10   S  IDS C   1      73.748 100.992 184.5990  0.00  0.00     0.000 S
ATOM     11   O  IDS C   1      73.311 102.298 184.1570  0.00  0.00     0.000 OA
ATOM     12   O  IDS C   1      74.513 101.039 185.8280  0.00  0.00     0.000 OA
ATOM     13   O  IDS C   1      74.404 100.237 183.5550  0.00  0.00     0.000 OA
ENDBRANCH 2 9
BRANCH 5 14
ATOM     14   C  IDS C   1      70.876  95.053 186.5720  0.00  0.00     0.000 C
ATOM     15   O  IDS C   1      71.285  93.972 186.2280  0.00  0.00     0.000 OA
ATOM     16   O  IDS C   1      69.814  95.160 187.1620  0.00  0.00     0.000 OA
ENDBRANCH 5 14
BRANCH 1 17
ATOM     17  O4  SGN C   2      71.441  99.630 187.5440  0.00  0.00     0.000 O
BRANCH 17 21
ATOM     18  C1  SGN C   2      68.817 102.417 189.2400  0.00  0.00     0.000 C
ATOM     19  C2  SGN C   2      68.180 101.186 188.5830  0.00  0.00     0.000 C
ATOM     20  C3  SGN C   2      69.237 100.089 188.4000  0.00  0.00     0.000 C
ATOM     21  C4  SGN C   2      70.442 100.641 187.6460  0.00  0.00     0.000 C
ATOM     22  C5  SGN C   2      70.986 101.853 188.3970  0.00  0.00     0.000 C
ATOM     23  O5  SGN C   2      69.951 102.856 188.5220  0.00  0.00     0.000 O
ATOM     24   O  SGN C   2      68.672  98.984 187.7150  0.00  0.00     0.000 O
ATOM     26  HD  SGN C   2      69.152  99.386 188.3140  0.00  0.00     0.000 HD
BRANCH 19 28
ATOM     26   N  SGN C   2      66.846 101.183 189.1980  0.00  0.00     0.000 N
ATOM     28  HD  SGN C   2      67.053 102.023 189.1580  0.00  0.00     0.000 HD
ATOM     28   O  SGN C   2      64.588 100.142 189.4000  0.00  0.00     0.000 OA
ATOM     29   S  SGN C   2      65.513 100.858 188.3590  0.00  0.00     0.000 S
ATOM     30   O  SGN C   2      64.924 102.090 188.0020  0.00  0.00     0.000 OA
ATOM     31   O  SGN C   2      65.860  99.924 187.3440  0.00  0.00     0.000 OA
ENDBRANCH 19 28
BRANCH 22 32
ATOM     32   C  SGN C   2      72.150 102.514 187.7010  0.00  0.00     0.000 C
ATOM     33   S  SGN C   2      72.908 104.879 187.0110  0.00  0.00     0.000 S
ATOM     34   O  SGN C   2      72.003 104.916 185.8890  0.00  0.00     0.000 OA
ATOM     35   O  SGN C   2      73.023 106.145 187.7060  0.00  0.00     0.000 OA
ATOM     36   O  SGN C   2      74.182 104.265 186.7200  0.00  0.00     0.000 OA
ATOM     37   O  SGN C   2      72.199 103.902 188.0550  0.00  0.00     0.000 O
ENDBRANCH 22 32
BRANCH 18 38
ATOM     38  O4  IDS C   3      69.132 102.646 190.5160  0.00  0.00     0.000 O
BRANCH 38 42
ATOM     39  C1  IDS C   3      68.932 103.176 193.9520  0.00  0.00     0.000 C
ATOM     40  C2  IDS C   3      67.944 103.852 192.9880  0.00  0.00     0.000 C
ATOM     41  C3  IDS C   3      68.680 104.590 191.8700  0.00  0.00     0.000 C
ATOM     42  C4  IDS C   3      69.754 103.711 191.2440  0.00  0.00     0.000 C
ATOM     43  C5  IDS C   3      70.659 103.136 192.3400  0.00  0.00     0.000 C
ATOM     44  O5  IDS C   3      69.866 102.375 193.2490  0.00  0.00     0.000 O
ATOM     45   O  IDS C   3      69.275 105.776 192.3990  0.00  0.00     0.000 O
ATOM     47  HD  IDS C   3      69.822 105.950 193.0470  0.00  0.00     0.000 HD
BRANCH 40 47
ATOM     47   O  IDS C   3      67.065 102.842 192.3520  0.00  0.00     0.000 O
ATOM     48   S  IDS C   3      65.960 102.084 193.2250  0.00  0.00     0.000 S
ATOM     49   O  IDS C   3      66.675 101.086 193.9910  0.00  0.00     0.000 OA
ATOM     50   O  IDS C   3      65.052 101.498 192.2640  0.00  0.00     0.000 OA
ATOM     51   O  IDS C   3      65.341 103.084 194.0530  0.00  0.00     0.000 OA
ENDBRANCH 40 47
BRANCH 43 52
ATOM     52   C  IDS C   3      71.771 102.272 191.7880  0.00  0.00     0.000 C
ATOM     53   O  IDS C   3      72.754 102.788 191.3080  0.00  0.00     0.000 OA
ATOM     54   O  IDS C   3      71.672 101.072 191.8300  0.00  0.00     0.000 OA
ENDBRANCH 43 52
BRANCH 39 55
ATOM     55  O4  SGN C   4      69.435 103.773 195.0330  0.00  0.00     0.000 O
BRANCH 55 59
ATOM     56  C1  SGN C   4      70.165 101.379 198.3860  0.00  0.00     0.000 C
ATOM     57  C2  SGN C   4      68.704 101.797 198.1450  0.00  0.00     0.000 C
ATOM     58  C3  SGN C   4      68.517 102.311 196.7200  0.00  0.00     0.000 C
ATOM     59  C4  SGN C   4      69.554 103.380 196.3930  0.00  0.00     0.000 C
ATOM     60  C5  SGN C   4      70.946 102.807 196.6490  0.00  0.00     0.000 C
ATOM     61  O5  SGN C   4      71.037 102.444 198.0420  0.00  0.00     0.000 O
ATOM     62   O  SGN C   4      67.201 102.827 196.5690  0.00  0.00     0.000 O
ATOM     64  HD  SGN C   4      67.127 102.222 197.1840  0.00  0.00     0.000 HD
BRANCH 57 66
ATOM     64   N  SGN C   4      68.348 101.514 199.5440  0.00  0.00     0.000 N
ATOM     66  HD  SGN C   4      67.643 101.596 200.0390  0.00  0.00     0.000 HD
ATOM     66   S  SGN C   4      67.080 100.609 199.8920  0.00  0.00     0.000 S
ATOM     67   O  SGN C   4      66.961 100.569 201.3040  0.00  0.00     0.000 OA
ATOM     68   O  SGN C   4      65.995 101.097 199.1130  0.00  0.00     0.000 OA
ATOM     69   O  SGN C   4      67.479  99.194 199.3650  0.00  0.00     0.000 OA
ENDBRANCH 57 66
BRANCH 60 70
ATOM     70   C  SGN C   4      72.070 103.776 196.3500  0.00  0.00     0.000 C
ATOM     71   O  SGN C   4      73.163 106.683 198.4620  0.00  0.00     0.000 OA
ATOM     72   O  SGN C   4      74.210 104.509 198.2900  0.00  0.00     0.000 OA
ATOM     73   O  SGN C   4      72.051 104.873 197.2830  0.00  0.00     0.000 O
ATOM     74   S  SGN C   4      73.462 105.548 197.6190  0.00  0.00     0.000 S
ATOM     75   O  SGN C   4      74.013 105.915 196.3300  0.00  0.00     0.000 OA
ENDBRANCH 60 70
BRANCH 56 76
ATOM     76  O4  IDS C   5      70.865 100.234 198.2950  0.00  0.00     0.000 O
BRANCH 76 80
ATOM     77  C1  IDS C   5      72.639  99.291 194.7420  0.00  0.00     0.000 C
ATOM     78  C2  IDS C   5      71.299  98.597 194.9860  0.00  0.00     0.000 C
ATOM     79  C3  IDS C   5      70.535  99.323 196.0760  0.00  0.00     0.000 C
ATOM     80  C4  IDS C   5      71.284  99.194 197.3980  0.00  0.00     0.000 C
ATOM     81  C5  IDS C   5      72.795  99.287 197.1380  0.00  0.00     0.000 C
ATOM     82  O5  IDS C   5      73.052  99.987 195.9180  0.00  0.00     0.000 O
BRANCH 78 83
ATOM     83   O  IDS C   5      70.476  98.600 193.7550  0.00  0.00     0.000 O
ATOM     84   S  IDS C   5      70.079  97.218 193.0630  0.00  0.00     0.000 S
ATOM     85   O  IDS C   5      71.298  96.462 192.9630  0.00  0.00     0.000 OA
ATOM     86   O  IDS C   5      69.109  96.617 193.9480  0.00  0.00     0.000 OA
ATOM     87   O  IDS C   5      69.519  97.570 191.7810  0.00  0.00     0.000 OA
ENDBRANCH 78 83
BRANCH 81 88
ATOM     88   C  IDS C   5      73.568  99.988 198.2400  0.00  0.00     0.000 C
ATOM     89   O  IDS C   5      73.736  99.439 199.2960  0.00  0.00     0.000 OA
ATOM     90   O  IDS C   5      74.011 101.097 198.0490  0.00  0.00     0.000 OA
ENDBRANCH 81 88
ENDBRANCH 76 80
ENDBRANCH 56 76
ENDBRANCH 55 59
ENDBRANCH 39 55
ENDBRANCH 38 42
ENDBRANCH 18 38
ENDBRANCH 17 21
ENDBRANCH 1 17
TORSDOF 18
ENDMDL
MODEL 90
REMARK VINA RESULT:      -1.5    106.612    113.232
ROOT
ATOM      1  C1  IDS C   1     111.831  31.466 156.1790  0.00  0.00     0.000 C
ATOM      2  C2  IDS C   1     110.710  30.557 156.6900  0.00  0.00     0.000 C
ATOM      3  C3  IDS C   1     110.513  29.367 155.7620  0.00  0.00     0.000 C
ATOM      4  C4  IDS C   1     110.177  29.835 154.3530  0.00  0.00     0.000 C
ATOM      5  C5  IDS C   1     111.003  31.068 154.0000  0.00  0.00     0.000 C
ATOM      6  O5  IDS C   1     112.159  31.140 154.8340  0.00  0.00     0.000 O
ATOM      7   O  IDS C   1     109.462  28.529 156.2640  0.00  0.00     0.000 O
ATOM      9  HD  IDS C   1     109.506  28.526 157.1290  0.00  0.00     0.000 HD
ENDROOT
BRANCH 2 9
ATOM      9   O  IDS C   1     111.034  30.026 158.0340  0.00  0.00     0.000 O
ATOM     10   S  IDS C   1     109.993  30.224 159.2260  0.00  0.00     0.000 S
ATOM     11   O  IDS C   1     110.589  29.591 160.3810  0.00  0.00     0.000 OA
ATOM     12   O  IDS C   1     109.845  31.656 159.3800  0.00  0.00     0.000 OA
ATOM     13   O  IDS C   1     108.774  29.574 158.7970  0.00  0.00     0.000 OA
ENDBRANCH 2 9
BRANCH 5 14
ATOM     14   C  IDS C   1     111.455  31.059 152.5500  0.00  0.00     0.000 C
ATOM     15   O  IDS C   1     110.635  31.169 151.6710  0.00  0.00     0.000 OA
ATOM     16   O  IDS C   1     112.640  30.937 152.2860  0.00  0.00     0.000 OA
ENDBRANCH 5 14
BRANCH 1 17
ATOM     17  O4  SGN C   2     112.757  32.001 156.9800  0.00  0.00     0.000 O
BRANCH 17 21
ATOM     18  C1  SGN C   2     116.555  32.354 158.7040  0.00  0.00     0.000 C
ATOM     19  C2  SGN C   2     116.463  31.541 157.4070  0.00  0.00     0.000 C
ATOM     20  C3  SGN C   2     115.143  31.854 156.6910  0.00  0.00     0.000 C
ATOM     21  C4  SGN C   2     113.968  31.643 157.6390  0.00  0.00     0.000 C
ATOM     22  C5  SGN C   2     114.172  32.504 158.8830  0.00  0.00     0.000 C
ATOM     23  O5  SGN C   2     115.421  32.152 159.5220  0.00  0.00     0.000 O
ATOM     24   O  SGN C   2     115.016  31.040 155.5370  0.00  0.00     0.000 O
ATOM     26  HD  SGN C   2     114.967  31.767 156.0040  0.00  0.00     0.000 HD
BRANCH 19 28
ATOM     26   N  SGN C   2     117.865  31.528 156.9700  0.00  0.00     0.000 N
ATOM     28  HD  SGN C   2     117.919  31.505 157.8340  0.00  0.00     0.000 HD
ATOM     28   O  SGN C   2     119.572  30.843 155.2850  0.00  0.00     0.000 OA
ATOM     29   S  SGN C   2     118.544  30.235 156.2960  0.00  0.00     0.000 S
ATOM     30   O  SGN C   2     119.255  29.552 157.3080  0.00  0.00     0.000 OA
ATOM     31   O  SGN C   2     117.535  29.552 155.5630  0.00  0.00     0.000 OA
ENDBRANCH 19 28
BRANCH 22 32
ATOM     32   C  SGN C   2     113.088  32.325 159.9180  0.00  0.00     0.000 C
ATOM     33   S  SGN C   2     112.879  31.922 162.4550  0.00  0.00     0.000 S
ATOM     34   O  SGN C   2     113.219  30.527 162.3310  0.00  0.00     0.000 OA
ATOM     35   O  SGN C   2     113.445  32.557 163.6270  0.00  0.00     0.000 OA
ATOM     36   O  SGN C   2     111.475  32.205 162.2700  0.00  0.00     0.000 OA
ATOM     37   O  SGN C   2     113.612  32.617 161.2190  0.00  0.00     0.000 O
ENDBRANCH 22 32
BRANCH 18 38
ATOM     38  O4  IDS C   3     116.869  33.637 158.8970  0.00  0.00     0.000 O
BRANCH 38 42
ATOM     39  C1  IDS C   3     118.140  36.213 160.8660  0.00  0.00     0.000 C
ATOM     40  C2  IDS C   3     117.075  36.488 159.7920  0.00  0.00     0.000 C
ATOM     41  C3  IDS C   3     117.496  35.920 158.4380  0.00  0.00     0.000 C
ATOM     42  C4  IDS C   3     117.978  34.482 158.5690  0.00  0.00     0.000 C
ATOM     43  C5  IDS C   3     119.047  34.391 159.6650  0.00  0.00     0.000 C
ATOM     44  O5  IDS C   3     118.489  34.839 160.8990  0.00  0.00     0.000 O
ATOM     45   O  IDS C   3     118.537  36.729 157.8880  0.00  0.00     0.000 O
ATOM     47  HD  IDS C   3     119.314  36.995 158.1610  0.00  0.00     0.000 HD
BRANCH 40 47
ATOM     47   O  IDS C   3     115.788  35.852 160.1610  0.00  0.00     0.000 O
ATOM     48   S  IDS C   3     114.909  36.465 161.3490  0.00  0.00     0.000 S
ATOM     49   O  IDS C   3     115.552  36.046 162.5760  0.00  0.00     0.000 OA
ATOM     50   O  IDS C   3     113.594  35.885 161.1870  0.00  0.00     0.000 OA
ATOM     51   O  IDS C   3     114.924  37.893 161.1710  0.00  0.00     0.000 OA
ENDBRANCH 40 47
BRANCH 43 52
ATOM     52   C  IDS C   3     119.594  32.991 159.8340  0.00  0.00     0.000 C
ATOM     53   O  IDS C   3     120.101  32.424 158.8930  0.00  0.00     0.000 OA
ATOM     54   O  IDS C   3     119.523  32.447 160.9070  0.00  0.00     0.000 OA
ENDBRANCH 43 52
BRANCH 39 55
ATOM     55  O4  SGN C   4     119.154  37.037 161.1290  0.00  0.00     0.000 O
BRANCH 55 59
ATOM     56  C1  SGN C   4     120.296  37.432 165.1340  0.00  0.00     0.000 C
ATOM     57  C2  SGN C   4     119.062  38.235 164.6890  0.00  0.00     0.000 C
ATOM     58  C3  SGN C   4     118.526  37.711 163.3590  0.00  0.00     0.000 C
ATOM     59  C4  SGN C   4     119.644  37.624 162.3260  0.00  0.00     0.000 C
ATOM     60  C5  SGN C   4     120.775  36.772 162.8980  0.00  0.00     0.000 C
ATOM     61  O5  SGN C   4     121.262  37.411 164.0950  0.00  0.00     0.000 O
ATOM     62   O  SGN C   4     117.484  38.560 162.8990  0.00  0.00     0.000 O
ATOM     64  HD  SGN C   4     117.460  38.636 163.7610  0.00  0.00     0.000 HD
BRANCH 57 66
ATOM     64   N  SGN C   4     118.968  38.418 166.1460  0.00  0.00     0.000 N
ATOM     66  HD  SGN C   4     119.009  39.085 166.6970  0.00  0.00     0.000 HD
ATOM     66   S  SGN C   4     117.927  39.454 166.7690  0.00  0.00     0.000 S
ATOM     67   O  SGN C   4     118.113  39.452 168.1740  0.00  0.00     0.000 OA
ATOM     68   O  SGN C   4     118.069  40.671 166.0470  0.00  0.00     0.000 OA
ATOM     69   O  SGN C   4     116.535  38.831 166.4290  0.00  0.00     0.000 OA
ENDBRANCH 57 66
BRANCH 60 70
ATOM     70   C  SGN C   4     121.947  36.601 161.9570  0.00  0.00     0.000 C
ATOM     71   O  SGN C   4     125.577  36.367 162.8920  0.00  0.00     0.000 OA
ATOM     72   O  SGN C   4     124.088  34.556 162.3000  0.00  0.00     0.000 OA
ATOM     73   O  SGN C   4     123.192  36.763 162.6650  0.00  0.00     0.000 O
ATOM     74   S  SGN C   4     124.444  35.943 162.1030  0.00  0.00     0.000 S
ATOM     75   O  SGN C   4     124.539  36.322 160.7070  0.00  0.00     0.000 OA
ENDBRANCH 60 70
BRANCH 56 76
ATOM     76  O4  IDS C   5     120.514  36.357 165.9140  0.00  0.00     0.000 O
BRANCH 76 80
ATOM     77  C1  IDS C   5     120.667  32.576 164.3860  0.00  0.00     0.000 C
ATOM     78  C2  IDS C   5     119.286  33.004 164.8810  0.00  0.00     0.000 C
ATOM     79  C3  IDS C   5     119.231  34.514 165.0080  0.00  0.00     0.000 C
ATOM     80  C4  IDS C   5     120.193  34.970 166.1000  0.00  0.00     0.000 C
ATOM     81  C5  IDS C   5     121.465  34.113 166.0480  0.00  0.00     0.000 C
ATOM     82  O5  IDS C   5     121.642  33.555 164.7430  0.00  0.00     0.000 O
BRANCH 78 83
ATOM     83   O  IDS C   5     118.232  32.575 163.9310  0.00  0.00     0.000 O
ATOM     84   S  IDS C   5     117.153  31.490 164.3820  0.00  0.00     0.000 S
ATOM     85   O  IDS C   5     117.898  30.411 164.9720  0.00  0.00     0.000 OA
ATOM     86   O  IDS C   5     116.301  32.175 165.3260  0.00  0.00     0.000 OA
ATOM     87   O  IDS C   5     116.455  31.110 163.1790  0.00  0.00     0.000 OA
ENDBRANCH 78 83
BRANCH 81 88
ATOM     88   C  IDS C   5     122.733  34.871 166.3970  0.00  0.00     0.000 C
ATOM     89   O  IDS C   5     123.491  35.203 165.5250  0.00  0.00     0.000 OA
ATOM     90   O  IDS C   5     122.972  35.139 167.5520  0.00  0.00     0.000 OA
ENDBRANCH 81 88
ENDBRANCH 76 80
ENDBRANCH 56 76
ENDBRANCH 55 59
ENDBRANCH 39 55
ENDBRANCH 38 42
ENDBRANCH 18 38
ENDBRANCH 17 21
ENDBRANCH 1 17
TORSDOF 18
ENDMDL
MODEL 91
REMARK VINA RESULT:      -1.5    196.999    203.760
ROOT
ATOM      1  C1  IDS C   1     135.566 175.563 191.2790  0.00  0.00     0.000 C
ATOM      2  C2  IDS C   1     134.349 175.958 192.1190  0.00  0.00     0.000 C
ATOM      3  C3  IDS C   1     134.576 177.298 192.8030  0.00  0.00     0.000 C
ATOM      4  C4  IDS C   1     135.807 177.242 193.6970  0.00  0.00     0.000 C
ATOM      5  C5  IDS C   1     136.907 176.428 193.0230  0.00  0.00     0.000 C
ATOM      6  O5  IDS C   1     136.685 176.374 191.6140  0.00  0.00     0.000 O
ATOM      7   O  IDS C   1     133.422 177.648 193.5800  0.00  0.00     0.000 O
ATOM      9  HD  IDS C   1     132.716 177.382 193.1540  0.00  0.00     0.000 HD
ENDROOT
BRANCH 2 9
ATOM      9   O  IDS C   1     133.143 176.088 191.2710  0.00  0.00     0.000 O
ATOM     10   S  IDS C   1     131.826 175.273 191.6500  0.00  0.00     0.000 S
ATOM     11   O  IDS C   1     130.841 175.623 190.6510  0.00  0.00     0.000 OA
ATOM     12   O  IDS C   1     132.206 173.876 191.6020  0.00  0.00     0.000 OA
ATOM     13   O  IDS C   1     131.458 175.712 192.9780  0.00  0.00     0.000 OA
ENDBRANCH 2 9
BRANCH 5 14
ATOM     14   C  IDS C   1     138.287 177.014 193.2710  0.00  0.00     0.000 C
ATOM     15   O  IDS C   1     138.443 178.209 193.2150  0.00  0.00     0.000 OA
ATOM     16   O  IDS C   1     139.223 176.274 193.5210  0.00  0.00     0.000 OA
ENDBRANCH 5 14
BRANCH 1 17
ATOM     17  O4  SGN C   2     135.466 175.039 190.0540  0.00  0.00     0.000 O
BRANCH 17 21
ATOM     18  C1  SGN C   2     135.618 175.083 185.8700  0.00  0.00     0.000 C
ATOM     19  C2  SGN C   2     136.341 176.224 186.5960  0.00  0.00     0.000 C
ATOM     20  C3  SGN C   2     136.559 175.850 188.0670  0.00  0.00     0.000 C
ATOM     21  C4  SGN C   2     135.236 175.448 188.7080  0.00  0.00     0.000 C
ATOM     22  C5  SGN C   2     134.619 174.307 187.9030  0.00  0.00     0.000 C
ATOM     23  O5  SGN C   2     134.423 174.725 186.5330  0.00  0.00     0.000 O
ATOM     24   O  SGN C   2     137.149 176.937 188.7590  0.00  0.00     0.000 O
ATOM     26  HD  SGN C   2     137.030 176.109 188.5370  0.00  0.00     0.000 HD
BRANCH 19 28
ATOM     26   N  SGN C   2     137.256 176.702 185.5490  0.00  0.00     0.000 N
ATOM     28  HD  SGN C   2     136.566 176.420 185.1070  0.00  0.00     0.000 HD
ATOM     28   O  SGN C   2     139.020 178.309 184.8250  0.00  0.00     0.000 OA
ATOM     29   S  SGN C   2     137.527 178.266 185.2950  0.00  0.00     0.000 S
ATOM     30   O  SGN C   2     136.704 178.672 184.2210  0.00  0.00     0.000 OA
ATOM     31   O  SGN C   2     137.426 178.932 186.5470  0.00  0.00     0.000 OA
ENDBRANCH 19 28
BRANCH 22 32
ATOM     32   C  SGN C   2     133.271 173.870 188.4220  0.00  0.00     0.000 C
ATOM     33   S  SGN C   2     130.917 173.353 187.5090  0.00  0.00     0.000 S
ATOM     34   O  SGN C   2     130.592 174.750 187.3630  0.00  0.00     0.000 OA
ATOM     35   O  SGN C   2     130.411 172.525 186.4340  0.00  0.00     0.000 OA
ATOM     36   O  SGN C   2     130.646 172.819 188.8220  0.00  0.00     0.000 OA
ATOM     37   O  SGN C   2     132.505 173.301 187.3530  0.00  0.00     0.000 O
ENDBRANCH 22 32
BRANCH 18 38
ATOM     38  O4  IDS C   3     136.088 173.924 185.4020  0.00  0.00     0.000 O
BRANCH 38 42
ATOM     39  C1  IDS C   3     137.759 171.632 183.3820  0.00  0.00     0.000 C
ATOM     40  C2  IDS C   3     136.998 172.820 182.7710  0.00  0.00     0.000 C
ATOM     41  C3  IDS C   3     135.563 172.884 183.2920  0.00  0.00     0.000 C
ATOM     42  C4  IDS C   3     135.520 172.752 184.8080  0.00  0.00     0.000 C
ATOM     43  C5  IDS C   3     136.308 171.511 185.2440  0.00  0.00     0.000 C
ATOM     44  O5  IDS C   3     137.657 171.633 184.7960  0.00  0.00     0.000 O
ATOM     45   O  IDS C   3     134.796 171.836 182.6950  0.00  0.00     0.000 O
ATOM     47  HD  IDS C   3     134.873 170.975 182.6420  0.00  0.00     0.000 HD
BRANCH 40 47
ATOM     47   O  IDS C   3     137.658 174.099 183.1260  0.00  0.00     0.000 O
ATOM     48   S  IDS C   3     138.594 174.834 182.0580  0.00  0.00     0.000 S
ATOM     49   O  IDS C   3     139.844 174.106 182.0580  0.00  0.00     0.000 OA
ATOM     50   O  IDS C   3     138.742 176.187 182.5500  0.00  0.00     0.000 OA
ATOM     51   O  IDS C   3     137.907 174.763 180.7970  0.00  0.00     0.000 OA
ENDBRANCH 40 47
BRANCH 43 52
ATOM     52   C  IDS C   3     136.287 171.299 186.7410  0.00  0.00     0.000 C
ATOM     53   O  IDS C   3     137.275 171.534 187.3970  0.00  0.00     0.000 OA
ATOM     54   O  IDS C   3     135.284 170.897 187.2730  0.00  0.00     0.000 OA
ENDBRANCH 43 52
BRANCH 39 55
ATOM     55  O4  SGN C   4     137.785 170.414 182.8400  0.00  0.00     0.000 O
BRANCH 55 59
ATOM     56  C1  SGN C   4     141.403 168.336 183.1540  0.00  0.00     0.000 C
ATOM     57  C2  SGN C   4     141.278 169.326 181.9840  0.00  0.00     0.000 C
ATOM     58  C3  SGN C   4     140.110 170.283 182.2060  0.00  0.00     0.000 C
ATOM     59  C4  SGN C   4     138.837 169.511 182.5330  0.00  0.00     0.000 C
ATOM     60  C5  SGN C   4     139.109 168.602 183.7300  0.00  0.00     0.000 C
ATOM     61  O5  SGN C   4     140.162 167.685 183.3720  0.00  0.00     0.000 O
ATOM     62   O  SGN C   4     139.925 171.086 181.0480  0.00  0.00     0.000 O
ATOM     64  HD  SGN C   4     140.769 170.890 181.0440  0.00  0.00     0.000 HD
BRANCH 57 66
ATOM     64   N  SGN C   4     142.375 168.671 181.2530  0.00  0.00     0.000 N
ATOM     66  HD  SGN C   4     142.755 168.763 180.4800  0.00  0.00     0.000 HD
ATOM     66   S  SGN C   4     143.586 169.528 180.6670  0.00  0.00     0.000 S
ATOM     67   O  SGN C   4     144.441 168.636 179.9710  0.00  0.00     0.000 OA
ATOM     68   O  SGN C   4     143.017 170.633 179.9750  0.00  0.00     0.000 OA
ATOM     69   O  SGN C   4     144.316 170.059 181.9420  0.00  0.00     0.000 OA
ENDBRANCH 57 66
BRANCH 60 70
ATOM     70   C  SGN C   4     137.911 167.784 184.1610  0.00  0.00     0.000 C
ATOM     71   O  SGN C   4     137.935 164.265 185.4740  0.00  0.00     0.000 OA
ATOM     72   O  SGN C   4     137.728 166.312 186.7450  0.00  0.00     0.000 OA
ATOM     73   O  SGN C   4     138.294 166.417 184.4060  0.00  0.00     0.000 O
ATOM     74   S  SGN C   4     137.446 165.624 185.5060  0.00  0.00     0.000 S
ATOM     75   O  SGN C   4     136.068 165.753 185.0750  0.00  0.00     0.000 OA
ENDBRANCH 60 70
BRANCH 56 76
ATOM     76  O4  IDS C   5     142.093 168.294 184.3090  0.00  0.00     0.000 O
BRANCH 76 80
ATOM     77  C1  IDS C   5     140.422 169.520 187.8240  0.00  0.00     0.000 C
ATOM     78  C2  IDS C   5     141.225 170.597 187.0940  0.00  0.00     0.000 C
ATOM     79  C3  IDS C   5     141.419 170.198 185.6440  0.00  0.00     0.000 C
ATOM     80  C4  IDS C   5     142.291 168.948 185.5710  0.00  0.00     0.000 C
ATOM     81  C5  IDS C   5     141.927 168.005 186.7270  0.00  0.00     0.000 C
ATOM     82  O5  IDS C   5     140.594 168.258 187.1800  0.00  0.00     0.000 O
BRANCH 78 83
ATOM     83   O  IDS C   5     140.514 171.896 187.1310  0.00  0.00     0.000 O
ATOM     84   S  IDS C   5     141.156 173.129 187.9140  0.00  0.00     0.000 S
ATOM     85   O  IDS C   5     141.538 172.622 189.2050  0.00  0.00     0.000 OA
ATOM     86   O  IDS C   5     142.282 173.543 187.1100  0.00  0.00     0.000 OA
ATOM     87   O  IDS C   5     140.121 174.132 187.9800  0.00  0.00     0.000 OA
ENDBRANCH 78 83
BRANCH 81 88
ATOM     88   C  IDS C   5     142.018 166.532 186.3720  0.00  0.00     0.000 C
ATOM     89   O  IDS C   5     143.093 166.001 186.2950  0.00  0.00     0.000 OA
ATOM     90   O  IDS C   5     141.006 165.902 186.1700  0.00  0.00     0.000 OA
ENDBRANCH 81 88
ENDBRANCH 76 80
ENDBRANCH 56 76
ENDBRANCH 55 59
ENDBRANCH 39 55
ENDBRANCH 38 42
ENDBRANCH 18 38
ENDBRANCH 17 21
ENDBRANCH 1 17
TORSDOF 18
ENDMDL
MODEL 92
REMARK VINA RESULT:      -1.5    107.833    112.711
ROOT
ATOM      1  C1  IDS C   1     111.063  29.550 158.2240  0.00  0.00     0.000 C
ATOM      2  C2  IDS C   1     110.226  28.546 159.0210  0.00  0.00     0.000 C
ATOM      3  C3  IDS C   1     110.017  27.265 158.2260  0.00  0.00     0.000 C
ATOM      4  C4  IDS C   1     109.323  27.561 156.9040  0.00  0.00     0.000 C
ATOM      5  C5  IDS C   1     109.860  28.859 156.3100  0.00  0.00     0.000 C
ATOM      6  O5  IDS C   1     111.143  29.157 156.8600  0.00  0.00     0.000 O
ATOM      7   O  IDS C   1     109.235  26.340 158.9950  0.00  0.00     0.000 O
ATOM      9  HD  IDS C   1     109.462  26.417 159.8270  0.00  0.00     0.000 HD
ENDROOT
BRANCH 2 9
ATOM      9   O  IDS C   1     110.904  28.181 160.2860  0.00  0.00     0.000 O
ATOM     10   S  IDS C   1     110.148  28.403 161.6720  0.00  0.00     0.000 S
ATOM     11   O  IDS C   1     111.058  27.942 162.6980  0.00  0.00     0.000 OA
ATOM     12   O  IDS C   1     109.886  29.826 161.7490  0.00  0.00     0.000 OA
ATOM     13   O  IDS C   1     108.941  27.610 161.5950  0.00  0.00     0.000 OA
ENDBRANCH 2 9
BRANCH 5 14
ATOM     14   C  IDS C   1     109.989  28.786 154.7980  0.00  0.00     0.000 C
ATOM     15   O  IDS C   1     111.038  29.078 154.2770  0.00  0.00     0.000 OA
ATOM     16   O  IDS C   1     109.034  28.437 154.1240  0.00  0.00     0.000 OA
ENDBRANCH 5 14
BRANCH 1 17
ATOM     17  O4  SGN C   2     112.047  30.272 158.7690  0.00  0.00     0.000 O
BRANCH 17 21
ATOM     18  C1  SGN C   2     116.043  31.432 159.2350  0.00  0.00     0.000 C
ATOM     19  C2  SGN C   2     115.727  30.518 158.0440  0.00  0.00     0.000 C
ATOM     20  C3  SGN C   2     114.220  30.533 157.7630  0.00  0.00     0.000 C
ATOM     21  C4  SGN C   2     113.446  30.189 159.0300  0.00  0.00     0.000 C
ATOM     22  C5  SGN C   2     113.840  31.165 160.1350  0.00  0.00     0.000 C
ATOM     23  O5  SGN C   2     115.266  31.093 160.3650  0.00  0.00     0.000 O
ATOM     24   O  SGN C   2     113.915  29.623 156.7190  0.00  0.00     0.000 O
ATOM     26  HD  SGN C   2     113.867  30.364 157.1650  0.00  0.00     0.000 HD
BRANCH 19 28
ATOM     26   N  SGN C   2     116.912  30.720 157.1990  0.00  0.00     0.000 N
ATOM     28  HD  SGN C   2     117.224  30.767 158.0060  0.00  0.00     0.000 HD
ATOM     28   O  SGN C   2     118.136  30.229 155.0820  0.00  0.00     0.000 OA
ATOM     29   S  SGN C   2     117.589  29.522 156.3680  0.00  0.00     0.000 S
ATOM     30   O  SGN C   2     118.684  29.046 157.1220  0.00  0.00     0.000 OA
ATOM     31   O  SGN C   2     116.555  28.624 155.9860  0.00  0.00     0.000 OA
ENDBRANCH 19 28
BRANCH 22 32
ATOM     32   C  SGN C   2     113.170  30.875 161.4560  0.00  0.00     0.000 C
ATOM     33   S  SGN C   2     113.829  30.221 163.8600  0.00  0.00     0.000 S
ATOM     34   O  SGN C   2     114.071  28.848 163.4940  0.00  0.00     0.000 OA
ATOM     35   O  SGN C   2     114.777  30.741 164.8230  0.00  0.00     0.000 OA
ATOM     36   O  SGN C   2     112.454  30.508 164.1950  0.00  0.00     0.000 OA
ATOM     37   O  SGN C   2     114.114  31.042 162.5210  0.00  0.00     0.000 O
ENDBRANCH 22 32
BRANCH 18 38
ATOM     38  O4  IDS C   3     116.144  32.761 159.2980  0.00  0.00     0.000 O
BRANCH 38 42
ATOM     39  C1  IDS C   3     116.536  36.141 160.0430  0.00  0.00     0.000 C
ATOM     40  C2  IDS C   3     115.230  35.402 160.3770  0.00  0.00     0.000 C
ATOM     41  C3  IDS C   3     114.680  34.671 159.1530  0.00  0.00     0.000 C
ATOM     42  C4  IDS C   3     115.766  33.860 158.4610  0.00  0.00     0.000 C
ATOM     43  C5  IDS C   3     116.984  34.750 158.1850  0.00  0.00     0.000 C
ATOM     44  O5  IDS C   3     117.469  35.273 159.4200  0.00  0.00     0.000 O
ATOM     45   O  IDS C   3     114.134  35.624 158.2390  0.00  0.00     0.000 O
ATOM     47  HD  IDS C   3     114.435  36.332 157.8400  0.00  0.00     0.000 HD
BRANCH 40 47
ATOM     47   O  IDS C   3     115.461  34.389 161.4340  0.00  0.00     0.000 O
ATOM     48   S  IDS C   3     115.881  34.855 162.9050  0.00  0.00     0.000 S
ATOM     49   O  IDS C   3     117.285  35.199 162.8260  0.00  0.00     0.000 OA
ATOM     50   O  IDS C   3     115.640  33.707 163.7510  0.00  0.00     0.000 OA
ATOM     51   O  IDS C   3     115.048  35.982 163.2280  0.00  0.00     0.000 OA
ENDBRANCH 40 47
BRANCH 43 52
ATOM     52   C  IDS C   3     118.097  34.016 157.4720  0.00  0.00     0.000 C
ATOM     53   O  IDS C   3     119.215  34.022 157.9330  0.00  0.00     0.000 OA
ATOM     54   O  IDS C   3     117.863  33.428 156.4460  0.00  0.00     0.000 OA
ENDBRANCH 43 52
BRANCH 39 55
ATOM     55  O4  SGN C   4     116.582  37.396 159.5980  0.00  0.00     0.000 O
BRANCH 55 59
ATOM     56  C1  SGN C   4     119.568  39.785 161.2960  0.00  0.00     0.000 C
ATOM     57  C2  SGN C   4     118.215  39.752 162.0270  0.00  0.00     0.000 C
ATOM     58  C3  SGN C   4     117.371  38.572 161.5520  0.00  0.00     0.000 C
ATOM     59  C4  SGN C   4     117.280  38.555 160.0300  0.00  0.00     0.000 C
ATOM     60  C5  SGN C   4     118.695  38.556 159.4540  0.00  0.00     0.000 C
ATOM     61  O5  SGN C   4     119.361  39.757 159.8920  0.00  0.00     0.000 O
ATOM     62   O  SGN C   4     116.075  38.651 162.1300  0.00  0.00     0.000 O
ATOM     64  HD  SGN C   4     116.592  39.045 162.7020  0.00  0.00     0.000 HD
BRANCH 57 66
ATOM     64   N  SGN C   4     118.521  41.005 162.7370  0.00  0.00     0.000 N
ATOM     66  HD  SGN C   4     118.105  41.530 163.2850  0.00  0.00     0.000 HD
ATOM     66   S  SGN C   4     118.347  41.103 164.3200  0.00  0.00     0.000 S
ATOM     67   O  SGN C   4     118.655  42.434 164.6990  0.00  0.00     0.000 OA
ATOM     68   O  SGN C   4     117.069  40.565 164.6330  0.00  0.00     0.000 OA
ATOM     69   O  SGN C   4     119.445  40.139 164.8740  0.00  0.00     0.000 OA
ENDBRANCH 57 66
BRANCH 60 70
ATOM     70   C  SGN C   4     118.738  38.530 157.9410  0.00  0.00     0.000 C
ATOM     71   O  SGN C   4     118.123  41.416 155.6170  0.00  0.00     0.000 OA
ATOM     72   O  SGN C   4     120.254  40.481 156.2750  0.00  0.00     0.000 OA
ATOM     73   O  SGN C   4     118.246  39.772 157.4010  0.00  0.00     0.000 O
ATOM     74   S  SGN C   4     118.858  40.231 155.9970  0.00  0.00     0.000 S
ATOM     75   O  SGN C   4     118.638  39.106 155.1100  0.00  0.00     0.000 OA
ENDBRANCH 60 70
BRANCH 56 76
ATOM     76  O4  IDS C   5     120.802  39.306 161.5350  0.00  0.00     0.000 O
BRANCH 76 80
ATOM     77  C1  IDS C   5     121.747  35.543 160.2670  0.00  0.00     0.000 C
ATOM     78  C2  IDS C   5     121.349  35.635 161.7390  0.00  0.00     0.000 C
ATOM     79  C3  IDS C   5     120.612  36.935 161.9930  0.00  0.00     0.000 C
ATOM     80  C4  IDS C   5     121.561  38.111 161.7740  0.00  0.00     0.000 C
ATOM     81  C5  IDS C   5     122.478  37.809 160.5800  0.00  0.00     0.000 C
ATOM     82  O5  IDS C   5     121.869  36.851 159.7090  0.00  0.00     0.000 O
BRANCH 78 83
ATOM     83   O  IDS C   5     120.458  34.511 162.1120  0.00  0.00     0.000 O
ATOM     84   S  IDS C   5     120.794  33.625 163.3960  0.00  0.00     0.000 S
ATOM     85   O  IDS C   5     122.183  33.271 163.2790  0.00  0.00     0.000 OA
ATOM     86   O  IDS C   5     120.519  34.479 164.5270  0.00  0.00     0.000 OA
ATOM     87   O  IDS C   5     119.908  32.489 163.3280  0.00  0.00     0.000 OA
ENDBRANCH 78 83
BRANCH 81 88
ATOM     88   C  IDS C   5     122.826  39.029 159.7480  0.00  0.00     0.000 C
ATOM     89   O  IDS C   5     123.597  39.846 160.1760  0.00  0.00     0.000 OA
ATOM     90   O  IDS C   5     122.326  39.171 158.6560  0.00  0.00     0.000 OA
ENDBRANCH 81 88
ENDBRANCH 76 80
ENDBRANCH 56 76
ENDBRANCH 55 59
ENDBRANCH 39 55
ENDBRANCH 38 42
ENDBRANCH 18 38
ENDBRANCH 17 21
ENDBRANCH 1 17
TORSDOF 18
ENDMDL
MODEL 93
REMARK VINA RESULT:      -1.5    193.503    201.534
ROOT
ATOM      1  C1  IDS C   1      60.324 188.095  88.7320  0.00  0.00     0.000 C
ATOM      2  C2  IDS C   1      59.369 187.009  88.2290  0.00  0.00     0.000 C
ATOM      3  C3  IDS C   1      60.013 185.634  88.3300  0.00  0.00     0.000 C
ATOM      4  C4  IDS C   1      61.301 185.583  87.5210  0.00  0.00     0.000 C
ATOM      5  C5  IDS C   1      62.062 186.897  87.6660  0.00  0.00     0.000 C
ATOM      6  O5  IDS C   1      61.644 187.579  88.8480  0.00  0.00     0.000 O
ATOM      7   O  IDS C   1      59.099 184.634  87.8580  0.00  0.00     0.000 O
ATOM      9  HD  IDS C   1      58.298 184.864  88.0950  0.00  0.00     0.000 HD
ENDROOT
BRANCH 2 9
ATOM      9   O  IDS C   1      58.129 186.981  89.0380  0.00  0.00     0.000 O
ATOM     10   S  IDS C   1      56.718 187.146  88.3140  0.00  0.00     0.000 S
ATOM     11   O  IDS C   1      55.723 187.062  89.3610  0.00  0.00     0.000 OA
ATOM     12   O  IDS C   1      56.756 188.445  87.6750  0.00  0.00     0.000 OA
ATOM     13   O  IDS C   1      56.630 186.055  87.3680  0.00  0.00     0.000 OA
ENDBRANCH 2 9
BRANCH 5 14
ATOM     14   C  IDS C   1      63.565 186.684  87.7390  0.00  0.00     0.000 C
ATOM     15   O  IDS C   1      64.295 187.639  87.8500  0.00  0.00     0.000 OA
ATOM     16   O  IDS C   1      64.019 185.554  87.6830  0.00  0.00     0.000 OA
ENDBRANCH 5 14
BRANCH 1 17
ATOM     17  O4  SGN C   2      59.931 189.105  89.5130  0.00  0.00     0.000 O
BRANCH 17 21
ATOM     18  C1  SGN C   2      59.845 191.311  93.0700  0.00  0.00     0.000 C
ATOM     19  C2  SGN C   2      60.939 190.242  92.9510  0.00  0.00     0.000 C
ATOM     20  C3  SGN C   2      61.109 189.835  91.4820  0.00  0.00     0.000 C
ATOM     21  C4  SGN C   2      59.767 189.416  90.8940  0.00  0.00     0.000 C
ATOM     22  C5  SGN C   2      58.769 190.557  91.0680  0.00  0.00     0.000 C
ATOM     23  O5  SGN C   2      58.639 190.884  92.4710  0.00  0.00     0.000 O
ATOM     24   O  SGN C   2      62.058 188.786  91.3800  0.00  0.00     0.000 O
ATOM     26  HD  SGN C   2      61.665 189.526  91.1580  0.00  0.00     0.000 HD
BRANCH 19 28
ATOM     26   N  SGN C   2      61.864 189.920  94.0460  0.00  0.00     0.000 N
ATOM     28  HD  SGN C   2      61.475 189.165  93.8760  0.00  0.00     0.000 HD
ATOM     28   O  SGN C   2      64.040 190.328  95.1950  0.00  0.00     0.000 OA
ATOM     29   S  SGN C   2      63.455 189.834  93.8300  0.00  0.00     0.000 S
ATOM     30   O  SGN C   2      63.788 188.471  93.6620  0.00  0.00     0.000 OA
ATOM     31   O  SGN C   2      63.804 190.771  92.8200  0.00  0.00     0.000 OA
ENDBRANCH 19 28
BRANCH 22 32
ATOM     32   C  SGN C   2      57.385 190.223  90.5690  0.00  0.00     0.000 C
ATOM     33   S  SGN C   2      55.118 191.396  90.2110  0.00  0.00     0.000 S
ATOM     34   O  SGN C   2      54.799 191.359  91.6160  0.00  0.00     0.000 OA
ATOM     35   O  SGN C   2      54.708 192.619  89.5540  0.00  0.00     0.000 OA
ATOM     36   O  SGN C   2      54.741 190.202  89.4900  0.00  0.00     0.000 OA
ATOM     37   O  SGN C   2      56.713 191.424  90.1700  0.00  0.00     0.000 O
ENDBRANCH 22 32
BRANCH 18 38
ATOM     38  O4  IDS C   3      59.888 192.620  92.8150  0.00  0.00     0.000 O
BRANCH 38 42
ATOM     39  C1  IDS C   3      60.472 195.669  91.2360  0.00  0.00     0.000 C
ATOM     40  C2  IDS C   3      61.524 194.549  91.2090  0.00  0.00     0.000 C
ATOM     41  C3  IDS C   3      61.827 194.041  92.6180  0.00  0.00     0.000 C
ATOM     42  C4  IDS C   3      60.544 193.756  93.3880  0.00  0.00     0.000 C
ATOM     43  C5  IDS C   3      59.621 194.979  93.3300  0.00  0.00     0.000 C
ATOM     44  O5  IDS C   3      59.323 195.274  91.9660  0.00  0.00     0.000 O
ATOM     45   O  IDS C   3      62.602 195.017  93.3170  0.00  0.00     0.000 O
ATOM     47  HD  IDS C   3      62.505 195.857  93.5030  0.00  0.00     0.000 HD
BRANCH 40 47
ATOM     47   O  IDS C   3      61.037 193.396  90.4150  0.00  0.00     0.000 O
ATOM     48   S  IDS C   3      61.473 193.242  88.8850  0.00  0.00     0.000 S
ATOM     49   O  IDS C   3      60.665 194.186  88.1440  0.00  0.00     0.000 OA
ATOM     50   O  IDS C   3      61.175 191.869  88.5400  0.00  0.00     0.000 OA
ATOM     51   O  IDS C   3      62.878 193.546  88.8300  0.00  0.00     0.000 OA
ENDBRANCH 40 47
BRANCH 43 52
ATOM     52   C  IDS C   3      58.334 194.779  94.0990  0.00  0.00     0.000 C
ATOM     53   O  IDS C   3      57.283 194.703  93.5060  0.00  0.00     0.000 OA
ATOM     54   O  IDS C   3      58.364 194.697  95.3010  0.00  0.00     0.000 OA
ENDBRANCH 43 52
BRANCH 39 55
ATOM     55  O4  SGN C   4      60.773 196.962  91.3550  0.00  0.00     0.000 O
BRANCH 55 59
ATOM     56  C1  SGN C   4      59.181 199.365  88.3220  0.00  0.00     0.000 C
ATOM     57  C2  SGN C   4      60.647 198.930  88.1560  0.00  0.00     0.000 C
ATOM     58  C3  SGN C   4      60.975 197.767  89.0890  0.00  0.00     0.000 C
ATOM     59  C4  SGN C   4      60.558 198.090  90.5190  0.00  0.00     0.000 C
ATOM     60  C5  SGN C   4      59.079 198.469  90.5250  0.00  0.00     0.000 C
ATOM     61  O5  SGN C   4      58.906 199.630  89.6880  0.00  0.00     0.000 O
ATOM     62   O  SGN C   4      62.367 197.483  89.0240  0.00  0.00     0.000 O
ATOM     64  HD  SGN C   4      62.177 197.816  88.2470  0.00  0.00     0.000 HD
BRANCH 57 66
ATOM     64   N  SGN C   4      60.533 198.934  86.6890  0.00  0.00     0.000 N
ATOM     66  HD  SGN C   4      60.504 199.535  86.0660  0.00  0.00     0.000 HD
ATOM     66   S  SGN C   4      61.602 199.709  85.7940  0.00  0.00     0.000 S
ATOM     67   O  SGN C   4      61.195 199.584  84.4420  0.00  0.00     0.000 OA
ATOM     68   O  SGN C   4      61.758 201.005  86.3600  0.00  0.00     0.000 OA
ATOM     69   O  SGN C   4      62.923 198.905  86.0150  0.00  0.00     0.000 OA
ENDBRANCH 57 66
BRANCH 60 70
ATOM     70   C  SGN C   4      58.540 198.805  91.8990  0.00  0.00     0.000 C
ATOM     71   O  SGN C   4      59.191 201.933  93.8740  0.00  0.00     0.000 OA
ATOM     72   O  SGN C   4      57.215 201.382  92.5940  0.00  0.00     0.000 OA
ATOM     73   O  SGN C   4      59.174 199.992  92.4130  0.00  0.00     0.000 O
ATOM     74   S  SGN C   4      58.304 200.892  93.4080  0.00  0.00     0.000 S
ATOM     75   O  SGN C   4      57.879 199.984  94.4540  0.00  0.00     0.000 OA
ENDBRANCH 60 70
BRANCH 56 76
ATOM     76  O4  IDS C   5      58.014 199.063  87.7240  0.00  0.00     0.000 O
BRANCH 76 80
ATOM     77  C1  IDS C   5      55.893 195.858  89.0990  0.00  0.00     0.000 C
ATOM     78  C2  IDS C   5      56.729 195.577  87.8500  0.00  0.00     0.000 C
ATOM     79  C3  IDS C   5      57.785 196.652  87.6860  0.00  0.00     0.000 C
ATOM     80  C4  IDS C   5      57.111 197.992  87.4070  0.00  0.00     0.000 C
ATOM     81  C5  IDS C   5      55.832 198.103  88.2490  0.00  0.00     0.000 C
ATOM     82  O5  IDS C   5      55.912 197.254  89.3980  0.00  0.00     0.000 O
BRANCH 78 83
ATOM     83   O  IDS C   5      57.408 194.265  87.9580  0.00  0.00     0.000 O
ATOM     84   S  IDS C   5      57.303 193.216  86.7610  0.00  0.00     0.000 S
ATOM     85   O  IDS C   5      55.906 193.138  86.4250  0.00  0.00     0.000 OA
ATOM     86   O  IDS C   5      58.112 193.770  85.7000  0.00  0.00     0.000 OA
ATOM     87   O  IDS C   5      57.835 191.979  87.2770  0.00  0.00     0.000 OA
ENDBRANCH 78 83
BRANCH 81 88
ATOM     88   C  IDS C   5      55.537 199.509  88.7390  0.00  0.00     0.000 C
ATOM     89   O  IDS C   5      55.207 200.359  87.9570  0.00  0.00     0.000 OA
ATOM     90   O  IDS C   5      55.635 199.765  89.9180  0.00  0.00     0.000 OA
ENDBRANCH 81 88
ENDBRANCH 76 80
ENDBRANCH 56 76
ENDBRANCH 55 59
ENDBRANCH 39 55
ENDBRANCH 38 42
ENDBRANCH 18 38
ENDBRANCH 17 21
ENDBRANCH 1 17
TORSDOF 18
ENDMDL
MODEL 94
REMARK VINA RESULT:      -1.5    196.188    202.858
ROOT
ATOM      1  C1  IDS C   1     136.322 174.873 190.2010  0.00  0.00     0.000 C
ATOM      2  C2  IDS C   1     134.839 175.107 190.5030  0.00  0.00     0.000 C
ATOM      3  C3  IDS C   1     134.604 176.529 190.9890  0.00  0.00     0.000 C
ATOM      4  C4  IDS C   1     135.422 176.810 192.2420  0.00  0.00     0.000 C
ATOM      5  C5  IDS C   1     136.798 176.162 192.1250  0.00  0.00     0.000 C
ATOM      6  O5  IDS C   1     137.111 175.919 190.7530  0.00  0.00     0.000 O
ATOM      7   O  IDS C   1     133.209 176.725 191.2610  0.00  0.00     0.000 O
ATOM      9  HD  IDS C   1     132.753 176.283 190.6730  0.00  0.00     0.000 HD
ENDROOT
BRANCH 2 9
ATOM      9   O  IDS C   1     134.016 174.909 189.2880  0.00  0.00     0.000 O
ATOM     10   S  IDS C   1     132.801 173.877 189.3250  0.00  0.00     0.000 S
ATOM     11   O  IDS C   1     132.201 173.925 188.0100  0.00  0.00     0.000 OA
ATOM     12   O  IDS C   1     133.391 172.590 189.6280  0.00  0.00     0.000 OA
ATOM     13   O  IDS C   1     131.913 174.350 190.3640  0.00  0.00     0.000 OA
ENDBRANCH 2 9
BRANCH 5 14
ATOM     14   C  IDS C   1     137.893 177.030 192.7210  0.00  0.00     0.000 C
ATOM     15   O  IDS C   1     137.746 177.498 193.8240  0.00  0.00     0.000 OA
ATOM     16   O  IDS C   1     138.909 177.248 192.0820  0.00  0.00     0.000 OA
ENDBRANCH 5 14
BRANCH 1 17
ATOM     17  O4  SGN C   2     136.749 174.215 189.1190  0.00  0.00     0.000 O
BRANCH 17 21
ATOM     18  C1  SGN C   2     138.474 173.869 185.3200  0.00  0.00     0.000 C
ATOM     19  C2  SGN C   2     138.702 175.193 186.0600  0.00  0.00     0.000 C
ATOM     20  C3  SGN C   2     138.394 175.015 187.5520  0.00  0.00     0.000 C
ATOM     21  C4  SGN C   2     136.995 174.437 187.7330  0.00  0.00     0.000 C
ATOM     22  C5  SGN C   2     136.893 173.126 186.9580  0.00  0.00     0.000 C
ATOM     23  O5  SGN C   2     137.178 173.361 185.5600  0.00  0.00     0.000 O
ATOM     24   O  SGN C   2     138.520 176.257 188.2230  0.00  0.00     0.000 O
ATOM     26  HD  SGN C   2     138.610 175.403 188.1110  0.00  0.00     0.000 HD
BRANCH 19 28
ATOM     26   N  SGN C   2     139.415 176.302 185.4100  0.00  0.00     0.000 N
ATOM     28  HD  SGN C   2     138.617 176.614 185.5320  0.00  0.00     0.000 HD
ATOM     28   O  SGN C   2     141.540 177.558 185.0520  0.00  0.00     0.000 OA
ATOM     29   S  SGN C   2     140.521 177.180 186.1790  0.00  0.00     0.000 S
ATOM     30   O  SGN C   2     139.889 178.360 186.6310  0.00  0.00     0.000 OA
ATOM     31   O  SGN C   2     141.173 176.331 187.1150  0.00  0.00     0.000 OA
ENDBRANCH 19 28
BRANCH 22 32
ATOM     32   C  SGN C   2     135.523 172.497 187.0240  0.00  0.00     0.000 C
ATOM     33   S  SGN C   2     133.741 171.562 185.4140  0.00  0.00     0.000 S
ATOM     34   O  SGN C   2     133.299 172.879 185.0290  0.00  0.00     0.000 OA
ATOM     35   O  SGN C   2     133.768 170.615 184.3190  0.00  0.00     0.000 OA
ATOM     36   O  SGN C   2     133.099 171.049 186.6020  0.00  0.00     0.000 OA
ATOM     37   O  SGN C   2     135.272 171.763 185.8190  0.00  0.00     0.000 O
ENDBRANCH 22 32
BRANCH 18 38
ATOM     38  O4  IDS C   3     139.241 172.779 185.2470  0.00  0.00     0.000 O
BRANCH 38 42
ATOM     39  C1  IDS C   3     141.509 170.167 185.6470  0.00  0.00     0.000 C
ATOM     40  C2  IDS C   3     141.993 171.614 185.4610  0.00  0.00     0.000 C
ATOM     41  C3  IDS C   3     141.361 172.253 184.2250  0.00  0.00     0.000 C
ATOM     42  C4  IDS C   3     139.856 172.026 184.1960  0.00  0.00     0.000 C
ATOM     43  C5  IDS C   3     139.552 170.534 184.3750  0.00  0.00     0.000 C
ATOM     44  O5  IDS C   3     140.093 170.093 185.6190  0.00  0.00     0.000 O
ATOM     45   O  IDS C   3     141.955 171.699 183.0500  0.00  0.00     0.000 O
ATOM     47  HD  IDS C   3     142.062 170.898 182.7380  0.00  0.00     0.000 HD
BRANCH 40 47
ATOM     47   O  IDS C   3     141.618 172.443 186.6310  0.00  0.00     0.000 O
ATOM     48   S  IDS C   3     142.544 172.445 187.9350  0.00  0.00     0.000 S
ATOM     49   O  IDS C   3     142.258 171.207 188.6280  0.00  0.00     0.000 OA
ATOM     50   O  IDS C   3     142.136 173.609 188.6900  0.00  0.00     0.000 OA
ATOM     51   O  IDS C   3     143.903 172.521 187.4680  0.00  0.00     0.000 OA
ENDBRANCH 40 47
BRANCH 43 52
ATOM     52   C  IDS C   3     138.071 170.228 184.3290  0.00  0.00     0.000 C
ATOM     53   O  IDS C   3     137.399 170.639 183.4110  0.00  0.00     0.000 OA
ATOM     54   O  IDS C   3     137.569 169.574 185.2070  0.00  0.00     0.000 OA
ENDBRANCH 43 52
BRANCH 39 55
ATOM     55  O4  SGN C   4     142.118 169.110 185.1110  0.00  0.00     0.000 O
BRANCH 55 59
ATOM     56  C1  SGN C   4     142.073 165.491 187.2110  0.00  0.00     0.000 C
ATOM     57  C2  SGN C   4     142.995 166.593 187.7600  0.00  0.00     0.000 C
ATOM     58  C3  SGN C   4     142.630 167.951 187.1650  0.00  0.00     0.000 C
ATOM     59  C4  SGN C   4     142.560 167.869 185.6440  0.00  0.00     0.000 C
ATOM     60  C5  SGN C   4     141.585 166.759 185.2570  0.00  0.00     0.000 C
ATOM     61  O5  SGN C   4     142.080 165.516 185.7930  0.00  0.00     0.000 O
ATOM     62   O  SGN C   4     143.586 168.921 187.5710  0.00  0.00     0.000 O
ATOM     64  HD  SGN C   4     143.586 168.336 188.2100  0.00  0.00     0.000 HD
BRANCH 57 66
ATOM     64   N  SGN C   4     144.042 166.780 188.7780  0.00  0.00     0.000 N
ATOM     66  HD  SGN C   4     144.066 166.901 189.6350  0.00  0.00     0.000 HD
ATOM     66   S  SGN C   4     144.097 165.841 190.0670  0.00  0.00     0.000 S
ATOM     67   O  SGN C   4     145.163 166.299 190.8810  0.00  0.00     0.000 OA
ATOM     68   O  SGN C   4     142.780 165.791 190.6020  0.00  0.00     0.000 OA
ATOM     69   O  SGN C   4     144.455 164.435 189.4870  0.00  0.00     0.000 OA
ENDBRANCH 57 66
BRANCH 60 70
ATOM     70   C  SGN C   4     141.421 166.585 183.7620  0.00  0.00     0.000 C
ATOM     71   O  SGN C   4     138.860 168.237 181.5680  0.00  0.00     0.000 OA
ATOM     72   O  SGN C   4     141.187 168.841 181.8290  0.00  0.00     0.000 OA
ATOM     73   O  SGN C   4     140.206 167.215 183.3120  0.00  0.00     0.000 O
ATOM     74   S  SGN C   4     140.207 167.778 181.8150  0.00  0.00     0.000 S
ATOM     75   O  SGN C   4     140.593 166.648 180.9940  0.00  0.00     0.000 OA
ENDBRANCH 60 70
BRANCH 56 76
ATOM     76  O4  IDS C   5     140.920 164.918 187.6030  0.00  0.00     0.000 O
BRANCH 76 80
ATOM     77  C1  IDS C   5     137.312 166.629 186.7580  0.00  0.00     0.000 C
ATOM     78  C2  IDS C   5     137.883 166.996 188.1280  0.00  0.00     0.000 C
ATOM     79  C3  IDS C   5     139.367 166.689 188.1650  0.00  0.00     0.000 C
ATOM     80  C4  IDS C   5     139.581 165.183 188.0470  0.00  0.00     0.000 C
ATOM     81  C5  IDS C   5     138.562 164.601 187.0570  0.00  0.00     0.000 C
ATOM     82  O5  IDS C   5     138.108 165.611 186.1510  0.00  0.00     0.000 O
BRANCH 78 83
ATOM     83   O  IDS C   5     137.695 168.439 188.4050  0.00  0.00     0.000 O
ATOM     84   S  IDS C   5     136.955 168.901 189.7410  0.00  0.00     0.000 S
ATOM     85   O  IDS C   5     135.751 168.118 189.8160  0.00  0.00     0.000 OA
ATOM     86   O  IDS C   5     137.886 168.615 190.8070  0.00  0.00     0.000 OA
ATOM     87   O  IDS C   5     136.708 170.313 189.5820  0.00  0.00     0.000 OA
ENDBRANCH 78 83
BRANCH 81 88
ATOM     88   C  IDS C   5     139.099 163.450 186.2260  0.00  0.00     0.000 C
ATOM     89   O  IDS C   5     139.409 163.633 185.0790  0.00  0.00     0.000 OA
ATOM     90   O  IDS C   5     139.214 162.354 186.7250  0.00  0.00     0.000 OA
ENDBRANCH 81 88
ENDBRANCH 76 80
ENDBRANCH 56 76
ENDBRANCH 55 59
ENDBRANCH 39 55
ENDBRANCH 38 42
ENDBRANCH 18 38
ENDBRANCH 17 21
ENDBRANCH 1 17
TORSDOF 18
ENDMDL
MODEL 95
REMARK VINA RESULT:      -1.5    121.442    127.409
ROOT
ATOM      1  C1  IDS C   1     119.213   8.449 176.9870  0.00  0.00     0.000 C
ATOM      2  C2  IDS C   1     117.793   7.878 177.0180  0.00  0.00     0.000 C
ATOM      3  C3  IDS C   1     117.794   6.404 176.6430  0.00  0.00     0.000 C
ATOM      4  C4  IDS C   1     118.385   6.204 175.2540  0.00  0.00     0.000 C
ATOM      5  C5  IDS C   1     119.573   7.140 175.0510  0.00  0.00     0.000 C
ATOM      6  O5  IDS C   1     120.091   7.556 176.3150  0.00  0.00     0.000 O
ATOM      7   O  IDS C   1     116.454   5.892 176.6830  0.00  0.00     0.000 O
ATOM      9  HD  IDS C   1     116.038   6.271 177.3400  0.00  0.00     0.000 HD
ENDROOT
BRANCH 2 9
ATOM      9   O  IDS C   1     117.208   7.993 178.3740  0.00  0.00     0.000 O
ATOM     10   S  IDS C   1     115.811   8.738 178.5640  0.00  0.00     0.000 S
ATOM     11   O  IDS C   1     115.514   8.668 179.9770  0.00  0.00     0.000 OA
ATOM     12   O  IDS C   1     116.025  10.093 178.0990  0.00  0.00     0.000 OA
ATOM     13   O  IDS C   1     114.861   8.007 177.7540  0.00  0.00     0.000 OA
ENDBRANCH 2 9
BRANCH 5 14
ATOM     14   C  IDS C   1     120.693   6.482 174.2640  0.00  0.00     0.000 C
ATOM     15   O  IDS C   1     120.424   5.795 173.3080  0.00  0.00     0.000 OA
ATOM     16   O  IDS C   1     121.852   6.650 174.6040  0.00  0.00     0.000 OA
ENDBRANCH 5 14
BRANCH 1 17
ATOM     17  O4  SGN C   2     119.689   9.269 177.9290  0.00  0.00     0.000 O
BRANCH 17 21
ATOM     18  C1  SGN C   2     122.156  10.310 181.1460  0.00  0.00     0.000 C
ATOM     19  C2  SGN C   2     122.534   9.039 180.3740  0.00  0.00     0.000 C
ATOM     20  C3  SGN C   2     121.825   9.028 179.0150  0.00  0.00     0.000 C
ATOM     21  C4  SGN C   2     120.324   9.216 179.2030  0.00  0.00     0.000 C
ATOM     22  C5  SGN C   2     120.077  10.509 179.9760  0.00  0.00     0.000 C
ATOM     23  O5  SGN C   2     120.755  10.453 181.2520  0.00  0.00     0.000 O
ATOM     24   O  SGN C   2     122.103   7.814 178.3360  0.00  0.00     0.000 O
ATOM     26  HD  SGN C   2     121.989   8.669 178.4190  0.00  0.00     0.000 HD
BRANCH 19 28
ATOM     26   N  SGN C   2     123.935   8.859 180.7770  0.00  0.00     0.000 N
ATOM     28  HD  SGN C   2     123.560   9.195 181.4820  0.00  0.00     0.000 HD
ATOM     28   O  SGN C   2     126.054   7.553 180.6120  0.00  0.00     0.000 OA
ATOM     29   S  SGN C   2     124.564   7.408 181.0710  0.00  0.00     0.000 S
ATOM     30   O  SGN C   2     124.540   7.210 182.4690  0.00  0.00     0.000 OA
ATOM     31   O  SGN C   2     123.915   6.475 180.2170  0.00  0.00     0.000 OA
ENDBRANCH 19 28
BRANCH 22 32
ATOM     32   C  SGN C   2     118.619  10.762 180.2690  0.00  0.00     0.000 C
ATOM     33   S  SGN C   2     117.155  12.535 181.4330  0.00  0.00     0.000 S
ATOM     34   O  SGN C   2     117.507  12.061 182.7480  0.00  0.00     0.000 OA
ATOM     35   O  SGN C   2     117.053  13.976 181.3420  0.00  0.00     0.000 OA
ATOM     36   O  SGN C   2     116.037  11.841 180.8370  0.00  0.00     0.000 OA
ATOM     37   O  SGN C   2     118.414  12.156 180.5280  0.00  0.00     0.000 O
ENDBRANCH 22 32
BRANCH 18 38
ATOM     38  O4  IDS C   3     122.601  11.562 181.0150  0.00  0.00     0.000 O
BRANCH 38 42
ATOM     39  C1  IDS C   3     124.547  14.281 180.0410  0.00  0.00     0.000 C
ATOM     40  C2  IDS C   3     125.195  12.943 180.4330  0.00  0.00     0.000 C
ATOM     41  C3  IDS C   3     124.696  12.466 181.7960  0.00  0.00     0.000 C
ATOM     42  C4  IDS C   3     123.178  12.542 181.8850  0.00  0.00     0.000 C
ATOM     43  C5  IDS C   3     122.704  13.944 181.4810  0.00  0.00     0.000 C
ATOM     44  O5  IDS C   3     123.135  14.216 180.1480  0.00  0.00     0.000 O
ATOM     45   O  IDS C   3     125.279  13.270 182.8230  0.00  0.00     0.000 O
ATOM     47  HD  IDS C   3     125.313  14.120 182.9900  0.00  0.00     0.000 HD
BRANCH 40 47
ATOM     47   O  IDS C   3     124.859  11.892 179.4430  0.00  0.00     0.000 O
ATOM     48   S  IDS C   3     126.027  11.044 178.7560  0.00  0.00     0.000 S
ATOM     49   O  IDS C   3     126.607  11.908 177.7500  0.00  0.00     0.000 OA
ATOM     50   O  IDS C   3     125.372   9.889 178.1820  0.00  0.00     0.000 OA
ATOM     51   O  IDS C   3     126.955  10.706 179.8020  0.00  0.00     0.000 OA
ENDBRANCH 40 47
BRANCH 43 52
ATOM     52   C  IDS C   3     121.202  14.103 181.5710  0.00  0.00     0.000 C
ATOM     53   O  IDS C   3     120.596  14.630 180.6670  0.00  0.00     0.000 OA
ATOM     54   O  IDS C   3     120.617  13.703 182.5450  0.00  0.00     0.000 OA
ENDBRANCH 43 52
BRANCH 39 55
ATOM     55  O4  SGN C   4     125.062  15.470 180.3540  0.00  0.00     0.000 O
BRANCH 55 59
ATOM     56  C1  SGN C   4     128.247  16.599 177.8870  0.00  0.00     0.000 C
ATOM     57  C2  SGN C   4     128.566  16.414 179.3800  0.00  0.00     0.000 C
ATOM     58  C3  SGN C   4     127.453  15.637 180.0800  0.00  0.00     0.000 C
ATOM     59  C4  SGN C   4     126.095  16.262 179.7850  0.00  0.00     0.000 C
ATOM     60  C5  SGN C   4     125.911  16.347 178.2710  0.00  0.00     0.000 C
ATOM     61  O5  SGN C   4     126.960  17.177 177.7340  0.00  0.00     0.000 O
ATOM     62   O  SGN C   4     127.700  15.610 181.4790  0.00  0.00     0.000 O
ATOM     64  HD  SGN C   4     128.486  15.673 181.1220  0.00  0.00     0.000 HD
BRANCH 57 66
ATOM     64   N  SGN C   4     129.910  16.716 178.8620  0.00  0.00     0.000 N
ATOM     66  HD  SGN C   4     130.553  17.257 179.0690  0.00  0.00     0.000 HD
ATOM     66   S  SGN C   4     131.180  16.670 179.8270  0.00  0.00     0.000 S
ATOM     67   O  SGN C   4     132.308  17.063 179.0620  0.00  0.00     0.000 OA
ATOM     68   O  SGN C   4     130.840  17.402 180.9980  0.00  0.00     0.000 OA
ATOM     69   O  SGN C   4     131.308  15.159 180.2010  0.00  0.00     0.000 OA
ENDBRANCH 57 66
BRANCH 60 70
ATOM     70   C  SGN C   4     124.587  16.945 177.8490  0.00  0.00     0.000 C
ATOM     71   O  SGN C   4     122.496  15.938 174.8950  0.00  0.00     0.000 OA
ATOM     72   O  SGN C   4     122.153  15.347 177.2150  0.00  0.00     0.000 OA
ATOM     73   O  SGN C   4     124.195  16.443 176.5560  0.00  0.00     0.000 O
ATOM     74   S  SGN C   4     122.624  16.341 176.2770  0.00  0.00     0.000 S
ATOM     75   O  SGN C   4     122.113  17.671 176.5410  0.00  0.00     0.000 OA
ENDBRANCH 60 70
BRANCH 56 76
ATOM     76  O4  IDS C   5     128.530  15.932 176.7530  0.00  0.00     0.000 O
BRANCH 76 80
ATOM     77  C1  IDS C   5     128.528  13.854 173.2390  0.00  0.00     0.000 C
ATOM     78  C2  IDS C   5     127.413  13.462 174.2090  0.00  0.00     0.000 C
ATOM     79  C3  IDS C   5     127.228  14.551 175.2480  0.00  0.00     0.000 C
ATOM     80  C4  IDS C   5     128.480  14.646 176.1150  0.00  0.00     0.000 C
ATOM     81  C5  IDS C   5     129.723  14.434 175.2400  0.00  0.00     0.000 C
ATOM     82  O5  IDS C   5     129.437  14.753 173.8750  0.00  0.00     0.000 O
BRANCH 78 83
ATOM     83   O  IDS C   5     126.131  13.281 173.4880  0.00  0.00     0.000 O
ATOM     84   S  IDS C   5     125.331  11.908 173.6260  0.00  0.00     0.000 S
ATOM     85   O  IDS C   5     126.295  10.864 173.4000  0.00  0.00     0.000 OA
ATOM     86   O  IDS C   5     124.803  11.912 174.9700  0.00  0.00     0.000 OA
ATOM     87   O  IDS C   5     124.297  11.956 172.6220  0.00  0.00     0.000 OA
ENDBRANCH 78 83
BRANCH 81 88
ATOM     88   C  IDS C   5     130.923  15.262 175.6610  0.00  0.00     0.000 C
ATOM     89   O  IDS C   5     131.255  16.212 175.0050  0.00  0.00     0.000 OA
ATOM     90   O  IDS C   5     131.538  14.961 176.6590  0.00  0.00     0.000 OA
ENDBRANCH 81 88
ENDBRANCH 76 80
ENDBRANCH 56 76
ENDBRANCH 55 59
ENDBRANCH 39 55
ENDBRANCH 38 42
ENDBRANCH 18 38
ENDBRANCH 17 21
ENDBRANCH 1 17
TORSDOF 18
ENDMDL
MODEL 96
REMARK VINA RESULT:      -1.4    175.245    178.223
ROOT
ATOM      1  C1  IDS C   1      19.032 134.377  41.4910  0.00  0.00     0.000 C
ATOM      2  C2  IDS C   1      19.607 135.265  40.3830  0.00  0.00     0.000 C
ATOM      3  C3  IDS C   1      18.733 135.210  39.1390  0.00  0.00     0.000 C
ATOM      4  C4  IDS C   1      18.617 133.780  38.6270  0.00  0.00     0.000 C
ATOM      5  C5  IDS C   1      18.498 132.813  39.8000  0.00  0.00     0.000 C
ATOM      6  O5  IDS C   1      18.042 133.505  40.9630  0.00  0.00     0.000 O
ATOM      7   O  IDS C   1      19.288 136.052  38.1180  0.00  0.00     0.000 O
ATOM      9  HD  IDS C   1      19.627 136.752  38.4980  0.00  0.00     0.000 HD
ENDROOT
BRANCH 2 9
ATOM      9   O  IDS C   1      19.671 136.678  40.8210  0.00  0.00     0.000 O
ATOM     10   S  IDS C   1      21.054 137.466  40.7250  0.00  0.00     0.000 S
ATOM     11   O  IDS C   1      20.783 138.802  41.2070  0.00  0.00     0.000 OA
ATOM     12   O  IDS C   1      21.977 136.737  41.5720  0.00  0.00     0.000 OA
ATOM     13   O  IDS C   1      21.429 137.438  39.3290  0.00  0.00     0.000 OA
ENDBRANCH 2 9
BRANCH 5 14
ATOM     14   C  IDS C   1      17.535 131.674  39.5090  0.00  0.00     0.000 C
ATOM     15   O  IDS C   1      16.625 131.457  40.2710  0.00  0.00     0.000 OA
ATOM     16   O  IDS C   1      17.690 130.991  38.5110  0.00  0.00     0.000 OA
ENDBRANCH 5 14
BRANCH 1 17
ATOM     17  O4  SGN C   2      18.974 134.757  42.7710  0.00  0.00     0.000 O
BRANCH 17 21
ATOM     18  C1  SGN C   2      17.098 136.143  46.2470  0.00  0.00     0.000 C
ATOM     19  C2  SGN C   2      16.185 135.574  45.1540  0.00  0.00     0.000 C
ATOM     20  C3  SGN C   2      17.012 134.741  44.1670  0.00  0.00     0.000 C
ATOM     21  C4  SGN C   2      18.178 135.565  43.6340  0.00  0.00     0.000 C
ATOM     22  C5  SGN C   2      19.011 136.068  44.8090  0.00  0.00     0.000 C
ATOM     23  O5  SGN C   2      18.183 136.858  45.6930  0.00  0.00     0.000 O
ATOM     24   O  SGN C   2      16.185 134.287  43.1090  0.00  0.00     0.000 O
ATOM     26  HD  SGN C   2      16.801 134.230  43.7150  0.00  0.00     0.000 HD
BRANCH 19 28
ATOM     26   N  SGN C   2      14.957 135.301  45.9130  0.00  0.00     0.000 N
ATOM     28  HD  SGN C   2      15.281 136.008  46.2940  0.00  0.00     0.000 HD
ATOM     28   O  SGN C   2      12.613 134.449  45.9500  0.00  0.00     0.000 OA
ATOM     29   S  SGN C   2      13.493 135.571  45.3050  0.00  0.00     0.000 S
ATOM     30   O  SGN C   2      13.055 136.824  45.7910  0.00  0.00     0.000 OA
ATOM     31   O  SGN C   2      13.560 135.346  43.9030  0.00  0.00     0.000 OA
ENDBRANCH 19 28
BRANCH 22 32
ATOM     32   C  SGN C   2      20.165 136.947  44.3920  0.00  0.00     0.000 C
ATOM     33   S  SGN C   2      21.194 139.224  45.0240  0.00  0.00     0.000 S
ATOM     34   O  SGN C   2      20.167 139.959  44.3280  0.00  0.00     0.000 OA
ATOM     35   O  SGN C   2      21.600 139.836  46.2720  0.00  0.00     0.000 OA
ATOM     36   O  SGN C   2      22.303 138.829  44.1890  0.00  0.00     0.000 OA
ATOM     37   O  SGN C   2      20.482 137.860  45.4500  0.00  0.00     0.000 O
ENDBRANCH 22 32
BRANCH 18 38
ATOM     38  O4  IDS C   3      17.616 135.556  47.3290  0.00  0.00     0.000 O
BRANCH 38 42
ATOM     39  C1  IDS C   3      18.775 134.551  50.4550  0.00  0.00     0.000 C
ATOM     40  C2  IDS C   3      19.751 134.832  49.3020  0.00  0.00     0.000 C
ATOM     41  C3  IDS C   3      19.361 134.054  48.0450  0.00  0.00     0.000 C
ATOM     42  C4  IDS C   3      17.878 134.210  47.7400  0.00  0.00     0.000 C
ATOM     43  C5  IDS C   3      17.052 133.873  48.9870  0.00  0.00     0.000 C
ATOM     44  O5  IDS C   3      17.432 134.748  50.0480  0.00  0.00     0.000 O
ATOM     45   O  IDS C   3      19.673 132.672  48.2290  0.00  0.00     0.000 O
ATOM     47  HD  IDS C   3      19.469 132.071  48.8190  0.00  0.00     0.000 HD
BRANCH 40 47
ATOM     47   O  IDS C   3      19.744 136.273  48.9530  0.00  0.00     0.000 O
ATOM     48   S  IDS C   3      20.352 137.342  49.9750  0.00  0.00     0.000 S
ATOM     49   O  IDS C   3      19.356 137.513  51.0110  0.00  0.00     0.000 OA
ATOM     50   O  IDS C   3      20.550 138.544  49.1950  0.00  0.00     0.000 OA
ATOM     51   O  IDS C   3      21.580 136.779  50.4690  0.00  0.00     0.000 OA
ENDBRANCH 40 47
BRANCH 43 52
ATOM     52   C  IDS C   3      15.562 133.979  48.7500  0.00  0.00     0.000 C
ATOM     53   O  IDS C   3      14.952 134.937  49.1660  0.00  0.00     0.000 OA
ATOM     54   O  IDS C   3      14.990 133.108  48.1460  0.00  0.00     0.000 OA
ENDBRANCH 43 52
BRANCH 39 55
ATOM     55  O4  SGN C   4      18.936 133.562  51.3350  0.00  0.00     0.000 O
BRANCH 55 59
ATOM     56  C1  SGN C   4      18.367 134.622  55.3420  0.00  0.00     0.000 C
ATOM     57  C2  SGN C   4      19.789 134.794  54.7800  0.00  0.00     0.000 C
ATOM     58  C3  SGN C   4      19.777 134.759  53.2540  0.00  0.00     0.000 C
ATOM     59  C4  SGN C   4      19.031 133.528  52.7520  0.00  0.00     0.000 C
ATOM     60  C5  SGN C   4      17.633 133.515  53.3670  0.00  0.00     0.000 C
ATOM     61  O5  SGN C   4      17.770 133.455  54.8000  0.00  0.00     0.000 O
ATOM     62   O  SGN C   4      21.112 134.770  52.7670  0.00  0.00     0.000 O
ATOM     64  HD  SGN C   4      21.155 135.185  53.5260  0.00  0.00     0.000 HD
BRANCH 57 66
ATOM     64   N  SGN C   4      20.050 135.923  55.6880  0.00  0.00     0.000 N
ATOM     66  HD  SGN C   4      20.235 136.020  56.5290  0.00  0.00     0.000 HD
ATOM     66   S  SGN C   4      21.378 135.963  56.5720  0.00  0.00     0.000 S
ATOM     67   O  SGN C   4      21.316 137.127  57.3790  0.00  0.00     0.000 OA
ATOM     68   O  SGN C   4      21.505 134.689  57.1910  0.00  0.00     0.000 OA
ATOM     69   O  SGN C   4      22.520 136.124  55.5180  0.00  0.00     0.000 OA
ENDBRANCH 57 66
BRANCH 60 70
ATOM     70   C  SGN C   4      16.786 132.339  52.9340  0.00  0.00     0.000 C
ATOM     71   O  SGN C   4      17.118 128.777  54.0790  0.00  0.00     0.000 OA
ATOM     72   O  SGN C   4      15.501 130.418  54.8150  0.00  0.00     0.000 OA
ATOM     73   O  SGN C   4      17.345 131.106  53.4260  0.00  0.00     0.000 O
ATOM     74   S  SGN C   4      16.312 129.923  53.7260  0.00  0.00     0.000 S
ATOM     75   O  SGN C   4      15.575 129.752  52.4890  0.00  0.00     0.000 OA
ENDBRANCH 60 70
BRANCH 56 76
ATOM     76  O4  IDS C   5      17.375 135.450  55.7170  0.00  0.00     0.000 O
BRANCH 76 80
ATOM     77  C1  IDS C   5      14.643 136.638  52.9270  0.00  0.00     0.000 C
ATOM     78  C2  IDS C   5      15.757 137.650  53.1960  0.00  0.00     0.000 C
ATOM     79  C3  IDS C   5      16.921 136.964  53.8820  0.00  0.00     0.000 C
ATOM     80  C4  IDS C   5      16.490 136.486  55.2650  0.00  0.00     0.000 C
ATOM     81  C5  IDS C   5      15.047 135.966  55.1970  0.00  0.00     0.000 C
ATOM     82  O5  IDS C   5      14.720 135.563  53.8640  0.00  0.00     0.000 O
BRANCH 78 83
ATOM     83   O  IDS C   5      16.243 138.243  51.9280  0.00  0.00     0.000 O
ATOM     84   S  IDS C   5      16.376 139.827  51.7940  0.00  0.00     0.000 S
ATOM     85   O  IDS C   5      15.131 140.371  52.2670  0.00  0.00     0.000 OA
ATOM     86   O  IDS C   5      17.503 140.184  52.6240  0.00  0.00     0.000 OA
ATOM     87   O  IDS C   5      16.614 140.082  50.3940  0.00  0.00     0.000 OA
ENDBRANCH 78 83
BRANCH 81 88
ATOM     88   C  IDS C   5      14.773 134.786  56.1110  0.00  0.00     0.000 C
ATOM     89   O  IDS C   5      14.703 134.953  57.2990  0.00  0.00     0.000 OA
ATOM     90   O  IDS C   5      14.626 133.683  55.6370  0.00  0.00     0.000 OA
ENDBRANCH 81 88
ENDBRANCH 76 80
ENDBRANCH 56 76
ENDBRANCH 55 59
ENDBRANCH 39 55
ENDBRANCH 38 42
ENDBRANCH 18 38
ENDBRANCH 17 21
ENDBRANCH 1 17
TORSDOF 18
ENDMDL
MODEL 97
REMARK VINA RESULT:      -1.4    166.902    173.403
ROOT
ATOM      1  C1  IDS C   1      67.011 125.923 153.4850  0.00  0.00     0.000 C
ATOM      2  C2  IDS C   1      67.279 124.418 153.4020  0.00  0.00     0.000 C
ATOM      3  C3  IDS C   1      68.304 123.994 154.4430  0.00  0.00     0.000 C
ATOM      4  C4  IDS C   1      69.612 124.748 154.2480  0.00  0.00     0.000 C
ATOM      5  C5  IDS C   1      69.328 126.198 153.8680  0.00  0.00     0.000 C
ATOM      6  O5  IDS C   1      68.008 126.562 154.2720  0.00  0.00     0.000 O
ATOM      7   O  IDS C   1      68.535 122.581 154.3490  0.00  0.00     0.000 O
ATOM      9  HD  IDS C   1      67.784 122.195 154.1560  0.00  0.00     0.000 HD
ENDROOT
BRANCH 2 9
ATOM      9   O  IDS C   1      66.041 123.647 153.6550  0.00  0.00     0.000 O
ATOM     10   S  IDS C   1      65.560 122.563 152.5890  0.00  0.00     0.000 S
ATOM     11   O  IDS C   1      64.349 121.986 153.1280  0.00  0.00     0.000 OA
ATOM     12   O  IDS C   1      65.337 123.298 151.3600  0.00  0.00     0.000 OA
ATOM     13   O  IDS C   1      66.640 121.606 152.4850  0.00  0.00     0.000 OA
ENDBRANCH 2 9
BRANCH 5 14
ATOM     14   C  IDS C   1      70.311 127.162 154.5100  0.00  0.00     0.000 C
ATOM     15   O  IDS C   1      71.484 126.881 154.5410  0.00  0.00     0.000 OA
ATOM     16   O  IDS C   1      69.907 128.208 154.9900  0.00  0.00     0.000 OA
ENDBRANCH 5 14
BRANCH 1 17
ATOM     17  O4  SGN C   2      65.786 126.450 153.4050  0.00  0.00     0.000 O
BRANCH 17 21
ATOM     18  C1  SGN C   2      62.300 128.221 154.9020  0.00  0.00     0.000 C
ATOM     19  C2  SGN C   2      63.540 128.276 155.8030  0.00  0.00     0.000 C
ATOM     20  C3  SGN C   2      64.798 127.986 154.9740  0.00  0.00     0.000 C
ATOM     21  C4  SGN C   2      64.638 126.671 154.2200  0.00  0.00     0.000 C
ATOM     22  C5  SGN C   2      63.379 126.740 153.3600  0.00  0.00     0.000 C
ATOM     23  O5  SGN C   2      62.228 126.999 154.1980  0.00  0.00     0.000 O
ATOM     24   O  SGN C   2      65.935 127.951 155.8200  0.00  0.00     0.000 O
ATOM     26  HD  SGN C   2      65.479 128.149 155.1110  0.00  0.00     0.000 HD
BRANCH 19 28
ATOM     26   N  SGN C   2      63.181 129.360 156.7280  0.00  0.00     0.000 N
ATOM     28  HD  SGN C   2      62.423 128.982 156.5490  0.00  0.00     0.000 HD
ATOM     28   O  SGN C   2      63.786 130.795 158.6760  0.00  0.00     0.000 OA
ATOM     29   S  SGN C   2      63.523 129.299 158.2980  0.00  0.00     0.000 S
ATOM     30   O  SGN C   2      62.360 128.861 158.9690  0.00  0.00     0.000 OA
ATOM     31   O  SGN C   2      64.736 128.573 158.4470  0.00  0.00     0.000 OA
ENDBRANCH 19 28
BRANCH 22 32
ATOM     32   C  SGN C   2      63.094 125.461 152.6120  0.00  0.00     0.000 C
ATOM     33   S  SGN C   2      61.093 123.920 152.0970  0.00  0.00     0.000 S
ATOM     34   O  SGN C   2      61.113 123.339 153.4160  0.00  0.00     0.000 OA
ATOM     35   O  SGN C   2      59.759 124.140 151.5790  0.00  0.00     0.000 OA
ATOM     36   O  SGN C   2      61.977 123.274 151.1560  0.00  0.00     0.000 OA
ATOM     37   O  SGN C   2      61.698 125.384 152.3030  0.00  0.00     0.000 O
ENDBRANCH 22 32
BRANCH 18 38
ATOM     38  O4  IDS C   3      61.820 129.120 154.0410  0.00  0.00     0.000 O
BRANCH 38 42
ATOM     39  C1  IDS C   3      60.168 131.965 152.8980  0.00  0.00     0.000 C
ATOM     40  C2  IDS C   3      59.621 131.155 154.0840  0.00  0.00     0.000 C
ATOM     41  C3  IDS C   3      59.493 129.673 153.7290  0.00  0.00     0.000 C
ATOM     42  C4  IDS C   3      60.765 129.153 153.0730  0.00  0.00     0.000 C
ATOM     43  C5  IDS C   3      61.156 130.063 151.9030  0.00  0.00     0.000 C
ATOM     44  O5  IDS C   3      61.359 131.388 152.3900  0.00  0.00     0.000 O
ATOM     45   O  IDS C   3      58.386 129.492 152.8450  0.00  0.00     0.000 O
ATOM     47  HD  IDS C   3      58.151 129.827 152.0810  0.00  0.00     0.000 HD
BRANCH 40 47
ATOM     47   O  IDS C   3      60.533 131.256 155.2480  0.00  0.00     0.000 O
ATOM     48   S  IDS C   3      60.174 132.242 156.4560  0.00  0.00     0.000 S
ATOM     49   O  IDS C   3      60.500 133.573 155.9920  0.00  0.00     0.000 OA
ATOM     50   O  IDS C   3      61.014 131.818 157.5550  0.00  0.00     0.000 OA
ATOM     51   O  IDS C   3      58.770 132.070 156.7180  0.00  0.00     0.000 OA
ENDBRANCH 40 47
BRANCH 43 52
ATOM     52   C  IDS C   3      62.399 129.590 151.1830  0.00  0.00     0.000 C
ATOM     53   O  IDS C   3      63.412 130.249 151.2330  0.00  0.00     0.000 OA
ATOM     54   O  IDS C   3      62.374 128.557 150.5630  0.00  0.00     0.000 OA
ENDBRANCH 43 52
BRANCH 39 55
ATOM     55  O4  SGN C   4      59.395 132.523 151.9660  0.00  0.00     0.000 O
BRANCH 55 59
ATOM     56  C1  SGN C   4      60.840 135.860 149.8970  0.00  0.00     0.000 C
ATOM     57  C2  SGN C   4      60.412 136.089 151.3570  0.00  0.00     0.000 C
ATOM     58  C3  SGN C   4      60.289 134.761 152.0990  0.00  0.00     0.000 C
ATOM     59  C4  SGN C   4      59.415 133.787 151.3170  0.00  0.00     0.000 C
ATOM     60  C5  SGN C   4      59.984 133.640 149.9080  0.00  0.00     0.000 C
ATOM     61  O5  SGN C   4      59.965 134.934 149.2740  0.00  0.00     0.000 O
ATOM     62   O  SGN C   4      59.751 134.989 153.3950  0.00  0.00     0.000 O
ATOM     64  HD  SGN C   4      60.163 135.725 153.1990  0.00  0.00     0.000 HD
BRANCH 57 66
ATOM     64   N  SGN C   4      60.188 137.200 152.2960  0.00  0.00     0.000 N
ATOM     66  HD  SGN C   4      60.681 137.698 152.8040  0.00  0.00     0.000 HD
ATOM     66   S  SGN C   4      60.981 138.575 152.1310  0.00  0.00     0.000 S
ATOM     67   O  SGN C   4      60.603 139.416 153.2070  0.00  0.00     0.000 OA
ATOM     68   O  SGN C   4      62.353 138.245 151.9500  0.00  0.00     0.000 OA
ATOM     69   O  SGN C   4      60.428 139.164 150.7940  0.00  0.00     0.000 OA
ENDBRANCH 57 66
BRANCH 60 70
ATOM     70   C  SGN C   4      59.204 132.684 149.0310  0.00  0.00     0.000 C
ATOM     71   O  SGN C   4      59.930 129.044 148.4590  0.00  0.00     0.000 OA
ATOM     72   O  SGN C   4      58.250 130.002 149.9110  0.00  0.00     0.000 OA
ATOM     73   O  SGN C   4      59.905 131.432 148.9010  0.00  0.00     0.000 O
ATOM     74   S  SGN C   4      59.003 130.129 148.6840  0.00  0.00     0.000 S
ATOM     75   O  SGN C   4      58.181 130.435 147.5310  0.00  0.00     0.000 OA
ENDBRANCH 60 70
BRANCH 56 76
ATOM     76  O4  IDS C   5      62.010 135.825 149.2320  0.00  0.00     0.000 O
BRANCH 76 80
ATOM     77  C1  IDS C   5      65.369 133.953 147.8640  0.00  0.00     0.000 C
ATOM     78  C2  IDS C   5      65.160 133.857 149.3760  0.00  0.00     0.000 C
ATOM     79  C3  IDS C   5      63.718 134.178 149.7170  0.00  0.00     0.000 C
ATOM     80  C4  IDS C   5      63.425 135.637 149.3770  0.00  0.00     0.000 C
ATOM     81  C5  IDS C   5      64.152 136.012 148.0780  0.00  0.00     0.000 C
ATOM     82  O5  IDS C   5      64.412 134.845 147.2920  0.00  0.00     0.000 O
BRANCH 78 83
ATOM     83   O  IDS C   5      65.463 132.491 149.8610  0.00  0.00     0.000 O
ATOM     84   S  IDS C   5      66.474 132.287 151.0770  0.00  0.00     0.000 S
ATOM     85   O  IDS C   5      67.634 133.079 150.7650  0.00  0.00     0.000 OA
ATOM     86   O  IDS C   5      65.763 132.757 152.2430  0.00  0.00     0.000 OA
ATOM     87   O  IDS C   5      66.747 130.872 151.1260  0.00  0.00     0.000 OA
ENDBRANCH 78 83
BRANCH 81 88
ATOM     88   C  IDS C   5      63.387 136.990 147.2050  0.00  0.00     0.000 C
ATOM     89   O  IDS C   5      62.812 136.596 146.2260  0.00  0.00     0.000 OA
ATOM     90   O  IDS C   5      63.361 138.163 147.5010  0.00  0.00     0.000 OA
ENDBRANCH 81 88
ENDBRANCH 76 80
ENDBRANCH 56 76
ENDBRANCH 55 59
ENDBRANCH 39 55
ENDBRANCH 38 42
ENDBRANCH 18 38
ENDBRANCH 17 21
ENDBRANCH 1 17
TORSDOF 18
ENDMDL
MODEL 98
REMARK VINA RESULT:      -1.4    166.685    172.753
ROOT
ATOM      1  C1  IDS C   1      67.011 125.923 153.4850  0.00  0.00     0.000 C
ATOM      2  C2  IDS C   1      67.407 124.457 153.2890  0.00  0.00     0.000 C
ATOM      3  C3  IDS C   1      68.602 124.099 154.1600  0.00  0.00     0.000 C
ATOM      4  C4  IDS C   1      69.793 124.989 153.8300  0.00  0.00     0.000 C
ATOM      5  C5  IDS C   1      69.322 126.416 153.5670  0.00  0.00     0.000 C
ATOM      6  O5  IDS C   1      68.042 126.629 154.1630  0.00  0.00     0.000 O
ATOM      7   O  IDS C   1      68.951 122.722 153.9630  0.00  0.00     0.000 O
ATOM      9  HD  IDS C   1      68.221 122.269 153.8520  0.00  0.00     0.000 HD
ENDROOT
BRANCH 2 9
ATOM      9   O  IDS C   1      66.295 123.556 153.6660  0.00  0.00     0.000 O
ATOM     10   S  IDS C   1      65.777 122.470 152.6190  0.00  0.00     0.000 S
ATOM     11   O  IDS C   1      64.713 121.753 153.2860  0.00  0.00     0.000 OA
ATOM     12   O  IDS C   1      65.317 123.223 151.4710  0.00  0.00     0.000 OA
ATOM     13   O  IDS C   1      66.918 121.632 152.3240  0.00  0.00     0.000 OA
ENDBRANCH 2 9
BRANCH 5 14
ATOM     14   C  IDS C   1      70.288 127.450 154.1210  0.00  0.00     0.000 C
ATOM     15   O  IDS C   1      71.464 127.361 153.8640  0.00  0.00     0.000 OA
ATOM     16   O  IDS C   1      69.869 128.357 154.8200  0.00  0.00     0.000 OA
ENDBRANCH 5 14
BRANCH 1 17
ATOM     17  O4  SGN C   2      65.742 126.325 153.5980  0.00  0.00     0.000 O
BRANCH 17 21
ATOM     18  C1  SGN C   2      62.346 127.672 155.6420  0.00  0.00     0.000 C
ATOM     19  C2  SGN C   2      63.687 127.810 156.3730  0.00  0.00     0.000 C
ATOM     20  C3  SGN C   2      64.841 127.684 155.3700  0.00  0.00     0.000 C
ATOM     21  C4  SGN C   2      64.701 126.395 154.5690  0.00  0.00     0.000 C
ATOM     22  C5  SGN C   2      63.336 126.377 153.8880  0.00  0.00     0.000 C
ATOM     23  O5  SGN C   2      62.292 126.482 154.8840  0.00  0.00     0.000 O
ATOM     24   O  SGN C   2      66.082 127.724 156.0550  0.00  0.00     0.000 O
ATOM     26  HD  SGN C   2      65.517 127.907 155.4240  0.00  0.00     0.000 HD
BRANCH 19 28
ATOM     26   N  SGN C   2      63.362 128.817 157.3920  0.00  0.00     0.000 N
ATOM     28  HD  SGN C   2      62.620 128.384 157.2870  0.00  0.00     0.000 HD
ATOM     28   O  SGN C   2      64.091 130.209 159.3300  0.00  0.00     0.000 OA
ATOM     29   S  SGN C   2      63.901 128.714 158.9040  0.00  0.00     0.000 S
ATOM     30   O  SGN C   2      62.869 128.150 159.6860  0.00  0.00     0.000 OA
ATOM     31   O  SGN C   2      65.177 128.088 158.8660  0.00  0.00     0.000 OA
ENDBRANCH 19 28
BRANCH 22 32
ATOM     32   C  SGN C   2      63.071 125.110 153.1110  0.00  0.00     0.000 C
ATOM     33   S  SGN C   2      61.219 123.334 152.8740  0.00  0.00     0.000 S
ATOM     34   O  SGN C   2      61.579 122.694 154.1140  0.00  0.00     0.000 OA
ATOM     35   O  SGN C   2      59.791 123.390 152.6430  0.00  0.00     0.000 OA
ATOM     36   O  SGN C   2      61.968 122.867 151.7310  0.00  0.00     0.000 OA
ATOM     37   O  SGN C   2      61.662 124.854 153.0730  0.00  0.00     0.000 O
ENDBRANCH 22 32
BRANCH 18 38
ATOM     38  O4  IDS C   3      61.671 128.557 154.9060  0.00  0.00     0.000 O
BRANCH 38 42
ATOM     39  C1  IDS C   3      60.601 131.435 153.2620  0.00  0.00     0.000 C
ATOM     40  C2  IDS C   3      61.053 131.483 154.7300  0.00  0.00     0.000 C
ATOM     41  C3  IDS C   3      60.317 130.439 155.5690  0.00  0.00     0.000 C
ATOM     42  C4  IDS C   3      60.336 129.075 154.8920  0.00  0.00     0.000 C
ATOM     43  C5  IDS C   3      59.840 129.205 153.4470  0.00  0.00     0.000 C
ATOM     44  O5  IDS C   3      60.682 130.117 152.7450  0.00  0.00     0.000 O
ATOM     45   O  IDS C   3      58.966 130.859 155.7690  0.00  0.00     0.000 O
ATOM     47  HD  IDS C   3      58.312 131.087 155.2480  0.00  0.00     0.000 HD
BRANCH 40 47
ATOM     47   O  IDS C   3      62.503 131.199 154.8380  0.00  0.00     0.000 O
ATOM     48   S  IDS C   3      63.398 132.013 155.8850  0.00  0.00     0.000 S
ATOM     49   O  IDS C   3      63.622 133.312 155.2890  0.00  0.00     0.000 OA
ATOM     50   O  IDS C   3      64.618 131.247 156.0190  0.00  0.00     0.000 OA
ATOM     51   O  IDS C   3      62.636 132.082 157.1030  0.00  0.00     0.000 OA
ENDBRANCH 40 47
BRANCH 43 52
ATOM     52   C  IDS C   3      59.805 127.880 152.7180  0.00  0.00     0.000 C
ATOM     53   O  IDS C   3      59.066 127.002 153.0990  0.00  0.00     0.000 OA
ATOM     54   O  IDS C   3      60.515 127.707 151.7600  0.00  0.00     0.000 OA
ENDBRANCH 43 52
BRANCH 39 55
ATOM     55  O4  SGN C   4      59.582 132.145 152.7780  0.00  0.00     0.000 O
BRANCH 55 59
ATOM     56  C1  SGN C   4      59.164 132.333 148.6200  0.00  0.00     0.000 C
ATOM     57  C2  SGN C   4      60.240 133.237 149.2440  0.00  0.00     0.000 C
ATOM     58  C3  SGN C   4      60.559 132.795 150.6690  0.00  0.00     0.000 C
ATOM     59  C4  SGN C   4      59.281 132.657 151.4880  0.00  0.00     0.000 C
ATOM     60  C5  SGN C   4      58.331 131.708 150.7600  0.00  0.00     0.000 C
ATOM     61  O5  SGN C   4      58.029 132.273 149.4680  0.00  0.00     0.000 O
ATOM     62   O  SGN C   4      61.442 133.731 151.2720  0.00  0.00     0.000 O
ATOM     64  HD  SGN C   4      61.617 133.782 150.4250  0.00  0.00     0.000 HD
BRANCH 57 66
ATOM     64   N  SGN C   4      60.546 133.419 147.8160  0.00  0.00     0.000 N
ATOM     66  HD  SGN C   4      60.577 134.085 147.2630  0.00  0.00     0.000 HD
ATOM     66   S  SGN C   4      61.652 134.471 147.3500  0.00  0.00     0.000 S
ATOM     67   O  SGN C   4      61.675 134.464 145.9330  0.00  0.00     0.000 OA
ATOM     68   O  SGN C   4      61.386 135.687 148.0390  0.00  0.00     0.000 OA
ATOM     69   O  SGN C   4      62.988 133.870 147.8940  0.00  0.00     0.000 OA
ENDBRANCH 57 66
BRANCH 60 70
ATOM     70   C  SGN C   4      57.021 131.482 151.4830  0.00  0.00     0.000 C
ATOM     71   O  SGN C   4      56.455 129.319 154.5010  0.00  0.00     0.000 OA
ATOM     72   O  SGN C   4      56.671 131.727 154.4320  0.00  0.00     0.000 OA
ATOM     73   O  SGN C   4      57.158 130.432 152.4600  0.00  0.00     0.000 O
ATOM     74   S  SGN C   4      56.222 130.533 153.7520  0.00  0.00     0.000 S
ATOM     75   O  SGN C   4      54.876 130.639 153.2270  0.00  0.00     0.000 OA
ENDBRANCH 60 70
BRANCH 56 76
ATOM     76  O4  IDS C   5      59.163 131.221 147.8610  0.00  0.00     0.000 O
BRANCH 76 80
ATOM     77  C1  IDS C   5      58.978 127.668 145.8620  0.00  0.00     0.000 C
ATOM     78  C2  IDS C   5      58.693 127.568 147.3600  0.00  0.00     0.000 C
ATOM     79  C3  IDS C   5      58.354 128.939 147.9110  0.00  0.00     0.000 C
ATOM     80  C4  IDS C   5      59.576 129.847 147.8090  0.00  0.00     0.000 C
ATOM     81  C5  IDS C   5      60.316 129.559 146.4950  0.00  0.00     0.000 C
ATOM     82  O5  IDS C   5      59.426 128.983 145.5330  0.00  0.00     0.000 O
BRANCH 78 83
ATOM     83   O  IDS C   5      57.548 126.664 147.6160  0.00  0.00     0.000 O
ATOM     84   S  IDS C   5      57.709 125.452 148.6410  0.00  0.00     0.000 S
ATOM     85   O  IDS C   5      58.927 124.781 148.2730  0.00  0.00     0.000 OA
ATOM     86   O  IDS C   5      57.771 126.067 149.9470  0.00  0.00     0.000 OA
ATOM     87   O  IDS C   5      56.533 124.635 148.4670  0.00  0.00     0.000 OA
ENDBRANCH 78 83
BRANCH 81 88
ATOM     88   C  IDS C   5      60.944 130.786 145.8590  0.00  0.00     0.000 C
ATOM     89   O  IDS C   5      62.064 131.105 146.1540  0.00  0.00     0.000 OA
ATOM     90   O  IDS C   5      60.312 131.435 145.0580  0.00  0.00     0.000 OA
ENDBRANCH 81 88
ENDBRANCH 76 80
ENDBRANCH 56 76
ENDBRANCH 55 59
ENDBRANCH 39 55
ENDBRANCH 38 42
ENDBRANCH 18 38
ENDBRANCH 17 21
ENDBRANCH 1 17
TORSDOF 18
ENDMDL
MODEL 99
REMARK VINA RESULT:      -1.4    166.903    174.733
ROOT
ATOM      1  C1  IDS C   1      67.011 125.923 153.4850  0.00  0.00     0.000 C
ATOM      2  C2  IDS C   1      67.279 124.418 153.4020  0.00  0.00     0.000 C
ATOM      3  C3  IDS C   1      68.304 123.994 154.4430  0.00  0.00     0.000 C
ATOM      4  C4  IDS C   1      69.612 124.748 154.2480  0.00  0.00     0.000 C
ATOM      5  C5  IDS C   1      69.328 126.198 153.8680  0.00  0.00     0.000 C
ATOM      6  O5  IDS C   1      68.008 126.562 154.2720  0.00  0.00     0.000 O
ATOM      7   O  IDS C   1      68.535 122.581 154.3490  0.00  0.00     0.000 O
ATOM      9  HD  IDS C   1      67.784 122.195 154.1560  0.00  0.00     0.000 HD
ENDROOT
BRANCH 2 9
ATOM      9   O  IDS C   1      66.041 123.647 153.6550  0.00  0.00     0.000 O
ATOM     10   S  IDS C   1      65.522 122.614 152.5570  0.00  0.00     0.000 S
ATOM     11   O  IDS C   1      64.320 122.025 153.1030  0.00  0.00     0.000 OA
ATOM     12   O  IDS C   1      65.273 123.403 151.3670  0.00  0.00     0.000 OA
ATOM     13   O  IDS C   1      66.589 121.654 152.3830  0.00  0.00     0.000 OA
ENDBRANCH 2 9
BRANCH 5 14
ATOM     14   C  IDS C   1      70.311 127.162 154.5100  0.00  0.00     0.000 C
ATOM     15   O  IDS C   1      71.496 126.957 154.4090  0.00  0.00     0.000 OA
ATOM     16   O  IDS C   1      69.896 128.131 155.1230  0.00  0.00     0.000 OA
ENDBRANCH 5 14
BRANCH 1 17
ATOM     17  O4  SGN C   2      65.786 126.450 153.4050  0.00  0.00     0.000 O
BRANCH 17 21
ATOM     18  C1  SGN C   2      62.505 128.570 154.9110  0.00  0.00     0.000 C
ATOM     19  C2  SGN C   2      63.788 128.603 155.7500  0.00  0.00     0.000 C
ATOM     20  C3  SGN C   2      64.981 128.164 154.8930  0.00  0.00     0.000 C
ATOM     21  C4  SGN C   2      64.696 126.812 154.2500  0.00  0.00     0.000 C
ATOM     22  C5  SGN C   2      63.405 126.907 153.4420  0.00  0.00     0.000 C
ATOM     23  O5  SGN C   2      62.317 127.308 154.3060  0.00  0.00     0.000 O
ATOM     24   O  SGN C   2      66.153 128.110 155.6890  0.00  0.00     0.000 O
ATOM     26  HD  SGN C   2      65.678 128.287 154.9870  0.00  0.00     0.000 HD
BRANCH 19 28
ATOM     26   N  SGN C   2      63.541 129.764 156.6170  0.00  0.00     0.000 N
ATOM     28  HD  SGN C   2      62.757 129.407 156.5220  0.00  0.00     0.000 HD
ATOM     28   O  SGN C   2      64.343 131.303 158.4090  0.00  0.00     0.000 OA
ATOM     29   S  SGN C   2      63.995 129.797 158.1590  0.00  0.00     0.000 S
ATOM     30   O  SGN C   2      62.869 129.458 158.9420  0.00  0.00     0.000 OA
ATOM     31   O  SGN C   2      65.187 129.030 158.2740  0.00  0.00     0.000 OA
ENDBRANCH 19 28
BRANCH 22 32
ATOM     32   C  SGN C   2      62.998 125.600 152.8080  0.00  0.00     0.000 C
ATOM     33   S  SGN C   2      61.071 123.895 152.9460  0.00  0.00     0.000 S
ATOM     34   O  SGN C   2      61.564 123.333 154.1780  0.00  0.00     0.000 OA
ATOM     35   O  SGN C   2      59.627 123.998 152.8920  0.00  0.00     0.000 OA
ATOM     36   O  SGN C   2      61.650 123.312 151.7590  0.00  0.00     0.000 OA
ATOM     37   O  SGN C   2      61.588 125.405 152.9670  0.00  0.00     0.000 O
ENDBRANCH 22 32
BRANCH 18 38
ATOM     38  O4  IDS C   3      62.046 129.436 154.0050  0.00  0.00     0.000 O
BRANCH 38 42
ATOM     39  C1  IDS C   3      60.364 131.342 151.6240  0.00  0.00     0.000 C
ATOM     40  C2  IDS C   3      61.134 130.073 151.2230  0.00  0.00     0.000 C
ATOM     41  C3  IDS C   3      62.569 130.108 151.7490  0.00  0.00     0.000 C
ATOM     42  C4  IDS C   3      62.607 130.494 153.2210  0.00  0.00     0.000 C
ATOM     43  C5  IDS C   3      61.810 131.786 153.4400  0.00  0.00     0.000 C
ATOM     44  O5  IDS C   3      60.463 131.581 153.0180  0.00  0.00     0.000 O
ATOM     45   O  IDS C   3      63.330 131.045 150.9840  0.00  0.00     0.000 O
ATOM     47  HD  IDS C   3      63.247 131.884 150.7860  0.00  0.00     0.000 HD
BRANCH 40 47
ATOM     47   O  IDS C   3      60.482 128.868 151.7890  0.00  0.00     0.000 O
ATOM     48   S  IDS C   3      59.142 128.303 151.1240  0.00  0.00     0.000 S
ATOM     49   O  IDS C   3      58.078 129.177 151.5700  0.00  0.00     0.000 OA
ATOM     50   O  IDS C   3      59.002 126.957 151.6360  0.00  0.00     0.000 OA
ATOM     51   O  IDS C   3      59.342 128.350 149.7010  0.00  0.00     0.000 OA
ENDBRANCH 40 47
BRANCH 43 52
ATOM     52   C  IDS C   3      61.827 132.248 154.8800  0.00  0.00     0.000 C
ATOM     53   O  IDS C   3      60.786 132.478 155.4520  0.00  0.00     0.000 OA
ATOM     54   O  IDS C   3      62.879 132.385 155.4510  0.00  0.00     0.000 OA
ENDBRANCH 43 52
BRANCH 39 55
ATOM     55  O4  SGN C   4      60.331 132.451 150.8840  0.00  0.00     0.000 O
BRANCH 55 59
ATOM     56  C1  SGN C   4      57.059 135.020 151.3240  0.00  0.00     0.000 C
ATOM     57  C2  SGN C   4      56.813 133.724 150.5340  0.00  0.00     0.000 C
ATOM     58  C3  SGN C   4      57.935 132.718 150.7810  0.00  0.00     0.000 C
ATOM     59  C4  SGN C   4      59.296 133.364 150.5500  0.00  0.00     0.000 C
ATOM     60  C5  SGN C   4      59.402 134.613 151.4230  0.00  0.00     0.000 C
ATOM     61  O5  SGN C   4      58.354 135.524 151.0380  0.00  0.00     0.000 O
ATOM     62   O  SGN C   4      57.762 131.594 149.9290  0.00  0.00     0.000 O
ATOM     64  HD  SGN C   4      56.961 131.897 150.0530  0.00  0.00     0.000 HD
BRANCH 57 66
ATOM     64   N  SGN C   4      55.771 133.084 149.7150  0.00  0.00     0.000 N
ATOM     66  HD  SGN C   4      55.034 132.654 149.8640  0.00  0.00     0.000 HD
ATOM     66   S  SGN C   4      54.236 133.474 149.9050  0.00  0.00     0.000 S
ATOM     67   O  SGN C   4      53.478 132.656 149.0300  0.00  0.00     0.000 OA
ATOM     68   O  SGN C   4      53.968 133.440 151.3010  0.00  0.00     0.000 OA
ATOM     69   O  SGN C   4      54.167 134.957 149.4180  0.00  0.00     0.000 OA
ENDBRANCH 57 66
BRANCH 60 70
ATOM     70   C  SGN C   4      60.721 135.342 151.2890  0.00  0.00     0.000 C
ATOM     71   O  SGN C   4      63.749 134.948 153.4750  0.00  0.00     0.000 OA
ATOM     72   O  SGN C   4      63.382 134.002 151.2800  0.00  0.00     0.000 OA
ATOM     73   O  SGN C   4      61.561 135.081 152.4300  0.00  0.00     0.000 O
ATOM     74   S  SGN C   4      63.139 135.110 152.1760  0.00  0.00     0.000 S
ATOM     75   O  SGN C   4      63.394 136.404 151.5760  0.00  0.00     0.000 OA
ENDBRANCH 60 70
BRANCH 56 76
ATOM     76  O4  IDS C   5      56.694 135.497 152.5290  0.00  0.00     0.000 O
BRANCH 76 80
ATOM     77  C1  IDS C   5      56.992 136.100 156.5540  0.00  0.00     0.000 C
ATOM     78  C2  IDS C   5      57.081 134.636 156.1240  0.00  0.00     0.000 C
ATOM     79  C3  IDS C   5      57.401 134.554 154.6440  0.00  0.00     0.000 C
ATOM     80  C4  IDS C   5      56.238 135.124 153.8380  0.00  0.00     0.000 C
ATOM     81  C5  IDS C   5      55.660 136.343 154.5710  0.00  0.00     0.000 C
ATOM     82  O5  IDS C   5      56.641 136.919 155.4390  0.00  0.00     0.000 O
BRANCH 78 83
ATOM     83   O  IDS C   5      58.149 133.934 156.8740  0.00  0.00     0.000 O
ATOM     84   S  IDS C   5      57.820 132.568 157.6290  0.00  0.00     0.000 S
ATOM     85   O  IDS C   5      56.622 132.813 158.3860  0.00  0.00     0.000 OA
ATOM     86   O  IDS C   5      57.640 131.591 156.5810  0.00  0.00     0.000 OA
ATOM     87   O  IDS C   5      58.970 132.291 158.4550  0.00  0.00     0.000 OA
ENDBRANCH 78 83
BRANCH 81 88
ATOM     88   C  IDS C   5      55.165 137.440 153.6470  0.00  0.00     0.000 C
ATOM     89   O  IDS C   5      55.821 138.436 153.4950  0.00  0.00     0.000 OA
ATOM     90   O  IDS C   5      54.112 137.305 153.0670  0.00  0.00     0.000 OA
ENDBRANCH 81 88
ENDBRANCH 76 80
ENDBRANCH 56 76
ENDBRANCH 55 59
ENDBRANCH 39 55
ENDBRANCH 38 42
ENDBRANCH 18 38
ENDBRANCH 17 21
ENDBRANCH 1 17
TORSDOF 18
ENDMDL
MODEL 100
REMARK VINA RESULT:      -1.4    167.013    175.425
ROOT
ATOM      1  C1  IDS C   1      66.138 127.097 152.1520  0.00  0.00     0.000 C
ATOM      2  C2  IDS C   1      66.740 125.700 151.9760  0.00  0.00     0.000 C
ATOM      3  C3  IDS C   1      68.041 125.570 152.7560  0.00  0.00     0.000 C
ATOM      4  C4  IDS C   1      69.050 126.613 152.2950  0.00  0.00     0.000 C
ATOM      5  C5  IDS C   1      68.345 127.938 152.0210  0.00  0.00     0.000 C
ATOM      6  O5  IDS C   1      67.098 127.983 152.7150  0.00  0.00     0.000 O
ATOM      7   O  IDS C   1      68.583 124.253 152.5790  0.00  0.00     0.000 O
ATOM      9  HD  IDS C   1      67.925 123.690 152.5460  0.00  0.00     0.000 HD
ENDROOT
BRANCH 2 9
ATOM      9   O  IDS C   1      65.814 124.660 152.4780  0.00  0.00     0.000 O
ATOM     10   S  IDS C   1      65.383 123.464 151.5150  0.00  0.00     0.000 S
ATOM     11   O  IDS C   1      64.500 122.626 152.2950  0.00  0.00     0.000 OA
ATOM     12   O  IDS C   1      64.719 124.090 150.3900  0.00  0.00     0.000 OA
ATOM     13   O  IDS C   1      66.610 122.794 151.1440  0.00  0.00     0.000 OA
ENDBRANCH 2 9
BRANCH 5 14
ATOM     14   C  IDS C   1      69.179 129.131 152.4540  0.00  0.00     0.000 C
ATOM     15   O  IDS C   1      70.322 129.224 152.0780  0.00  0.00     0.000 OA
ATOM     16   O  IDS C   1      68.689 129.982 153.1770  0.00  0.00     0.000 OA
ENDBRANCH 5 14
BRANCH 1 17
ATOM     17  O4  SGN C   2      64.835 127.307 152.3570  0.00  0.00     0.000 O
BRANCH 17 21
ATOM     18  C1  SGN C   2      61.452 128.253 154.6350  0.00  0.00     0.000 C
ATOM     19  C2  SGN C   2      62.813 128.623 155.2390  0.00  0.00     0.000 C
ATOM     20  C3  SGN C   2      63.887 128.612 154.1450  0.00  0.00     0.000 C
ATOM     21  C4  SGN C   2      63.877 127.276 153.4120  0.00  0.00     0.000 C
ATOM     22  C5  SGN C   2      62.479 127.024 152.8550  0.00  0.00     0.000 C
ATOM     23  O5  SGN C   2      61.515 127.029 153.9330  0.00  0.00     0.000 O
ATOM     24   O  SGN C   2      65.159 128.868 154.7170  0.00  0.00     0.000 O
ATOM     26  HD  SGN C   2      64.524 128.934 154.1310  0.00  0.00     0.000 HD
BRANCH 19 28
ATOM     26   N  SGN C   2      62.422 129.607 156.2580  0.00  0.00     0.000 N
ATOM     28  HD  SGN C   2      61.765 129.043 156.2540  0.00  0.00     0.000 HD
ATOM     28   O  SGN C   2      63.091 131.208 158.0500  0.00  0.00     0.000 OA
ATOM     29   S  SGN C   2      63.134 129.683 157.6970  0.00  0.00     0.000 S
ATOM     30   O  SGN C   2      62.317 128.984 158.6140  0.00  0.00     0.000 OA
ATOM     31   O  SGN C   2      64.492 129.295 157.5280  0.00  0.00     0.000 OA
ENDBRANCH 19 28
BRANCH 22 32
ATOM     32   C  SGN C   2      62.344 125.693 152.1560  0.00  0.00     0.000 C
ATOM     33   S  SGN C   2      60.791 123.637 152.1860  0.00  0.00     0.000 S
ATOM     34   O  SGN C   2      61.376 123.127 153.4010  0.00  0.00     0.000 OA
ATOM     35   O  SGN C   2      59.356 123.455 152.1120  0.00  0.00     0.000 OA
ATOM     36   O  SGN C   2      61.484 123.235 150.9850  0.00  0.00     0.000 OA
ATOM     37   O  SGN C   2      60.999 125.217 152.2830  0.00  0.00     0.000 O
ENDBRANCH 22 32
BRANCH 18 38
ATOM     38  O4  IDS C   3      60.596 128.990 153.9250  0.00  0.00     0.000 O
BRANCH 38 42
ATOM     39  C1  IDS C   3      57.929 130.742 152.5290  0.00  0.00     0.000 C
ATOM     40  C2  IDS C   3      58.601 129.586 151.7710  0.00  0.00     0.000 C
ATOM     41  C3  IDS C   3      60.115 129.779 151.6970  0.00  0.00     0.000 C
ATOM     42  C4  IDS C   3      60.693 130.129 153.0620  0.00  0.00     0.000 C
ATOM     43  C5  IDS C   3      59.922 131.310 153.6650  0.00  0.00     0.000 C
ATOM     44  O5  IDS C   3      58.546 130.955 153.7880  0.00  0.00     0.000 O
ATOM     45   O  IDS C   3      60.415 130.821 150.7660  0.00  0.00     0.000 O
ATOM     47  HD  IDS C   3      60.177 131.648 150.6760  0.00  0.00     0.000 HD
BRANCH 40 47
ATOM     47   O  IDS C   3      58.350 128.298 152.4580  0.00  0.00     0.000 O
ATOM     48   S  IDS C   3      57.116 127.384 152.0100  0.00  0.00     0.000 S
ATOM     49   O  IDS C   3      55.937 128.001 152.5790  0.00  0.00     0.000 OA
ATOM     50   O  IDS C   3      57.384 126.079 152.5730  0.00  0.00     0.000 OA
ATOM     51   O  IDS C   3      57.108 127.389 150.5710  0.00  0.00     0.000 OA
ENDBRANCH 40 47
BRANCH 43 52
ATOM     52   C  IDS C   3      60.460 131.732 155.0140  0.00  0.00     0.000 C
ATOM     53   O  IDS C   3      61.501 132.344 155.0840  0.00  0.00     0.000 OA
ATOM     54   O  IDS C   3      59.847 131.457 156.0140  0.00  0.00     0.000 OA
ENDBRANCH 43 52
BRANCH 39 55
ATOM     55  O4  SGN C   4      57.496 131.858 151.9420  0.00  0.00     0.000 O
BRANCH 55 59
ATOM     56  C1  SGN C   4      53.996 133.556 153.4820  0.00  0.00     0.000 C
ATOM     57  C2  SGN C   4      53.818 132.381 152.5040  0.00  0.00     0.000 C
ATOM     58  C3  SGN C   4      55.127 131.615 152.3340  0.00  0.00     0.000 C
ATOM     59  C4  SGN C   4      56.267 132.569 151.9940  0.00  0.00     0.000 C
ATOM     60  C5  SGN C   4      56.337 133.653 153.0670  0.00  0.00     0.000 C
ATOM     61  O5  SGN C   4      55.085 134.367 153.0720  0.00  0.00     0.000 O
ATOM     62   O  SGN C   4      54.975 130.633 151.3190  0.00  0.00     0.000 O
ATOM     64  HD  SGN C   4      54.179 130.732 151.6450  0.00  0.00     0.000 HD
BRANCH 57 66
ATOM     64   N  SGN C   4      52.751 131.683 151.7700  0.00  0.00     0.000 N
ATOM     66  HD  SGN C   4      52.154 131.082 151.9540  0.00  0.00     0.000 HD
ATOM     66   S  SGN C   4      51.252 131.686 152.3190  0.00  0.00     0.000 S
ATOM     67   O  SGN C   4      50.476 130.889 151.4410  0.00  0.00     0.000 OA
ATOM     68   O  SGN C   4      51.314 131.348 153.6990  0.00  0.00     0.000 OA
ATOM     69   O  SGN C   4      50.813 133.180 152.1890  0.00  0.00     0.000 OA
ENDBRANCH 57 66
BRANCH 60 70
ATOM     70   C  SGN C   4      57.443 134.662 152.8440  0.00  0.00     0.000 C
ATOM     71   O  SGN C   4      57.458 137.483 150.3650  0.00  0.00     0.000 OA
ATOM     72   O  SGN C   4      57.025 137.611 152.7410  0.00  0.00     0.000 OA
ATOM     73   O  SGN C   4      57.174 135.456 151.6730  0.00  0.00     0.000 O
ATOM     74   S  SGN C   4      57.745 136.949 151.6770  0.00  0.00     0.000 S
ATOM     75   O  SGN C   4      59.162 136.803 151.9430  0.00  0.00     0.000 OA
ENDBRANCH 60 70
BRANCH 56 76
ATOM     76  O4  IDS C   5      53.825 133.741 154.8040  0.00  0.00     0.000 O
BRANCH 76 80
ATOM     77  C1  IDS C   5      56.955 132.997 157.3160  0.00  0.00     0.000 C
ATOM     78  C2  IDS C   5      55.937 131.861 157.2160  0.00  0.00     0.000 C
ATOM     79  C3  IDS C   5      55.089 132.038 155.9720  0.00  0.00     0.000 C
ATOM     80  C4  IDS C   5      54.246 133.303 156.1040  0.00  0.00     0.000 C
ATOM     81  C5  IDS C   5      55.072 134.395 156.7970  0.00  0.00     0.000 C
ATOM     82  O5  IDS C   5      56.472 134.150 156.6270  0.00  0.00     0.000 O
BRANCH 78 83
ATOM     83   O  IDS C   5      56.622 130.550 157.1340  0.00  0.00     0.000 O
ATOM     84   S  IDS C   5      56.266 129.403 158.1840  0.00  0.00     0.000 S
ATOM     85   O  IDS C   5      56.320 130.023 159.4810  0.00  0.00     0.000 OA
ATOM     86   O  IDS C   5      54.941 128.956 157.8220  0.00  0.00     0.000 OA
ATOM     87   O  IDS C   5      57.267 128.380 158.0000  0.00  0.00     0.000 OA
ENDBRANCH 78 83
BRANCH 81 88
ATOM     88   C  IDS C   5      54.788 135.797 156.2910  0.00  0.00     0.000 C
ATOM     89   O  IDS C   5      53.753 136.338 156.5750  0.00  0.00     0.000 OA
ATOM     90   O  IDS C   5      55.607 136.363 155.6040  0.00  0.00     0.000 OA
ENDBRANCH 81 88
ENDBRANCH 76 80
ENDBRANCH 56 76
ENDBRANCH 55 59
ENDBRANCH 39 55
ENDBRANCH 38 42
ENDBRANCH 18 38
ENDBRANCH 17 21
ENDBRANCH 1 17
TORSDOF 18
ENDMDL
