MODEL 1
REMARK VINA RESULT:      -8.2      0.000      0.000
ROOT
ATOM      1  C1  BDP B   1      20.100  11.694  19.1980  0.00  0.00     0.000 C
ATOM      2  C2  BDP B   1      19.372  10.823  18.1890  0.00  0.00     0.000 C
ATOM      3  C3  BDP B   1      19.803  11.115  16.7680  0.00  0.00     0.000 C
ATOM      4  C4  BDP B   1      21.087  11.930  16.6630  0.00  0.00     0.000 C
ATOM      5  C5  BDP B   1      21.098  13.136  17.5980  0.00  0.00     0.000 C
ATOM      6  O5  BDP B   1      20.138  13.008  18.6600  0.00  0.00     0.000 O
ATOM      7   O  BDP B   1      19.599   9.441  18.4860  0.00  0.00     0.000 O
ATOM      9  HD  BDP B   1      19.657   8.784  19.0480  0.00  0.00     0.000 HD
ATOM      9   O  BDP B   1      18.769  11.839  16.0810  0.00  0.00     0.000 O
ATOM     11  HD  BDP B   1      18.828  11.182  16.6430  0.00  0.00     0.000 HD
ATOM     11   O  BDP B   1      22.227  11.103  16.9270  0.00  0.00     0.000 O
ATOM     13  HD  BDP B   1      22.285  10.447  17.4880  0.00  0.00     0.000 HD
ENDROOT
BRANCH 5 13
ATOM     13   C  BDP B   1      20.779  14.335  16.7750  0.00  0.00     0.000 C
ATOM     14   O  BDP B   1      20.670  14.189  15.5390  0.00  0.00     0.000 OA
ATOM     15   O  BDP B   1      20.607  15.434  17.3430  0.00  0.00     0.000 OA
ENDBRANCH 5 13
BRANCH 1 16
ATOM     16  O3  NAG B   2      20.927  11.338  20.3040  0.00  0.00     0.000 O
BRANCH 16 19
ATOM     17  C1  NAG B   2      21.551  10.105  23.6720  0.00  0.00     0.000 C
ATOM     18  C2  NAG B   2      20.685  10.141  22.4120  0.00  0.00     0.000 C
ATOM     19  C3  NAG B   2      21.543  10.394  21.1810  0.00  0.00     0.000 C
ATOM     20  C4  NAG B   2      22.947  10.877  21.5570  0.00  0.00     0.000 C
ATOM     21  C5  NAG B   2      23.015  11.783  22.7940  0.00  0.00     0.000 C
ATOM     22  O5  NAG B   2      22.068  11.431  23.8100  0.00  0.00     0.000 O
ATOM     23   O  NAG B   2      23.785   9.733  21.7470  0.00  0.00     0.000 O
ATOM     25  HD  NAG B   2      23.180   9.270  22.1590  0.00  0.00     0.000 HD
ATOM     25   C  NAG B   2      22.791  13.250  22.4030  0.00  0.00     0.000 C
ATOM     26   O  NAG B   2      24.008  13.877  21.9750  0.00  0.00     0.000 O
ATOM     28  HD  NAG B   2      23.403  13.415  22.3870  0.00  0.00     0.000 HD
BRANCH 18 30
ATOM     28   N  NAG B   2      20.859   8.773  22.8970  0.00  0.00     0.000 N
ATOM     30  HD  NAG B   2      21.455   8.150  22.9870  0.00  0.00     0.000 HD
ATOM     30   C  NAG B   2      20.333   7.682  22.3220  0.00  0.00     0.000 C
ATOM     31   C  NAG B   2      20.648   6.387  23.0160  0.00  0.00     0.000 C
ATOM     32   O  NAG B   2      19.660   7.717  21.3180  0.00  0.00     0.000 OA
ENDBRANCH 18 30
BRANCH 17 33
ATOM     33  O4  BDP B   3      21.733  10.223  25.1000  0.00  0.00     0.000 O
BRANCH 33 37
ATOM     34  C1  BDP B   3      19.052  11.017  28.3290  0.00  0.00     0.000 C
ATOM     35  C2  BDP B   3      19.967  12.153  27.8870  0.00  0.00     0.000 C
ATOM     36  C3  BDP B   3      20.570  11.949  26.5020  0.00  0.00     0.000 C
ATOM     37  C4  BDP B   3      21.099  10.511  26.3800  0.00  0.00     0.000 C
ATOM     38  C5  BDP B   3      19.923   9.564  26.6860  0.00  0.00     0.000 C
ATOM     39  O5  BDP B   3      19.640   9.736  28.0750  0.00  0.00     0.000 O
ATOM     40   O  BDP B   3      19.188  13.348  27.9670  0.00  0.00     0.000 O
ATOM     42  HD  BDP B   3      19.414  13.255  28.7980  0.00  0.00     0.000 HD
ATOM     42   O  BDP B   3      21.613  12.912  26.3630  0.00  0.00     0.000 O
ATOM     44  HD  BDP B   3      21.839  12.819  27.1930  0.00  0.00     0.000 HD
BRANCH 38 44
ATOM     44   C  BDP B   3      20.201   8.121  26.4000  0.00  0.00     0.000 C
ATOM     45   O  BDP B   3      19.377   7.495  25.6970  0.00  0.00     0.000 OA
ATOM     46   O  BDP B   3      21.231   7.586  26.8650  0.00  0.00     0.000 OA
ENDBRANCH 38 44
BRANCH 34 47
ATOM     47  O3  NAG B   4      19.185  10.735  29.7200  0.00  0.00     0.000 O
BRANCH 47 50
ATOM     48  C1  NAG B   4      15.985   9.976  31.5470  0.00  0.00     0.000 C
ATOM     49  C2  NAG B   4      16.982  10.804  30.7550  0.00  0.00     0.000 C
ATOM     50  C3  NAG B   4      18.196   9.947  30.4160  0.00  0.00     0.000 C
ATOM     51  C4  NAG B   4      18.817   9.339  31.6630  0.00  0.00     0.000 C
ATOM     52  C5  NAG B   4      17.753   8.578  32.4550  0.00  0.00     0.000 C
ATOM     53  O5  NAG B   4      16.624   9.423  32.7140  0.00  0.00     0.000 O
ATOM     54   O  NAG B   4      19.879   8.464  31.2750  0.00  0.00     0.000 O
ATOM     56  HD  NAG B   4      19.892   8.649  32.1200  0.00  0.00     0.000 HD
ATOM     56   C  NAG B   4      18.310   8.060  33.7750  0.00  0.00     0.000 C
ATOM     57   O  NAG B   4      18.763   9.171  34.5600  0.00  0.00     0.000 O
ATOM     59  HD  NAG B   4      18.776   9.357  35.4060  0.00  0.00     0.000 HD
BRANCH 49 61
ATOM     59   N  NAG B   4      16.018  11.433  29.8500  0.00  0.00     0.000 N
ATOM     61  HD  NAG B   4      16.414  11.606  30.6010  0.00  0.00     0.000 HD
ATOM     61   O  NAG B   4      16.870  13.522  29.9550  0.00  0.00     0.000 OA
ATOM     62   C  NAG B   4      16.089  12.715  29.4730  0.00  0.00     0.000 C
ATOM     63   C  NAG B   4      15.150  13.121  28.3820  0.00  0.00     0.000 C
ENDBRANCH 49 61
BRANCH 48 64
ATOM     64  O4  BDP B   5      14.566  10.020  31.6660  0.00  0.00     0.000 O
BRANCH 64 68
ATOM     65  C1  BDP B   5      12.217   6.896  33.1150  0.00  0.00     0.000 C
ATOM     66  C2  BDP B   5      12.071   7.209  31.6320  0.00  0.00     0.000 C
ATOM     67  C3  BDP B   5      13.258   8.040  31.1640  0.00  0.00     0.000 C
ATOM     68  C4  BDP B   5      13.384   9.300  32.0130  0.00  0.00     0.000 C
ATOM     69  C5  BDP B   5      13.424   8.987  33.5030  0.00  0.00     0.000 C
ATOM     70  O5  BDP B   5      12.340   8.115  33.8660  0.00  0.00     0.000 O
ATOM     71   O  BDP B   5      11.955   5.984  30.8910  0.00  0.00     0.000 O
ATOM     73  HD  BDP B   5      11.910   5.217  30.4910  0.00  0.00     0.000 HD
ATOM     73   O  BDP B   5      13.101   8.411  29.7890  0.00  0.00     0.000 O
ATOM     75  HD  BDP B   5      13.056   7.644  29.3890  0.00  0.00     0.000 HD
BRANCH 69 75
ATOM     75   C  BDP B   5      13.304  10.284  34.2630  0.00  0.00     0.000 C
ATOM     76   O  BDP B   5      12.234  10.922  34.1930  0.00  0.00     0.000 OA
ATOM     77   O  BDP B   5      14.271  10.678  34.9400  0.00  0.00     0.000 OA
ENDBRANCH 69 75
BRANCH 65 78
ATOM     78  O3  NAG B   6      11.154   6.694  34.0500  0.00  0.00     0.000 O
BRANCH 78 81
ATOM     79  C1  NAG B   6      10.247   3.935  36.4790  0.00  0.00     0.000 C
ATOM     80  C2  NAG B   6      10.444   4.622  35.1180  0.00  0.00     0.000 C
ATOM     81  C3  NAG B   6      11.105   5.979  35.3030  0.00  0.00     0.000 C
ATOM     82  C4  NAG B   6      10.358   6.811  36.3510  0.00  0.00     0.000 C
ATOM     83  C5  NAG B   6      10.249   6.014  37.6460  0.00  0.00     0.000 C
ATOM     84  O5  NAG B   6       9.526   4.817  37.3580  0.00  0.00     0.000 O
BRANCH 80 87
ATOM     85   N  NAG B   6      11.171   3.672  34.2800  0.00  0.00     0.000 N
ATOM     87  HD  NAG B   6      11.178   2.957  33.7930  0.00  0.00     0.000 HD
ATOM     87   C  NAG B   6      10.943   3.500  32.9730  0.00  0.00     0.000 C
ATOM     88   C  NAG B   6      11.820   2.501  32.2870  0.00  0.00     0.000 C
ATOM     89   O  NAG B   6      10.085   4.120  32.3560  0.00  0.00     0.000 OA
ENDBRANCH 80 87
ATOM     90   O  NAG B   6      10.482   7.075  39.8070  0.00  0.00     0.000 O
ATOM     92  HD  NAG B   6      10.594   6.348  39.3500  0.00  0.00     0.000 HD
ATOM     92   O  NAG B   6      10.482   7.075  39.8070  0.00  0.00     0.000 O
ATOM     94  HD  NAG B   6      10.594   6.348  39.3500  0.00  0.00     0.000 HD
ENDBRANCH 78 81
ENDBRANCH 65 78
ENDBRANCH 64 68
ENDBRANCH 48 64
ENDBRANCH 47 50
ENDBRANCH 34 47
ENDBRANCH 33 37
ENDBRANCH 17 33
ENDBRANCH 16 19
ENDBRANCH 1 16
TORSDOF 16
ENDMDL
MODEL 2
REMARK VINA RESULT:      -7.6      3.726      9.192
ROOT
ATOM      1  C1  BDP B   1      20.027  10.691  26.9480  0.00  0.00     0.000 C
ATOM      2  C2  BDP B   1      19.420   9.842  25.8450  0.00  0.00     0.000 C
ATOM      3  C3  BDP B   1      20.467   9.320  24.8850  0.00  0.00     0.000 C
ATOM      4  C4  BDP B   1      21.897   9.441  25.4000  0.00  0.00     0.000 C
ATOM      5  C5  BDP B   1      22.197  10.815  25.9920  0.00  0.00     0.000 C
ATOM      6  O5  BDP B   1      20.998  11.529  26.3390  0.00  0.00     0.000 O
ATOM      7   O  BDP B   1      18.701   8.744  26.4160  0.00  0.00     0.000 O
ATOM      9  HD  BDP B   1      18.154   8.417  27.0030  0.00  0.00     0.000 HD
ATOM      9   O  BDP B   1      20.391  10.032  23.6410  0.00  0.00     0.000 O
ATOM     11  HD  BDP B   1      19.844   9.705  24.2270  0.00  0.00     0.000 HD
ATOM     11   O  BDP B   1      22.165   8.426  26.3750  0.00  0.00     0.000 O
ATOM     13  HD  BDP B   1      21.618   8.099  26.9620  0.00  0.00     0.000 HD
ENDROOT
BRANCH 5 13
ATOM     13   C  BDP B   1      22.959  11.580  24.9670  0.00  0.00     0.000 C
ATOM     14   O  BDP B   1      24.206  11.554  25.0190  0.00  0.00     0.000 OA
ATOM     15   O  BDP B   1      22.333  12.196  24.0790  0.00  0.00     0.000 OA
ENDBRANCH 5 13
BRANCH 1 16
ATOM     16  O3  NAG B   2      19.988  10.536  28.3650  0.00  0.00     0.000 O
BRANCH 16 19
ATOM     17  C1  NAG B   2      17.715   9.905  31.1380  0.00  0.00     0.000 C
ATOM     18  C2  NAG B   2      19.032   9.625  30.4120  0.00  0.00     0.000 C
ATOM     19  C3  NAG B   2      19.507  10.865  29.6690  0.00  0.00     0.000 C
ATOM     20  C4  NAG B   2      18.402  11.920  29.5610  0.00  0.00     0.000 C
ATOM     21  C5  NAG B   2      16.983  11.361  29.3860  0.00  0.00     0.000 C
ATOM     22  O5  NAG B   2      16.759  10.141  30.1020  0.00  0.00     0.000 O
ATOM     23   O  NAG B   2      18.455  12.754  30.7220  0.00  0.00     0.000 O
ATOM     25  HD  NAG B   2      18.609  12.101  31.2700  0.00  0.00     0.000 HD
ATOM     25   C  NAG B   2      16.675  11.122  27.9010  0.00  0.00     0.000 C
ATOM     26   O  NAG B   2      16.200  12.313  27.2580  0.00  0.00     0.000 O
ATOM     28  HD  NAG B   2      16.354  11.660  27.8060  0.00  0.00     0.000 HD
BRANCH 18 30
ATOM     28   N  NAG B   2      19.240   9.762  31.8530  0.00  0.00     0.000 N
ATOM     30  HD  NAG B   2      19.217  10.343  32.4940  0.00  0.00     0.000 HD
ATOM     30   C  NAG B   2      20.427   9.669  32.4700  0.00  0.00     0.000 C
ATOM     31   C  NAG B   2      20.378   9.836  33.9620  0.00  0.00     0.000 C
ATOM     32   O  NAG B   2      21.467   9.473  31.8860  0.00  0.00     0.000 OA
ENDBRANCH 18 30
BRANCH 17 33
ATOM     33  O4  BDP B   3      16.479   9.478  31.7510  0.00  0.00     0.000 O
BRANCH 33 37
ATOM     34  C1  BDP B   3      13.727   6.884  33.7350  0.00  0.00     0.000 C
ATOM     35  C2  BDP B   3      15.179   6.840  34.1930  0.00  0.00     0.000 C
ATOM     36  C3  BDP B   3      15.994   8.054  33.7590  0.00  0.00     0.000 C
ATOM     37  C4  BDP B   3      15.716   8.353  32.2780  0.00  0.00     0.000 C
ATOM     38  C5  BDP B   3      14.195   8.546  32.1270  0.00  0.00     0.000 C
ATOM     39  O5  BDP B   3      13.619   7.261  32.3570  0.00  0.00     0.000 O
ATOM     40   O  BDP B   3      15.146   6.692  35.6140  0.00  0.00     0.000 O
ATOM     42  HD  BDP B   3      15.016   5.871  35.3700  0.00  0.00     0.000 HD
ATOM     42   O  BDP B   3      17.364   7.731  33.9880  0.00  0.00     0.000 O
ATOM     44  HD  BDP B   3      17.234   6.910  33.7430  0.00  0.00     0.000 HD
BRANCH 38 44
ATOM     44   C  BDP B   3      13.766   9.062  30.7890  0.00  0.00     0.000 C
ATOM     45   O  BDP B   3      13.494  10.279  30.6910  0.00  0.00     0.000 OA
ATOM     46   O  BDP B   3      13.692   8.277  29.8190  0.00  0.00     0.000 OA
ENDBRANCH 38 44
BRANCH 34 47
ATOM     47  O3  NAG B   4      13.247   5.595  33.3570  0.00  0.00     0.000 O
BRANCH 47 50
ATOM     48  C1  NAG B   4      10.240   4.097  35.0490  0.00  0.00     0.000 C
ATOM     49  C2  NAG B   4      11.686   4.535  34.8960  0.00  0.00     0.000 C
ATOM     50  C3  NAG B   4      11.865   5.231  33.5510  0.00  0.00     0.000 C
ATOM     51  C4  NAG B   4      11.406   4.350  32.4000  0.00  0.00     0.000 C
ATOM     52  C5  NAG B   4       9.970   3.884  32.6440  0.00  0.00     0.000 C
ATOM     53  O5  NAG B   4       9.857   3.269  33.9340  0.00  0.00     0.000 O
ATOM     54   O  NAG B   4      11.495   5.092  31.1810  0.00  0.00     0.000 O
ATOM     56  HD  NAG B   4      11.390   4.243  31.0480  0.00  0.00     0.000 HD
ATOM     56   C  NAG B   4       9.519   2.897  31.5730  0.00  0.00     0.000 C
ATOM     57   O  NAG B   4      10.385   1.755  31.5950  0.00  0.00     0.000 O
ATOM     59  HD  NAG B   4      10.280   0.906  31.4610  0.00  0.00     0.000 HD
BRANCH 49 61
ATOM     59   N  NAG B   4      12.332   3.281  35.2870  0.00  0.00     0.000 N
ATOM     61  HD  NAG B   4      12.558   4.086  35.0600  0.00  0.00     0.000 HD
ATOM     61   O  NAG B   4      13.893   4.190  36.6430  0.00  0.00     0.000 OA
ATOM     62   C  NAG B   4      13.327   3.211  36.1790  0.00  0.00     0.000 C
ATOM     63   C  NAG B   4      13.713   1.832  36.6100  0.00  0.00     0.000 C
ENDBRANCH 49 61
BRANCH 48 64
ATOM     64  O4  BDP B   5       9.396   3.917  36.1830  0.00  0.00     0.000 O
BRANCH 64 68
ATOM     65  C1  BDP B   5       7.951   6.852  38.7660  0.00  0.00     0.000 C
ATOM     66  C2  BDP B   5       9.278   6.213  39.1570  0.00  0.00     0.000 C
ATOM     67  C3  BDP B   5       9.881   5.506  37.9500  0.00  0.00     0.000 C
ATOM     68  C4  BDP B   5       8.892   4.492  37.3870  0.00  0.00     0.000 C
ATOM     69  C5  BDP B   5       7.533   5.115  37.0970  0.00  0.00     0.000 C
ATOM     70  O5  BDP B   5       7.062   5.856  38.2360  0.00  0.00     0.000 O
ATOM     71   O  BDP B   5      10.160   7.218  39.6800  0.00  0.00     0.000 O
ATOM     73  HD  BDP B   5      10.659   7.865  39.9670  0.00  0.00     0.000 HD
ATOM     73   O  BDP B   5      11.092   4.833  38.3150  0.00  0.00     0.000 O
ATOM     75  HD  BDP B   5      11.590   5.480  38.6030  0.00  0.00     0.000 HD
BRANCH 69 75
ATOM     75   C  BDP B   5       6.561   4.006  36.7810  0.00  0.00     0.000 C
ATOM     76   O  BDP B   5       5.887   3.517  37.7100  0.00  0.00     0.000 OA
ATOM     77   O  BDP B   5       6.455   3.614  35.6040  0.00  0.00     0.000 OA
ENDBRANCH 69 75
BRANCH 65 78
ATOM     78  O3  NAG B   6       6.829   7.071  39.6250  0.00  0.00     0.000 O
BRANCH 78 81
ATOM     79  C1  NAG B   6       4.396   9.934  40.0890  0.00  0.00     0.000 C
ATOM     80  C2  NAG B   6       5.737   9.186  40.1460  0.00  0.00     0.000 C
ATOM     81  C3  NAG B   6       5.622   7.843  39.4440  0.00  0.00     0.000 C
ATOM     82  C4  NAG B   6       4.415   7.056  39.9650  0.00  0.00     0.000 C
ATOM     83  C5  NAG B   6       3.159   7.911  39.8360  0.00  0.00     0.000 C
ATOM     84  O5  NAG B   6       3.357   9.090  40.6170  0.00  0.00     0.000 O
BRANCH 80 87
ATOM     85   N  NAG B   6       6.724  10.138  39.6430  0.00  0.00     0.000 N
ATOM     87  HD  NAG B   6       7.240  10.821  39.7750  0.00  0.00     0.000 HD
ATOM     87   C  NAG B   6       7.986  10.211  40.0830  0.00  0.00     0.000 C
ATOM     88   C  NAG B   6       8.848  11.233  39.4130  0.00  0.00     0.000 C
ATOM     89   O  NAG B   6       8.429   9.487  40.9670  0.00  0.00     0.000 OA
ENDBRANCH 80 87
ATOM     90   O  NAG B   6       1.039   6.952  39.1780  0.00  0.00     0.000 O
ATOM     92  HD  NAG B   6       1.540   7.658  39.1670  0.00  0.00     0.000 HD
ATOM     92   O  NAG B   6       1.039   6.952  39.1780  0.00  0.00     0.000 O
ATOM     94  HD  NAG B   6       1.540   7.658  39.1670  0.00  0.00     0.000 HD
ENDBRANCH 78 81
ENDBRANCH 65 78
ENDBRANCH 64 68
ENDBRANCH 48 64
ENDBRANCH 47 50
ENDBRANCH 34 47
ENDBRANCH 33 37
ENDBRANCH 17 33
ENDBRANCH 16 19
ENDBRANCH 1 16
TORSDOF 16
ENDMDL
MODEL 3
REMARK VINA RESULT:      -7.5      7.767     14.673
ROOT
ATOM      1  C1  BDP B   1       8.346  18.708  23.9650  0.00  0.00     0.000 C
ATOM      2  C2  BDP B   1       7.464  18.005  24.9810  0.00  0.00     0.000 C
ATOM      3  C3  BDP B   1       6.553  16.983  24.3360  0.00  0.00     0.000 C
ATOM      4  C4  BDP B   1       6.943  16.618  22.9070  0.00  0.00     0.000 C
ATOM      5  C5  BDP B   1       7.246  17.841  22.0480  0.00  0.00     0.000 C
ATOM      6  O5  BDP B   1       7.529  19.005  22.8420  0.00  0.00     0.000 O
ATOM      7   O  BDP B   1       8.276  17.367  25.9730  0.00  0.00     0.000 O
ATOM      9  HD  BDP B   1       8.948  17.368  26.5200  0.00  0.00     0.000 HD
ATOM      9   O  BDP B   1       5.205  17.476  24.3070  0.00  0.00     0.000 O
ATOM     11  HD  BDP B   1       5.876  17.476  24.8540  0.00  0.00     0.000 HD
ATOM     11   O  BDP B   1       8.071  15.735  22.9070  0.00  0.00     0.000 O
ATOM     13  HD  BDP B   1       8.743  15.736  23.4540  0.00  0.00     0.000 HD
ENDROOT
BRANCH 5 13
ATOM     13   C  BDP B   1       6.048  18.091  21.1990  0.00  0.00     0.000 C
ATOM     14   O  BDP B   1       5.042  17.373  21.3730  0.00  0.00     0.000 OA
ATOM     15   O  BDP B   1       6.078  19.022  20.3650  0.00  0.00     0.000 OA
ENDBRANCH 5 13
BRANCH 1 16
ATOM     16  O3  NAG B   2       9.767  18.792  23.8720  0.00  0.00     0.000 O
BRANCH 16 19
ATOM     17  C1  NAG B   2      13.193  19.183  22.7030  0.00  0.00     0.000 C
ATOM     18  C2  NAG B   2      12.152  19.284  23.8190  0.00  0.00     0.000 C
ATOM     19  C3  NAG B   2      11.062  18.240  23.6300  0.00  0.00     0.000 C
ATOM     20  C4  NAG B   2      11.106  17.620  22.2300  0.00  0.00     0.000 C
ATOM     21  C5  NAG B   2      11.516  18.581  21.1050  0.00  0.00     0.000 C
ATOM     22  O5  NAG B   2      12.496  19.544  21.5080  0.00  0.00     0.000 O
ATOM     23   O  NAG B   2      11.994  16.498  22.2580  0.00  0.00     0.000 O
ATOM     25  HD  NAG B   2      12.583  16.888  22.7600  0.00  0.00     0.000 HD
ATOM     25   C  NAG B   2      10.291  19.327  20.5590  0.00  0.00     0.000 C
ATOM     26   O  NAG B   2       9.609  18.565  19.5520  0.00  0.00     0.000 O
ATOM     28  HD  NAG B   2      10.198  18.955  20.0540  0.00  0.00     0.000 HD
BRANCH 18 30
ATOM     28   N  NAG B   2      13.372  18.630  24.2910  0.00  0.00     0.000 N
ATOM     30  HD  NAG B   2      13.817  17.889  24.2320  0.00  0.00     0.000 HD
ATOM     30   C  NAG B   2      13.595  18.239  25.5540  0.00  0.00     0.000 C
ATOM     31   C  NAG B   2      14.933  17.599  25.7910  0.00  0.00     0.000 C
ATOM     32   O  NAG B   2      12.790  18.377  26.4460  0.00  0.00     0.000 OA
ENDBRANCH 18 30
BRANCH 17 33
ATOM     33  O4  BDP B   3      14.245  19.738  21.8840  0.00  0.00     0.000 O
BRANCH 33 37
ATOM     34  C1  BDP B   3      18.371  18.774  21.3470  0.00  0.00     0.000 C
ATOM     35  C2  BDP B   3      18.031  20.221  21.6830  0.00  0.00     0.000 C
ATOM     36  C3  BDP B   3      16.634  20.401  22.2670  0.00  0.00     0.000 C
ATOM     37  C4  BDP B   3      15.623  19.601  21.4310  0.00  0.00     0.000 C
ATOM     38  C5  BDP B   3      16.100  18.136  21.4150  0.00  0.00     0.000 C
ATOM     39  O5  BDP B   3      17.302  18.130  20.6440  0.00  0.00     0.000 O
ATOM     40   O  BDP B   3      19.052  20.674  22.5750  0.00  0.00     0.000 O
ATOM     42  HD  BDP B   3      19.459  20.763  21.8160  0.00  0.00     0.000 HD
ATOM     42   O  BDP B   3      16.357  21.800  22.2410  0.00  0.00     0.000 O
ATOM     44  HD  BDP B   3      16.763  21.888  21.4820  0.00  0.00     0.000 HD
BRANCH 38 44
ATOM     44   C  BDP B   3      15.116  17.172  20.8280  0.00  0.00     0.000 C
ATOM     45   O  BDP B   3      14.910  16.101  21.4410  0.00  0.00     0.000 OA
ATOM     46   O  BDP B   3      14.536  17.455  19.7570  0.00  0.00     0.000 OA
ENDBRANCH 38 44
BRANCH 34 47
ATOM     47  O3  NAG B   4      19.139  18.670  20.1500  0.00  0.00     0.000 O
BRANCH 47 50
ATOM     48  C1  NAG B   4      21.836  16.050  20.0590  0.00  0.00     0.000 C
ATOM     49  C2  NAG B   4      21.135  17.321  20.5040  0.00  0.00     0.000 C
ATOM     50  C3  NAG B   4      19.792  17.435  19.7910  0.00  0.00     0.000 C
ATOM     51  C4  NAG B   4      19.953  17.365  18.2810  0.00  0.00     0.000 C
ATOM     52  C5  NAG B   4      20.726  16.103  17.8990  0.00  0.00     0.000 C
ATOM     53  O5  NAG B   4      21.960  16.034  18.6240  0.00  0.00     0.000 O
ATOM     54   O  NAG B   4      18.658  17.368  17.6750  0.00  0.00     0.000 O
ATOM     56  HD  NAG B   4      19.293  17.521  17.1060  0.00  0.00     0.000 HD
ATOM     56   C  NAG B   4      21.015  16.062  16.4030  0.00  0.00     0.000 C
ATOM     57   O  NAG B   4      21.799  17.208  16.0470  0.00  0.00     0.000 O
ATOM     59  HD  NAG B   4      22.434  17.362  15.4780  0.00  0.00     0.000 HD
BRANCH 49 61
ATOM     59   N  NAG B   4      21.296  17.219  21.9550  0.00  0.00     0.000 N
ATOM     61  HD  NAG B   4      21.713  17.561  21.2780  0.00  0.00     0.000 HD
ATOM     61   O  NAG B   4      21.985  19.341  22.3030  0.00  0.00     0.000 OA
ATOM     62   C  NAG B   4      21.634  18.253  22.7340  0.00  0.00     0.000 C
ATOM     63   C  NAG B   4      21.540  18.011  24.2080  0.00  0.00     0.000 C
ENDBRANCH 49 61
BRANCH 48 64
ATOM     64  O4  BDP B   5      22.763  15.178  20.7000  0.00  0.00     0.000 O
BRANCH 64 68
ATOM     65  C1  BDP B   5      21.755  12.118  23.3440  0.00  0.00     0.000 C
ATOM     66  C2  BDP B   5      22.826  13.088  23.8240  0.00  0.00     0.000 C
ATOM     67  C3  BDP B   5      22.783  14.357  22.9820  0.00  0.00     0.000 C
ATOM     68  C4  BDP B   5      22.931  14.012  21.5050  0.00  0.00     0.000 C
ATOM     69  C5  BDP B   5      21.923  12.962  21.0560  0.00  0.00     0.000 C
ATOM     70  O5  BDP B   5      21.936  11.834  21.9480  0.00  0.00     0.000 O
ATOM     71   O  BDP B   5      22.632  13.369  25.2180  0.00  0.00     0.000 O
ATOM     73  HD  BDP B   5      22.458  13.519  26.0530  0.00  0.00     0.000 HD
ATOM     73   O  BDP B   5      23.834  15.251  23.3670  0.00  0.00     0.000 O
ATOM     75  HD  BDP B   5      23.660  15.402  24.2020  0.00  0.00     0.000 HD
BRANCH 69 75
ATOM     75   C  BDP B   5      22.297  12.510  19.6670  0.00  0.00     0.000 C
ATOM     76   O  BDP B   5      23.443  12.057  19.4720  0.00  0.00     0.000 OA
ATOM     77   O  BDP B   5      21.453  12.597  18.7560  0.00  0.00     0.000 OA
ENDBRANCH 69 75
BRANCH 65 78
ATOM     78  O3  NAG B   6      21.811  10.690  23.4090  0.00  0.00     0.000 O
BRANCH 78 81
ATOM     79  C1  NAG B   6      19.554   7.759  24.2140  0.00  0.00     0.000 C
ATOM     80  C2  NAG B   6      20.507   8.935  24.4840  0.00  0.00     0.000 C
ATOM     81  C3  NAG B   6      20.800   9.682  23.1930  0.00  0.00     0.000 C
ATOM     82  C4  NAG B   6      21.252   8.716  22.0930  0.00  0.00     0.000 C
ATOM     83  C5  NAG B   6      20.210   7.615  21.9270  0.00  0.00     0.000 C
ATOM     84  O5  NAG B   6      20.103   6.929  23.1750  0.00  0.00     0.000 O
BRANCH 80 87
ATOM     85   N  NAG B   6      20.018   9.993  25.3630  0.00  0.00     0.000 N
ATOM     87  HD  NAG B   6      19.665  10.238  26.1150  0.00  0.00     0.000 HD
ATOM     87   C  NAG B   6      20.582  10.315  26.5330  0.00  0.00     0.000 C
ATOM     88   C  NAG B   6      19.949  11.454  27.2670  0.00  0.00     0.000 C
ATOM     89   O  NAG B   6      21.564   9.737  26.9840  0.00  0.00     0.000 OA
ENDBRANCH 80 87
ATOM     90   O  NAG B   6      19.625   6.747  19.7470  0.00  0.00     0.000 O
ATOM     92  HD  NAG B   6      19.348   6.910  20.5510  0.00  0.00     0.000 HD
ATOM     92   O  NAG B   6      19.625   6.747  19.7470  0.00  0.00     0.000 O
ATOM     94  HD  NAG B   6      19.348   6.910  20.5510  0.00  0.00     0.000 HD
ENDBRANCH 78 81
ENDBRANCH 65 78
ENDBRANCH 64 68
ENDBRANCH 48 64
ENDBRANCH 47 50
ENDBRANCH 34 47
ENDBRANCH 33 37
ENDBRANCH 17 33
ENDBRANCH 16 19
ENDBRANCH 1 16
TORSDOF 16
ENDMDL
MODEL 4
REMARK VINA RESULT:      -7.2      8.756     15.888
ROOT
ATOM      1  C1  BDP B   1       9.070  18.298  24.7600  0.00  0.00     0.000 C
ATOM      2  C2  BDP B   1       8.794  17.507  26.0260  0.00  0.00     0.000 C
ATOM      3  C3  BDP B   1       7.829  16.366  25.7870  0.00  0.00     0.000 C
ATOM      4  C4  BDP B   1       7.619  16.028  24.3150  0.00  0.00     0.000 C
ATOM      5  C5  BDP B   1       7.378  17.264  23.4540  0.00  0.00     0.000 C
ATOM      6  O5  BDP B   1       7.825  18.469  24.0980  0.00  0.00     0.000 O
ATOM      7   O  BDP B   1      10.022  16.996  26.5580  0.00  0.00     0.000 O
ATOM      9  HD  BDP B   1      10.856  17.092  26.7700  0.00  0.00     0.000 HD
ATOM      9   O  BDP B   1       6.546  16.683  26.3490  0.00  0.00     0.000 O
ATOM     11  HD  BDP B   1       7.380  16.779  26.5610  0.00  0.00     0.000 HD
ATOM     11   O  BDP B   1       8.741  15.296  23.8060  0.00  0.00     0.000 O
ATOM     13  HD  BDP B   1       9.575  15.391  24.0180  0.00  0.00     0.000 HD
ENDROOT
BRANCH 5 13
ATOM     13   C  BDP B   1       5.913  17.344  23.2000  0.00  0.00     0.000 C
ATOM     14   O  BDP B   1       5.479  16.911  22.1130  0.00  0.00     0.000 OA
ATOM     15   O  BDP B   1       5.167  17.815  24.0860  0.00  0.00     0.000 OA
ENDBRANCH 5 13
BRANCH 1 16
ATOM     16  O3  NAG B   2      10.296  18.560  24.0790  0.00  0.00     0.000 O
BRANCH 16 19
ATOM     17  C1  NAG B   2      13.265  19.414  22.1520  0.00  0.00     0.000 C
ATOM     18  C2  NAG B   2      12.571  19.213  23.5000  0.00  0.00     0.000 C
ATOM     19  C3  NAG B   2      11.479  18.158  23.3870  0.00  0.00     0.000 C
ATOM     20  C4  NAG B   2      11.143  17.843  21.9270  0.00  0.00     0.000 C
ATOM     21  C5  NAG B   2      11.219  19.040  20.9680  0.00  0.00     0.000 C
ATOM     22  O5  NAG B   2      12.264  19.964  21.2930  0.00  0.00     0.000 O
ATOM     23   O  NAG B   2      12.015  16.803  21.4740  0.00  0.00     0.000 O
ATOM     25  HD  NAG B   2      12.715  17.120  21.8730  0.00  0.00     0.000 HD
ATOM     25   C  NAG B   2       9.884  19.798  20.9430  0.00  0.00     0.000 C
ATOM     26   O  NAG B   2       8.959  19.214  20.0150  0.00  0.00     0.000 O
ATOM     28  HD  NAG B   2       9.660  19.531  20.4130  0.00  0.00     0.000 HD
BRANCH 18 30
ATOM     28   N  NAG B   2      13.848  18.503  23.4610  0.00  0.00     0.000 N
ATOM     30  HD  NAG B   2      14.220  17.780  23.1610  0.00  0.00     0.000 HD
ATOM     30   C  NAG B   2      14.444  17.935  24.5190  0.00  0.00     0.000 C
ATOM     31   C  NAG B   2      15.760  17.273  24.2240  0.00  0.00     0.000 C
ATOM     32   O  NAG B   2      13.970  17.939  25.6320  0.00  0.00     0.000 OA
ENDBRANCH 18 30
BRANCH 17 33
ATOM     33  O4  BDP B   3      14.046  20.195  21.2220  0.00  0.00     0.000 O
BRANCH 33 37
ATOM     34  C1  BDP B   3      18.144  20.124  20.0210  0.00  0.00     0.000 C
ATOM     35  C2  BDP B   3      17.560  21.472  20.4270  0.00  0.00     0.000 C
ATOM     36  C3  BDP B   3      16.268  21.361  21.2280  0.00  0.00     0.000 C
ATOM     37  C4  BDP B   3      15.332  20.347  20.5530  0.00  0.00     0.000 C
ATOM     38  C5  BDP B   3      16.103  19.018  20.4410  0.00  0.00     0.000 C
ATOM     39  O5  BDP B   3      17.140  19.252  19.4890  0.00  0.00     0.000 O
ATOM     40   O  BDP B   3      18.588  22.152  21.1500  0.00  0.00     0.000 O
ATOM     42  HD  BDP B   3      18.841  22.310  20.3370  0.00  0.00     0.000 HD
ATOM     42   O  BDP B   3      15.696  22.668  21.2660  0.00  0.00     0.000 O
ATOM     44  HD  BDP B   3      15.948  22.825  20.4520  0.00  0.00     0.000 HD
BRANCH 38 44
ATOM     44   C  BDP B   3      15.269  17.853  20.0060  0.00  0.00     0.000 C
ATOM     45   O  BDP B   3      14.784  17.879  18.8540  0.00  0.00     0.000 OA
ATOM     46   O  BDP B   3      15.080  16.900  20.7930  0.00  0.00     0.000 OA
ENDBRANCH 38 44
BRANCH 34 47
ATOM     47  O3  NAG B   4      18.717  20.162  18.7150  0.00  0.00     0.000 O
BRANCH 47 50
ATOM     48  C1  NAG B   4      21.334  17.623  17.7890  0.00  0.00     0.000 C
ATOM     49  C2  NAG B   4      20.748  18.838  18.4880  0.00  0.00     0.000 C
ATOM     50  C3  NAG B   4      19.276  18.975  18.1150  0.00  0.00     0.000 C
ATOM     51  C4  NAG B   4      19.083  19.030  16.6080  0.00  0.00     0.000 C
ATOM     52  C5  NAG B   4      19.753  17.820  15.9550  0.00  0.00     0.000 C
ATOM     53  O5  NAG B   4      21.122  17.724  16.3680  0.00  0.00     0.000 O
ATOM     54   O  NAG B   4      17.683  19.049  16.3190  0.00  0.00     0.000 O
ATOM     56  HD  NAG B   4      18.168  19.262  15.6340  0.00  0.00     0.000 HD
ATOM     56   C  NAG B   4      19.688  17.906  14.4350  0.00  0.00     0.000 C
ATOM     57   O  NAG B   4      20.362  19.095  14.0040  0.00  0.00     0.000 O
ATOM     59  HD  NAG B   4      20.847  19.309  13.3190  0.00  0.00     0.000 HD
BRANCH 49 61
ATOM     59   N  NAG B   4      21.145  18.655  19.8840  0.00  0.00     0.000 N
ATOM     61  HD  NAG B   4      21.458  19.015  19.1610  0.00  0.00     0.000 HD
ATOM     61   O  NAG B   4      21.981  20.729  20.2030  0.00  0.00     0.000 OA
ATOM     62   C  NAG B   4      21.658  19.634  20.6390  0.00  0.00     0.000 C
ATOM     63   C  NAG B   4      21.801  19.321  22.0950  0.00  0.00     0.000 C
ENDBRANCH 49 61
BRANCH 48 64
ATOM     64  O4  BDP B   5      22.388  16.727  18.1250  0.00  0.00     0.000 O
BRANCH 64 68
ATOM     65  C1  BDP B   5      22.321  14.024  21.2980  0.00  0.00     0.000 C
ATOM     66  C2  BDP B   5      23.538  14.937  21.2250  0.00  0.00     0.000 C
ATOM     67  C3  BDP B   5      23.236  16.122  20.3160  0.00  0.00     0.000 C
ATOM     68  C4  BDP B   5      22.796  15.629  18.9420  0.00  0.00     0.000 C
ATOM     69  C5  BDP B   5      21.646  14.635  19.0290  0.00  0.00     0.000 C
ATOM     70  O5  BDP B   5      21.945  13.597  19.9790  0.00  0.00     0.000 O
ATOM     71   O  BDP B   5      23.902  15.362  22.5470  0.00  0.00     0.000 O
ATOM     73  HD  BDP B   5      24.065  15.604  23.3630  0.00  0.00     0.000 HD
ATOM     73   O  BDP B   5      24.394  16.953  20.1720  0.00  0.00     0.000 O
ATOM     75  HD  BDP B   5      24.557  17.195  20.9870  0.00  0.00     0.000 HD
BRANCH 69 75
ATOM     75   C  BDP B   5      21.443  14.025  17.6650  0.00  0.00     0.000 C
ATOM     76   O  BDP B   5      20.358  14.214  17.0790  0.00  0.00     0.000 OA
ATOM     77   O  BDP B   5      22.363  13.354  17.1610  0.00  0.00     0.000 OA
ENDBRANCH 69 75
BRANCH 65 78
ATOM     78  O3  NAG B   6      22.333  12.609  21.5060  0.00  0.00     0.000 O
BRANCH 78 81
ATOM     79  C1  NAG B   6      20.793  10.191  23.9790  0.00  0.00     0.000 C
ATOM     80  C2  NAG B   6      21.761  11.264  23.4560  0.00  0.00     0.000 C
ATOM     81  C3  NAG B   6      21.345  11.717  22.0660  0.00  0.00     0.000 C
ATOM     82  C4  NAG B   6      21.141  10.515  21.1380  0.00  0.00     0.000 C
ATOM     83  C5  NAG B   6      20.152   9.545  21.7750  0.00  0.00     0.000 C
ATOM     84  O5  NAG B   6      20.705   9.120  23.0210  0.00  0.00     0.000 O
BRANCH 80 87
ATOM     85   N  NAG B   6      21.816  12.283  24.5000  0.00  0.00     0.000 N
ATOM     87  HD  NAG B   6      22.116  12.556  25.2650  0.00  0.00     0.000 HD
ATOM     87   C  NAG B   6      22.917  12.977  24.8130  0.00  0.00     0.000 C
ATOM     88   C  NAG B   6      22.754  14.001  25.8900  0.00  0.00     0.000 C
ATOM     89   O  NAG B   6      23.995  12.808  24.2550  0.00  0.00     0.000 OA
ENDBRANCH 80 87
ATOM     90   O  NAG B   6      18.501   8.373  20.4530  0.00  0.00     0.000 O
ATOM     92  HD  NAG B   6      18.688   8.715  21.2260  0.00  0.00     0.000 HD
ATOM     92   O  NAG B   6      18.501   8.373  20.4530  0.00  0.00     0.000 O
ATOM     94  HD  NAG B   6      18.688   8.715  21.2260  0.00  0.00     0.000 HD
ENDBRANCH 78 81
ENDBRANCH 65 78
ENDBRANCH 64 68
ENDBRANCH 48 64
ENDBRANCH 47 50
ENDBRANCH 34 47
ENDBRANCH 33 37
ENDBRANCH 17 33
ENDBRANCH 16 19
ENDBRANCH 1 16
TORSDOF 16
ENDMDL
MODEL 5
REMARK VINA RESULT:      -7.0      4.201      8.152
ROOT
ATOM      1  C1  BDP B   1      20.467  10.123  25.8220  0.00  0.00     0.000 C
ATOM      2  C2  BDP B   1      19.236   9.490  25.1980  0.00  0.00     0.000 C
ATOM      3  C3  BDP B   1      19.454   8.029  24.8640  0.00  0.00     0.000 C
ATOM      4  C4  BDP B   1      20.684   7.417  25.5250  0.00  0.00     0.000 C
ATOM      5  C5  BDP B   1      21.923   8.297  25.3940  0.00  0.00     0.000 C
ATOM      6  O5  BDP B   1      21.590   9.661  25.0850  0.00  0.00     0.000 O
ATOM      7   O  BDP B   1      18.120   9.619  26.0850  0.00  0.00     0.000 O
ATOM      9  HD  BDP B   1      17.635  10.083  26.6330  0.00  0.00     0.000 HD
ATOM      9   O  BDP B   1      19.595   7.867  23.4440  0.00  0.00     0.000 O
ATOM     11  HD  BDP B   1      19.109   8.330  23.9920  0.00  0.00     0.000 HD
ATOM     11   O  BDP B   1      20.426   7.148  26.9080  0.00  0.00     0.000 O
ATOM     13  HD  BDP B   1      19.941   7.611  27.4560  0.00  0.00     0.000 HD
ENDROOT
BRANCH 5 13
ATOM     13   C  BDP B   1      22.757   7.724  24.3010  0.00  0.00     0.000 C
ATOM     14   O  BDP B   1      23.496   6.754  24.5700  0.00  0.00     0.000 OA
ATOM     15   O  BDP B   1      22.672   8.210  23.1530  0.00  0.00     0.000 OA
ENDBRANCH 5 13
BRANCH 1 16
ATOM     16  O3  NAG B   2      20.642  10.763  27.0840  0.00  0.00     0.000 O
BRANCH 16 19
ATOM     17  C1  NAG B   2      19.083  10.506  30.3650  0.00  0.00     0.000 C
ATOM     18  C2  NAG B   2      19.716   9.842  29.1410  0.00  0.00     0.000 C
ATOM     19  C3  NAG B   2      20.750  10.761  28.5090  0.00  0.00     0.000 C
ATOM     20  C4  NAG B   2      20.635  12.194  29.0370  0.00  0.00     0.000 C
ATOM     21  C5  NAG B   2      19.205  12.664  29.3380  0.00  0.00     0.000 C
ATOM     22  O5  NAG B   2      18.361  11.627  29.8510  0.00  0.00     0.000 O
ATOM     23   O  NAG B   2      21.441  12.310  30.2140  0.00  0.00     0.000 O
ATOM     25  HD  NAG B   2      21.217  11.536  30.5290  0.00  0.00     0.000 HD
ATOM     25   C  NAG B   2      18.552  13.250  28.0780  0.00  0.00     0.000 C
ATOM     26   O  NAG B   2      18.885  14.634  27.9010  0.00  0.00     0.000 O
ATOM     28  HD  NAG B   2      18.661  13.859  28.2160  0.00  0.00     0.000 HD
BRANCH 18 30
ATOM     28   N  NAG B   2      20.082   9.103  30.3490  0.00  0.00     0.000 N
ATOM     30  HD  NAG B   2      20.389   9.215  31.1510  0.00  0.00     0.000 HD
ATOM     30   C  NAG B   2      21.129   8.273  30.4540  0.00  0.00     0.000 C
ATOM     31   C  NAG B   2      21.288   7.623  31.7990  0.00  0.00     0.000 C
ATOM     32   O  NAG B   2      21.901   8.057  29.5490  0.00  0.00     0.000 OA
ENDBRANCH 18 30
BRANCH 17 33
ATOM     33  O4  BDP B   3      18.016  10.658  31.3260  0.00  0.00     0.000 O
BRANCH 33 37
ATOM     34  C1  BDP B   3      14.445   8.578  32.4050  0.00  0.00     0.000 C
ATOM     35  C2  BDP B   3      14.452   9.303  31.0640  0.00  0.00     0.000 C
ATOM     36  C3  BDP B   3      15.850   9.648  30.5630  0.00  0.00     0.000 C
ATOM     37  C4  BDP B   3      16.670  10.255  31.7120  0.00  0.00     0.000 C
ATOM     38  C5  BDP B   3      16.664   9.235  32.8670  0.00  0.00     0.000 C
ATOM     39  O5  BDP B   3      15.321   9.206  33.3490  0.00  0.00     0.000 O
ATOM     40   O  BDP B   3      13.743   8.461  30.1520  0.00  0.00     0.000 O
ATOM     42  HD  BDP B   3      13.080   8.847  30.5550  0.00  0.00     0.000 HD
ATOM     42   O  BDP B   3      15.683  10.568  29.4860  0.00  0.00     0.000 O
ATOM     44  HD  BDP B   3      15.020  10.953  29.8890  0.00  0.00     0.000 HD
BRANCH 38 44
ATOM     44   C  BDP B   3      17.598   9.565  33.9890  0.00  0.00     0.000 C
ATOM     45   O  BDP B   3      18.738   9.050  33.9730  0.00  0.00     0.000 OA
ATOM     46   O  BDP B   3      17.222  10.335  34.9000  0.00  0.00     0.000 OA
ENDBRANCH 38 44
BRANCH 34 47
ATOM     47  O3  NAG B   4      13.358   8.992  33.2300  0.00  0.00     0.000 O
BRANCH 47 50
ATOM     48  C1  NAG B   4      12.230   6.157  35.4300  0.00  0.00     0.000 C
ATOM     49  C2  NAG B   4      12.625   6.856  34.1410  0.00  0.00     0.000 C
ATOM     50  C3  NAG B   4      13.042   8.289  34.4500  0.00  0.00     0.000 C
ATOM     51  C4  NAG B   4      11.954   9.040  35.2010  0.00  0.00     0.000 C
ATOM     52  C5  NAG B   4      11.549   8.255  36.4490  0.00  0.00     0.000 C
ATOM     53  O5  NAG B   4      11.200   6.909  36.1020  0.00  0.00     0.000 O
ATOM     54   O  NAG B   4      12.443  10.336  35.5560  0.00  0.00     0.000 O
ATOM     56  HD  NAG B   4      11.585  10.267  35.6460  0.00  0.00     0.000 HD
ATOM     56   C  NAG B   4      10.374   8.915  37.1600  0.00  0.00     0.000 C
ATOM     57   O  NAG B   4       9.255   8.967  36.2650  0.00  0.00     0.000 O
ATOM     59  HD  NAG B   4       8.396   8.898  36.3550  0.00  0.00     0.000 HD
BRANCH 49 61
ATOM     59   N  NAG B   4      11.639   5.983  33.5030  0.00  0.00     0.000 N
ATOM     61  HD  NAG B   4      12.097   6.693  33.3140  0.00  0.00     0.000 HD
ATOM     61   O  NAG B   4      12.623   5.901  31.4720  0.00  0.00     0.000 OA
ATOM     62   C  NAG B   4      11.761   5.524  32.2520  0.00  0.00     0.000 C
ATOM     63   C  NAG B   4      10.771   4.477  31.8480  0.00  0.00     0.000 C
ENDBRANCH 49 61
BRANCH 48 64
ATOM     64  O4  BDP B   5      12.278   4.797  35.8500  0.00  0.00     0.000 O
BRANCH 64 68
ATOM     65  C1  BDP B   5      15.746   2.798  37.0110  0.00  0.00     0.000 C
ATOM     66  C2  BDP B   5      14.987   2.191  35.8390  0.00  0.00     0.000 C
ATOM     67  C3  BDP B   5      14.026   3.222  35.2610  0.00  0.00     0.000 C
ATOM     68  C4  BDP B   5      13.094   3.739  36.3510  0.00  0.00     0.000 C
ATOM     69  C5  BDP B   5      13.858   4.249  37.5660  0.00  0.00     0.000 C
ATOM     70  O5  BDP B   5      14.823   3.276  38.0020  0.00  0.00     0.000 O
ATOM     71   O  BDP B   5      15.919   1.722  34.8520  0.00  0.00     0.000 O
ATOM     73  HD  BDP B   5      16.522   1.476  34.2810  0.00  0.00     0.000 HD
ATOM     73   O  BDP B   5      13.246   2.646  34.2060  0.00  0.00     0.000 O
ATOM     75  HD  BDP B   5      13.849   2.400  33.6360  0.00  0.00     0.000 HD
BRANCH 69 75
ATOM     75   C  BDP B   5      12.869   4.509  38.6730  0.00  0.00     0.000 C
ATOM     76   O  BDP B   5      12.053   3.613  38.9710  0.00  0.00     0.000 OA
ATOM     77   O  BDP B   5      12.895   5.606  39.2610  0.00  0.00     0.000 OA
ENDBRANCH 69 75
BRANCH 65 78
ATOM     78  O3  NAG B   6      16.254   2.097  38.1490  0.00  0.00     0.000 O
BRANCH 78 81
ATOM     79  C1  NAG B   6      19.643   1.723  39.7950  0.00  0.00     0.000 C
ATOM     80  C2  NAG B   6      18.547   1.519  38.7370  0.00  0.00     0.000 C
ATOM     81  C3  NAG B   6      17.344   2.395  39.0480  0.00  0.00     0.000 C
ATOM     82  C4  NAG B   6      16.891   2.203  40.5000  0.00  0.00     0.000 C
ATOM     83  C5  NAG B   6      18.070   2.449  41.4340  0.00  0.00     0.000 C
ATOM     84  O5  NAG B   6      19.088   1.502  41.1040  0.00  0.00     0.000 O
BRANCH 80 87
ATOM     85   N  NAG B   6      19.185   1.745  37.4430  0.00  0.00     0.000 N
ATOM     87  HD  NAG B   6      19.697   1.467  36.8020  0.00  0.00     0.000 HD
ATOM     87   C  NAG B   6      18.904   1.045  36.3360  0.00  0.00     0.000 C
ATOM     88   C  NAG B   6      19.643   1.457  35.1030  0.00  0.00     0.000 C
ATOM     89   O  NAG B   6      18.085   0.134  36.3120  0.00  0.00     0.000 OA
ENDBRANCH 80 87
ATOM     90   O  NAG B   6      17.793   3.593  43.5460  0.00  0.00     0.000 O
ATOM     92  HD  NAG B   6      18.329   3.425  42.8870  0.00  0.00     0.000 HD
ATOM     92   O  NAG B   6      17.793   3.593  43.5460  0.00  0.00     0.000 O
ATOM     94  HD  NAG B   6      18.329   3.425  42.8870  0.00  0.00     0.000 HD
ENDBRANCH 78 81
ENDBRANCH 65 78
ENDBRANCH 64 68
ENDBRANCH 48 64
ENDBRANCH 47 50
ENDBRANCH 34 47
ENDBRANCH 33 37
ENDBRANCH 17 33
ENDBRANCH 16 19
ENDBRANCH 1 16
TORSDOF 16
ENDMDL
MODEL 6
REMARK VINA RESULT:      -7.0      9.665     16.828
ROOT
ATOM      1  C1  BDP B   1       9.209  18.486  24.4410  0.00  0.00     0.000 C
ATOM      2  C2  BDP B   1       8.657  17.658  25.5870  0.00  0.00     0.000 C
ATOM      3  C3  BDP B   1       7.534  16.745  25.1420  0.00  0.00     0.000 C
ATOM      4  C4  BDP B   1       7.430  16.580  23.6300  0.00  0.00     0.000 C
ATOM      5  C5  BDP B   1       7.513  17.909  22.8840  0.00  0.00     0.000 C
ATOM      6  O5  BDP B   1       8.096  18.947  23.6890  0.00  0.00     0.000 O
ATOM      7   O  BDP B   1       9.705  16.878  26.1740  0.00  0.00     0.000 O
ATOM      9  HD  BDP B   1      10.515  16.795  26.4710  0.00  0.00     0.000 HD
ATOM      9   O  BDP B   1       6.275  17.252  25.6120  0.00  0.00     0.000 O
ATOM     11  HD  BDP B   1       7.084  17.169  25.9090  0.00  0.00     0.000 HD
ATOM     11   O  BDP B   1       8.450  15.694  23.1530  0.00  0.00     0.000 O
ATOM     13  HD  BDP B   1       9.259  15.611  23.4500  0.00  0.00     0.000 HD
ENDROOT
BRANCH 5 13
ATOM     13   C  BDP B   1       6.124  18.288  22.5050  0.00  0.00     0.000 C
ATOM     14   O  BDP B   1       5.670  17.860  21.4230  0.00  0.00     0.000 OA
ATOM     15   O  BDP B   1       5.452  18.995  23.2870  0.00  0.00     0.000 OA
ENDBRANCH 5 13
BRANCH 1 16
ATOM     16  O3  NAG B   2      10.529  18.568  23.9080  0.00  0.00     0.000 O
BRANCH 16 19
ATOM     17  C1  NAG B   2      13.711  18.930  22.1750  0.00  0.00     0.000 C
ATOM     18  C2  NAG B   2      12.887  18.991  23.4610  0.00  0.00     0.000 C
ATOM     19  C3  NAG B   2      11.739  17.994  23.4100  0.00  0.00     0.000 C
ATOM     20  C4  NAG B   2      11.513  17.462  21.9920  0.00  0.00     0.000 C
ATOM     21  C5  NAG B   2      11.757  18.479  20.8680  0.00  0.00     0.000 C
ATOM     22  O5  NAG B   2      12.831  19.385  21.1440  0.00  0.00     0.000 O
ATOM     23   O  NAG B   2      12.346  16.315  21.7980  0.00  0.00     0.000 O
ATOM     25  HD  NAG B   2      13.029  16.654  22.2090  0.00  0.00     0.000 HD
ATOM     25   C  NAG B   2      10.486  19.294  20.5900  0.00  0.00     0.000 C
ATOM     26   O  NAG B   2       9.609  18.617  19.6790  0.00  0.00     0.000 O
ATOM     28  HD  NAG B   2      10.292  18.957  20.0900  0.00  0.00     0.000 HD
BRANCH 18 30
ATOM     28   N  NAG B   2      14.151  18.287  23.6750  0.00  0.00     0.000 N
ATOM     30  HD  NAG B   2      14.560  17.547  23.4880  0.00  0.00     0.000 HD
ATOM     30   C  NAG B   2      14.568  17.797  24.8510  0.00  0.00     0.000 C
ATOM     31   C  NAG B   2      15.910  17.123  24.8150  0.00  0.00     0.000 C
ATOM     32   O  NAG B   2      13.924  17.877  25.8720  0.00  0.00     0.000 OA
ENDBRANCH 18 30
BRANCH 17 33
ATOM     33  O4  BDP B   3      14.625  19.503  21.2150  0.00  0.00     0.000 O
BRANCH 33 37
ATOM     34  C1  BDP B   3      18.071  18.068  19.1410  0.00  0.00     0.000 C
ATOM     35  C2  BDP B   3      18.295  18.703  20.5080  0.00  0.00     0.000 C
ATOM     36  C3  BDP B   3      17.029  18.798  21.3520  0.00  0.00     0.000 C
ATOM     37  C4  BDP B   3      15.878  19.337  20.4890  0.00  0.00     0.000 C
ATOM     38  C5  BDP B   3      15.739  18.400  19.2740  0.00  0.00     0.000 C
ATOM     39  O5  BDP B   3      16.915  18.607  18.4910  0.00  0.00     0.000 O
ATOM     40   O  BDP B   3      19.313  17.929  21.1460  0.00  0.00     0.000 O
ATOM     42  HD  BDP B   3      19.799  18.435  20.6380  0.00  0.00     0.000 HD
ATOM     42   O  BDP B   3      17.327  19.667  22.4430  0.00  0.00     0.000 O
ATOM     44  HD  BDP B   3      17.813  20.173  21.9350  0.00  0.00     0.000 HD
BRANCH 38 44
ATOM     44   C  BDP B   3      14.523  18.648  18.4380  0.00  0.00     0.000 C
ATOM     45   O  BDP B   3      14.377  19.785  17.9380  0.00  0.00     0.000 OA
ATOM     46   O  BDP B   3      13.695  17.727  18.2630  0.00  0.00     0.000 OA
ENDBRANCH 38 44
BRANCH 34 47
ATOM     47  O3  NAG B   4      18.857  18.692  18.1280  0.00  0.00     0.000 O
BRANCH 47 50
ATOM     48  C1  NAG B   4      20.655  16.631  15.5450  0.00  0.00     0.000 C
ATOM     49  C2  NAG B   4      20.393  17.250  16.9070  0.00  0.00     0.000 C
ATOM     50  C3  NAG B   4      19.090  18.041  16.8620  0.00  0.00     0.000 C
ATOM     51  C4  NAG B   4      19.104  19.079  15.7520  0.00  0.00     0.000 C
ATOM     52  C5  NAG B   4      19.441  18.410  14.4190  0.00  0.00     0.000 C
ATOM     53  O5  NAG B   4      20.655  17.656  14.5320  0.00  0.00     0.000 O
ATOM     54   O  NAG B   4      17.823  19.711  15.6890  0.00  0.00     0.000 O
ATOM     56  HD  NAG B   4      18.428  20.139  15.2410  0.00  0.00     0.000 HD
ATOM     56   C  NAG B   4      19.587  19.439  13.3040  0.00  0.00     0.000 C
ATOM     57   O  NAG B   4      20.642  20.349  13.6430  0.00  0.00     0.000 O
ATOM     59  HD  NAG B   4      21.247  20.777  13.1950  0.00  0.00     0.000 HD
BRANCH 49 61
ATOM     59   N  NAG B   4      20.568  16.116  17.8150  0.00  0.00     0.000 N
ATOM     61  HD  NAG B   4      21.048  16.742  17.4570  0.00  0.00     0.000 HD
ATOM     61   O  NAG B   4      21.935  17.152  19.2840  0.00  0.00     0.000 OA
ATOM     62   C  NAG B   4      21.261  16.186  18.9570  0.00  0.00     0.000 C
ATOM     63   C  NAG B   4      21.151  14.995  19.8550  0.00  0.00     0.000 C
ENDBRANCH 49 61
BRANCH 48 64
ATOM     64  O4  BDP B   5      21.334  15.449  15.1310  0.00  0.00     0.000 O
BRANCH 64 68
ATOM     65  C1  BDP B   5      22.858  12.552  17.7110  0.00  0.00     0.000 C
ATOM     66  C2  BDP B   5      23.886  13.437  17.0200  0.00  0.00     0.000 C
ATOM     67  C3  BDP B   5      23.204  14.685  16.4730  0.00  0.00     0.000 C
ATOM     68  C4  BDP B   5      22.059  14.293  15.5460  0.00  0.00     0.000 C
ATOM     69  C5  BDP B   5      21.089  13.323  16.2090  0.00  0.00     0.000 C
ATOM     70  O5  BDP B   5      21.800  12.220  16.7980  0.00  0.00     0.000 O
ATOM     71   O  BDP B   5      24.935  13.768  17.9430  0.00  0.00     0.000 O
ATOM     73  HD  BDP B   5      25.530  13.953  18.5450  0.00  0.00     0.000 HD
ATOM     73   O  BDP B   5      24.140  15.495  15.7520  0.00  0.00     0.000 O
ATOM     75  HD  BDP B   5      24.734  15.680  16.3540  0.00  0.00     0.000 HD
BRANCH 69 75
ATOM     75   C  BDP B   5      20.142  12.807  15.1560  0.00  0.00     0.000 C
ATOM     76   O  BDP B   5      20.479  12.881  13.9570  0.00  0.00     0.000 OA
ATOM     77   O  BDP B   5      19.053  12.318  15.5110  0.00  0.00     0.000 OA
ENDBRANCH 69 75
BRANCH 65 78
ATOM     78  O3  NAG B   6      22.903  11.127  17.8220  0.00  0.00     0.000 O
BRANCH 78 81
ATOM     79  C1  NAG B   6      23.122   8.180  20.1890  0.00  0.00     0.000 C
ATOM     80  C2  NAG B   6      23.607   9.222  19.1680  0.00  0.00     0.000 C
ATOM     81  C3  NAG B   6      22.511  10.238  18.8910  0.00  0.00     0.000 C
ATOM     82  C4  NAG B   6      21.196   9.538  18.5340  0.00  0.00     0.000 C
ATOM     83  C5  NAG B   6      20.833   8.549  19.6350  0.00  0.00     0.000 C
ATOM     84  O5  NAG B   6      21.892   7.595  19.7260  0.00  0.00     0.000 O
BRANCH 80 87
ATOM     85   N  NAG B   6      24.816   9.865  19.6750  0.00  0.00     0.000 N
ATOM     87  HD  NAG B   6      25.655   9.823  19.8830  0.00  0.00     0.000 HD
ATOM     87   C  NAG B   6      25.914  10.081  18.9400  0.00  0.00     0.000 C
ATOM     88   C  NAG B   6      27.033  10.788  19.6370  0.00  0.00     0.000 C
ATOM     89   O  NAG B   6      26.010   9.743  17.7660  0.00  0.00     0.000 OA
ENDBRANCH 80 87
ATOM     90   O  NAG B   6      18.544   8.238  20.3520  0.00  0.00     0.000 O
ATOM     92  HD  NAG B   6      19.377   8.219  20.5870  0.00  0.00     0.000 HD
ATOM     92   O  NAG B   6      18.544   8.238  20.3520  0.00  0.00     0.000 O
ATOM     94  HD  NAG B   6      19.377   8.219  20.5870  0.00  0.00     0.000 HD
ENDBRANCH 78 81
ENDBRANCH 65 78
ENDBRANCH 64 68
ENDBRANCH 48 64
ENDBRANCH 47 50
ENDBRANCH 34 47
ENDBRANCH 33 37
ENDBRANCH 17 33
ENDBRANCH 16 19
ENDBRANCH 1 16
TORSDOF 16
ENDMDL
MODEL 7
REMARK VINA RESULT:      -6.9      1.760      2.208
ROOT
ATOM      1  C1  BDP B   1      20.141  12.510  18.6400  0.00  0.00     0.000 C
ATOM      2  C2  BDP B   1      19.570  12.391  17.2380  0.00  0.00     0.000 C
ATOM      3  C3  BDP B   1      20.592  12.731  16.1750  0.00  0.00     0.000 C
ATOM      4  C4  BDP B   1      22.029  12.769  16.6840  0.00  0.00     0.000 C
ATOM      5  C5  BDP B   1      22.173  13.551  17.9860  0.00  0.00     0.000 C
ATOM      6  O5  BDP B   1      20.917  13.699  18.6710  0.00  0.00     0.000 O
ATOM      7   O  BDP B   1      19.077  11.063  17.0250  0.00  0.00     0.000 O
ATOM      9  HD  BDP B   1      18.641  10.363  17.2890  0.00  0.00     0.000 HD
ATOM      9   O  BDP B   1      20.297  14.015  15.6040  0.00  0.00     0.000 O
ATOM     11  HD  BDP B   1      19.861  13.315  15.8680  0.00  0.00     0.000 HD
ATOM     11   O  BDP B   1      22.532  11.439  16.8600  0.00  0.00     0.000 O
ATOM     13  HD  BDP B   1      22.096  10.740  17.1240  0.00  0.00     0.000 HD
ENDROOT
BRANCH 5 13
ATOM     13   C  BDP B   1      22.716  14.892  17.6370  0.00  0.00     0.000 C
ATOM     14   O  BDP B   1      23.953  15.054  17.6710  0.00  0.00     0.000 OA
ATOM     15   O  BDP B   1      21.925  15.799  17.2990  0.00  0.00     0.000 OA
ENDBRANCH 5 13
BRANCH 1 16
ATOM     16  O3  NAG B   2      20.255  11.542  19.6800  0.00  0.00     0.000 O
BRANCH 16 19
ATOM     17  C1  NAG B   2      21.150   9.864  22.7850  0.00  0.00     0.000 C
ATOM     18  C2  NAG B   2      20.175  10.079  21.6270  0.00  0.00     0.000 C
ATOM     19  C3  NAG B   2      20.924  10.481  20.3650  0.00  0.00     0.000 C
ATOM     20  C4  NAG B   2      22.367  10.892  20.6680  0.00  0.00     0.000 C
ATOM     21  C5  NAG B   2      22.570  11.625  22.0020  0.00  0.00     0.000 C
ATOM     22  O5  NAG B   2      21.711  11.153  23.0460  0.00  0.00     0.000 O
ATOM     23   O  NAG B   2      23.191   9.722  20.6270  0.00  0.00     0.000 O
ATOM     25  HD  NAG B   2      22.614   9.217  21.0300  0.00  0.00     0.000 HD
ATOM     25   C  NAG B   2      22.349  13.134  21.8290  0.00  0.00     0.000 C
ATOM     26   O  NAG B   2      23.537  13.797  21.3750  0.00  0.00     0.000 O
ATOM     28  HD  NAG B   2      22.961  13.291  21.7780  0.00  0.00     0.000 HD
BRANCH 18 30
ATOM     28   N  NAG B   2      20.421   8.654  21.8480  0.00  0.00     0.000 N
ATOM     30  HD  NAG B   2      21.007   8.032  21.7060  0.00  0.00     0.000 HD
ATOM     30   C  NAG B   2      19.755   7.658  21.2480  0.00  0.00     0.000 C
ATOM     31   C  NAG B   2      20.186   6.276  21.6500  0.00  0.00     0.000 C
ATOM     32   O  NAG B   2      18.875   7.838  20.4380  0.00  0.00     0.000 OA
ENDBRANCH 18 30
BRANCH 17 33
ATOM     33  O4  BDP B   3      21.464   9.789  24.1930  0.00  0.00     0.000 O
BRANCH 33 37
ATOM     34  C1  BDP B   3      19.378  10.998  27.7180  0.00  0.00     0.000 C
ATOM     35  C2  BDP B   3      20.542  11.869  27.2640  0.00  0.00     0.000 C
ATOM     36  C3  BDP B   3      20.953  11.634  25.8150  0.00  0.00     0.000 C
ATOM     37  C4  BDP B   3      21.039  10.124  25.5460  0.00  0.00     0.000 C
ATOM     38  C5  BDP B   3      19.669   9.517  25.9040  0.00  0.00     0.000 C
ATOM     39  O5  BDP B   3      19.554   9.632  27.3220  0.00  0.00     0.000 O
ATOM     40   O  BDP B   3      20.145  13.222  27.5000  0.00  0.00     0.000 O
ATOM     42  HD  BDP B   3      20.399  12.994  28.2960  0.00  0.00     0.000 HD
ATOM     42   O  BDP B   3      22.214  12.277  25.6360  0.00  0.00     0.000 O
ATOM     44  HD  BDP B   3      22.467  12.049  26.4320  0.00  0.00     0.000 HD
BRANCH 38 44
ATOM     44   C  BDP B   3      19.500   8.086  25.4970  0.00  0.00     0.000 C
ATOM     45   O  BDP B   3      18.828   7.845  24.4700  0.00  0.00     0.000 OA
ATOM     46   O  BDP B   3      20.025   7.182  26.1830  0.00  0.00     0.000 OA
ENDBRANCH 38 44
BRANCH 34 47
ATOM     47  O3  NAG B   4      19.531  10.563  29.0680  0.00  0.00     0.000 O
BRANCH 47 50
ATOM     48  C1  NAG B   4      16.161  10.354  30.7260  0.00  0.00     0.000 C
ATOM     49  C2  NAG B   4      17.281  10.970  29.9050  0.00  0.00     0.000 C
ATOM     50  C3  NAG B   4      18.428   9.973  29.7870  0.00  0.00     0.000 C
ATOM     51  C4  NAG B   4      18.906   9.505  31.1520  0.00  0.00     0.000 C
ATOM     52  C5  NAG B   4      17.725   8.962  31.9570  0.00  0.00     0.000 C
ATOM     53  O5  NAG B   4      16.667   9.927  32.0050  0.00  0.00     0.000 O
ATOM     54   O  NAG B   4      19.904   8.496  30.9760  0.00  0.00     0.000 O
ATOM     56  HD  NAG B   4      19.879   8.802  31.7860  0.00  0.00     0.000 HD
ATOM     56   C  NAG B   4      18.143   8.599  33.3770  0.00  0.00     0.000 C
ATOM     57   O  NAG B   4      18.646   9.771  34.0310  0.00  0.00     0.000 O
ATOM     59  HD  NAG B   4      18.621  10.078  34.8400  0.00  0.00     0.000 HD
BRANCH 49 61
ATOM     59   N  NAG B   4      16.207  11.771  29.3180  0.00  0.00     0.000 N
ATOM     61  HD  NAG B   4      16.898  11.884  29.8270  0.00  0.00     0.000 HD
ATOM     61   O  NAG B   4      17.480  13.540  28.7240  0.00  0.00     0.000 OA
ATOM     62   C  NAG B   4      16.410  12.949  28.7160  0.00  0.00     0.000 C
ATOM     63   C  NAG B   4      15.231  13.516  27.9900  0.00  0.00     0.000 C
ENDBRANCH 49 61
BRANCH 48 64
ATOM     64  O4  BDP B   5      14.748  10.534  30.7260  0.00  0.00     0.000 O
BRANCH 64 68
ATOM     65  C1  BDP B   5      12.165   8.942  33.5840  0.00  0.00     0.000 C
ATOM     66  C2  BDP B   5      11.931   8.490  32.1480  0.00  0.00     0.000 C
ATOM     67  C3  BDP B   5      13.167   8.789  31.3100  0.00  0.00     0.000 C
ATOM     68  C4  BDP B   5      13.520  10.269  31.4020  0.00  0.00     0.000 C
ATOM     69  C5  BDP B   5      13.649  10.740  32.8450  0.00  0.00     0.000 C
ATOM     70  O5  BDP B   5      12.500  10.338  33.6130  0.00  0.00     0.000 O
ATOM     71   O  BDP B   5      11.603   7.093  32.1300  0.00  0.00     0.000 O
ATOM     73  HD  BDP B   5      11.430   6.245  32.1750  0.00  0.00     0.000 HD
ATOM     73   O  BDP B   5      12.941   8.442  29.9380  0.00  0.00     0.000 O
ATOM     75  HD  BDP B   5      12.767   7.595  29.9820  0.00  0.00     0.000 HD
BRANCH 69 75
ATOM     75   C  BDP B   5      13.754  12.244  32.8450  0.00  0.00     0.000 C
ATOM     76   O  BDP B   5      12.966  12.900  33.5570  0.00  0.00     0.000 OA
ATOM     77   O  BDP B   5      14.624  12.788  32.1400  0.00  0.00     0.000 OA
ENDBRANCH 69 75
BRANCH 65 78
ATOM     78  O3  NAG B   6      11.168   9.395  34.5040  0.00  0.00     0.000 O
BRANCH 78 81
ATOM     79  C1  NAG B   6       9.970   8.422  37.9610  0.00  0.00     0.000 C
ATOM     80  C2  NAG B   6      10.138   8.326  36.4360  0.00  0.00     0.000 C
ATOM     81  C3  NAG B   6      11.121   9.378  35.9470  0.00  0.00     0.000 C
ATOM     82  C4  NAG B   6      10.741  10.766  36.4750  0.00  0.00     0.000 C
ATOM     83  C5  NAG B   6      10.622  10.715  37.9930  0.00  0.00     0.000 C
ATOM     84  O5  NAG B   6       9.603   9.768  38.3160  0.00  0.00     0.000 O
BRANCH 80 87
ATOM     85   N  NAG B   6       9.484   7.376  35.5410  0.00  0.00     0.000 N
ATOM     87  HD  NAG B   6       9.436   6.986  34.7690  0.00  0.00     0.000 HD
ATOM     87   C  NAG B   6      10.061   6.257  35.0850  0.00  0.00     0.000 C
ATOM     88   C  NAG B   6       9.208   5.399  34.2060  0.00  0.00     0.000 C
ATOM     89   O  NAG B   6      11.208   5.932  35.3710  0.00  0.00     0.000 OA
ENDBRANCH 80 87
ATOM     90   O  NAG B   6      11.391  12.539  39.3830  0.00  0.00     0.000 O
ATOM     92  HD  NAG B   6      11.263  11.684  39.3280  0.00  0.00     0.000 HD
ATOM     92   O  NAG B   6      11.391  12.539  39.3830  0.00  0.00     0.000 O
ATOM     94  HD  NAG B   6      11.263  11.684  39.3280  0.00  0.00     0.000 HD
ENDBRANCH 78 81
ENDBRANCH 65 78
ENDBRANCH 64 68
ENDBRANCH 48 64
ENDBRANCH 47 50
ENDBRANCH 34 47
ENDBRANCH 33 37
ENDBRANCH 17 33
ENDBRANCH 16 19
ENDBRANCH 1 16
TORSDOF 16
ENDMDL
MODEL 8
REMARK VINA RESULT:      -6.3     11.286     20.813
ROOT
ATOM      1  C1  BDP B   1       8.671  16.768  23.4920  0.00  0.00     0.000 C
ATOM      2  C2  BDP B   1       7.278  16.387  23.0230  0.00  0.00     0.000 C
ATOM      3  C3  BDP B   1       6.197  17.031  23.8660  0.00  0.00     0.000 C
ATOM      4  C4  BDP B   1       6.694  18.170  24.7490  0.00  0.00     0.000 C
ATOM      5  C5  BDP B   1       7.972  17.818  25.5040  0.00  0.00     0.000 C
ATOM      6  O5  BDP B   1       8.662  16.705  24.9110  0.00  0.00     0.000 O
ATOM      7   O  BDP B   1       7.107  16.764  21.6520  0.00  0.00     0.000 O
ATOM      9  HD  BDP B   1       7.394  16.814  20.8370  0.00  0.00     0.000 HD
ATOM      9   O  BDP B   1       5.593  16.048  24.7210  0.00  0.00     0.000 O
ATOM     11  HD  BDP B   1       5.880  16.098  23.9060  0.00  0.00     0.000 HD
ATOM     11   O  BDP B   1       6.903  19.353  23.9670  0.00  0.00     0.000 O
ATOM     13  HD  BDP B   1       7.191  19.403  23.1520  0.00  0.00     0.000 HD
ENDROOT
BRANCH 5 13
ATOM     13   C  BDP B   1       7.581  17.481  26.9000  0.00  0.00     0.000 C
ATOM     14   O  BDP B   1       6.394  17.666  27.2400  0.00  0.00     0.000 OA
ATOM     15   O  BDP B   1       8.438  17.002  27.6720  0.00  0.00     0.000 OA
ENDBRANCH 5 13
BRANCH 1 16
ATOM     16  O3  NAG B   2       9.738  17.415  22.8010  0.00  0.00     0.000 O
BRANCH 16 19
ATOM     17  C1  NAG B   2      12.505  19.173  21.2180  0.00  0.00     0.000 C
ATOM     18  C2  NAG B   2      11.982  18.213  22.2870  0.00  0.00     0.000 C
ATOM     19  C3  NAG B   2      10.744  17.481  21.7890  0.00  0.00     0.000 C
ATOM     20  C4  NAG B   2      10.168  18.133  20.5290  0.00  0.00     0.000 C
ATOM     21  C5  NAG B   2      10.283  19.663  20.4760  0.00  0.00     0.000 C
ATOM     22  O5  NAG B   2      11.486  20.164  21.0720  0.00  0.00     0.000 O
ATOM     23   O  NAG B   2      10.809  17.558  19.3860  0.00  0.00     0.000 O
ATOM     25  HD  NAG B   2      11.596  17.544  19.7470  0.00  0.00     0.000 HD
ATOM     25   C  NAG B   2       9.082  20.321  21.1690  0.00  0.00     0.000 C
ATOM     26   O  NAG B   2       7.963  20.453  20.2810  0.00  0.00     0.000 O
ATOM     28  HD  NAG B   2       8.750  20.439  20.6420  0.00  0.00     0.000 HD
BRANCH 18 30
ATOM     28   N  NAG B   2      13.372  17.762  22.2680  0.00  0.00     0.000 N
ATOM     30  HD  NAG B   2      14.116  17.858  21.8340  0.00  0.00     0.000 HD
ATOM     30   C  NAG B   2      13.772  16.521  21.9550  0.00  0.00     0.000 C
ATOM     31   C  NAG B   2      15.257  16.301  22.0180  0.00  0.00     0.000 C
ATOM     32   O  NAG B   2      13.012  15.636  21.6380  0.00  0.00     0.000 OA
ENDBRANCH 18 30
BRANCH 17 33
ATOM     33  O4  BDP B   3      13.256  20.334  20.8020  0.00  0.00     0.000 O
BRANCH 33 37
ATOM     34  C1  BDP B   3      16.336  21.003  17.9190  0.00  0.00     0.000 C
ATOM     35  C2  BDP B   3      16.772  20.659  19.3380  0.00  0.00     0.000 C
ATOM     36  C3  BDP B   3      15.669  20.031  20.1810  0.00  0.00     0.000 C
ATOM     37  C4  BDP B   3      14.370  20.831  20.0030  0.00  0.00     0.000 C
ATOM     38  C5  BDP B   3      14.052  20.859  18.4960  0.00  0.00     0.000 C
ATOM     39  O5  BDP B   3      15.068  21.669  17.9030  0.00  0.00     0.000 O
ATOM     40   O  BDP B   3      17.909  19.803  19.2100  0.00  0.00     0.000 O
ATOM     42  HD  BDP B   3      18.284  20.575  19.0950  0.00  0.00     0.000 HD
ATOM     42   O  BDP B   3      16.124  20.052  21.5330  0.00  0.00     0.000 O
ATOM     44  HD  BDP B   3      16.498  20.824  21.4180  0.00  0.00     0.000 HD
BRANCH 38 44
ATOM     44   C  BDP B   3      12.702  21.411  18.1580  0.00  0.00     0.000 C
ATOM     45   O  BDP B   3      11.897  20.662  17.5620  0.00  0.00     0.000 OA
ATOM     46   O  BDP B   3      12.418  22.587  18.4720  0.00  0.00     0.000 OA
ENDBRANCH 38 44
BRANCH 34 47
ATOM     47  O3  NAG B   4      16.914  22.224  17.4630  0.00  0.00     0.000 O
BRANCH 47 50
ATOM     48  C1  NAG B   4      18.031  22.364  13.8730  0.00  0.00     0.000 C
ATOM     49  C2  NAG B   4      18.038  21.917  15.3250  0.00  0.00     0.000 C
ATOM     50  C3  NAG B   4      16.885  22.583  16.0660  0.00  0.00     0.000 C
ATOM     51  C4  NAG B   4      16.934  24.097  15.9310  0.00  0.00     0.000 C
ATOM     52  C5  NAG B   4      16.996  24.484  14.4530  0.00  0.00     0.000 C
ATOM     53  O5  NAG B   4      18.076  23.802  13.8030  0.00  0.00     0.000 O
ATOM     54   O  NAG B   4      15.773  24.657  16.5510  0.00  0.00     0.000 O
ATOM     56  HD  NAG B   4      16.382  25.251  16.3840  0.00  0.00     0.000 HD
ATOM     56   C  NAG B   4      17.171  25.988  14.2810  0.00  0.00     0.000 C
ATOM     57   O  NAG B   4      18.392  26.392  14.9160  0.00  0.00     0.000 O
ATOM     59  HD  NAG B   4      19.000  26.985  14.7480  0.00  0.00     0.000 HD
BRANCH 49 61
ATOM     59   N  NAG B   4      18.263  20.491  15.0840  0.00  0.00     0.000 N
ATOM     61  HD  NAG B   4      18.727  21.202  15.2540  0.00  0.00     0.000 HD
ATOM     61   O  NAG B   4      19.819  20.185  16.6920  0.00  0.00     0.000 OA
ATOM     62   C  NAG B   4      19.075  19.735  15.8330  0.00  0.00     0.000 C
ATOM     63   C  NAG B   4      19.012  18.263  15.5730  0.00  0.00     0.000 C
ENDBRANCH 49 61
BRANCH 48 64
ATOM     64  O4  BDP B   5      18.455  21.741  12.6650  0.00  0.00     0.000 O
BRANCH 64 68
ATOM     65  C1  BDP B   5      16.567  18.669  10.5740  0.00  0.00     0.000 C
ATOM     66  C2  BDP B   5      18.089  18.624  10.5950  0.00  0.00     0.000 C
ATOM     67  C3  BDP B   5      18.613  19.514  11.7140  0.00  0.00     0.000 C
ATOM     68  C4  BDP B   5      18.075  20.932  11.5520  0.00  0.00     0.000 C
ATOM     69  C5  BDP B   5      16.558  20.960  11.4260  0.00  0.00     0.000 C
ATOM     70  O5  BDP B   5      16.115  20.024  10.4270  0.00  0.00     0.000 O
ATOM     71   O  BDP B   5      18.529  17.266  10.7470  0.00  0.00     0.000 O
ATOM     73  HD  BDP B   5      18.740  16.433  10.8610  0.00  0.00     0.000 HD
ATOM     73   O  BDP B   5      20.045  19.548  11.7030  0.00  0.00     0.000 O
ATOM     75  HD  BDP B   5      20.255  18.715  11.8160  0.00  0.00     0.000 HD
BRANCH 69 75
ATOM     75   C  BDP B   5      16.141  22.354  11.0290  0.00  0.00     0.000 C
ATOM     76   O  BDP B   5      15.273  22.937  11.7090  0.00  0.00     0.000 OA
ATOM     77   O  BDP B   5      16.677  22.884  10.0380  0.00  0.00     0.000 OA
ENDBRANCH 69 75
BRANCH 65 78
ATOM     78  O3  NAG B   6      15.729  18.505   9.4270  0.00  0.00     0.000 O
BRANCH 78 81
ATOM     79  C1  NAG B   6      13.117  16.109   8.0950  0.00  0.00     0.000 C
ATOM     80  C2  NAG B   6      14.521  16.659   8.3910  0.00  0.00     0.000 C
ATOM     81  C3  NAG B   6      14.429  17.895   9.2710  0.00  0.00     0.000 C
ATOM     82  C4  NAG B   6      13.442  18.910   8.6850  0.00  0.00     0.000 C
ATOM     83  C5  NAG B   6      12.095  18.233   8.4570  0.00  0.00     0.000 C
ATOM     84  O5  NAG B   6      12.301  17.157   7.5410  0.00  0.00     0.000 O
BRANCH 80 87
ATOM     85   N  NAG B   6      15.269  15.496   8.8600  0.00  0.00     0.000 N
ATOM     87  HD  NAG B   6      15.730  14.783   8.6880  0.00  0.00     0.000 HD
ATOM     87   C  NAG B   6      16.584  15.325   8.6720  0.00  0.00     0.000 C
ATOM     88   C  NAG B   6      17.167  14.081   9.2620  0.00  0.00     0.000 C
ATOM     89   O  NAG B   6      17.283  16.132   8.0710  0.00  0.00     0.000 OA
ENDBRANCH 80 87
ATOM     90   O  NAG B   6      10.012  19.384   8.8870  0.00  0.00     0.000 O
ATOM     92  HD  NAG B   6      10.418  18.619   8.8710  0.00  0.00     0.000 HD
ATOM     92   O  NAG B   6      10.012  19.384   8.8870  0.00  0.00     0.000 O
ATOM     94  HD  NAG B   6      10.418  18.619   8.8710  0.00  0.00     0.000 HD
ENDBRANCH 78 81
ENDBRANCH 65 78
ENDBRANCH 64 68
ENDBRANCH 48 64
ENDBRANCH 47 50
ENDBRANCH 34 47
ENDBRANCH 33 37
ENDBRANCH 17 33
ENDBRANCH 16 19
ENDBRANCH 1 16
TORSDOF 16
ENDMDL
MODEL 9
REMARK VINA RESULT:      -6.3      2.980      3.976
ROOT
ATOM      1  C1  BDP B   1      20.478  13.003  17.0860  0.00  0.00     0.000 C
ATOM      2  C2  BDP B   1      19.603  12.914  15.8480  0.00  0.00     0.000 C
ATOM      3  C3  BDP B   1      20.417  12.930  14.5720  0.00  0.00     0.000 C
ATOM      4  C4  BDP B   1      21.905  12.675  14.7810  0.00  0.00     0.000 C
ATOM      5  C5  BDP B   1      22.490  13.497  15.9250  0.00  0.00     0.000 C
ATOM      6  O5  BDP B   1      21.474  13.980  16.8200  0.00  0.00     0.000 O
ATOM      7   O  BDP B   1      18.809  11.724  15.8980  0.00  0.00     0.000 O
ATOM      9  HD  BDP B   1      18.304  11.165  16.3250  0.00  0.00     0.000 HD
ATOM      9   O  BDP B   1      20.280  14.202  13.9190  0.00  0.00     0.000 O
ATOM     11  HD  BDP B   1      19.775  13.643  14.3460  0.00  0.00     0.000 HD
ATOM     11   O  BDP B   1      22.145  11.281  15.0140  0.00  0.00     0.000 O
ATOM     13  HD  BDP B   1      21.640  10.722  15.4420  0.00  0.00     0.000 HD
ENDROOT
BRANCH 5 13
ATOM     13   C  BDP B   1      23.213  14.647  15.3170  0.00  0.00     0.000 C
ATOM     14   O  BDP B   1      24.425  14.509  15.0520  0.00  0.00     0.000 OA
ATOM     15   O  BDP B   1      22.583  15.698  15.0690  0.00  0.00     0.000 OA
ENDBRANCH 5 13
BRANCH 1 16
ATOM     16  O3  NAG B   2      20.611  12.114  18.1930  0.00  0.00     0.000 O
BRANCH 16 19
ATOM     17  C1  NAG B   2      21.836  10.514  21.2250  0.00  0.00     0.000 C
ATOM     18  C2  NAG B   2      20.681  10.876  20.2900  0.00  0.00     0.000 C
ATOM     19  C3  NAG B   2      21.169  10.976  18.8520  0.00  0.00     0.000 C
ATOM     20  C4  NAG B   2      22.697  11.032  18.7740  0.00  0.00     0.000 C
ATOM     21  C5  NAG B   2      23.381  11.792  19.9190  0.00  0.00     0.000 C
ATOM     22  O5  NAG B   2      22.720  11.636  21.1800  0.00  0.00     0.000 O
ATOM     23   O  NAG B   2      23.198   9.692  18.7140  0.00  0.00     0.000 O
ATOM     25  HD  NAG B   2      22.639   9.382  19.2980  0.00  0.00     0.000 HD
ATOM     25   C  NAG B   2      23.472  13.290  19.5950  0.00  0.00     0.000 C
ATOM     26   O  NAG B   2      24.632  13.593  18.8070  0.00  0.00     0.000 O
ATOM     28  HD  NAG B   2      24.072  13.283  19.3910  0.00  0.00     0.000 HD
BRANCH 18 30
ATOM     28   N  NAG B   2      20.508   9.524  20.8210  0.00  0.00     0.000 N
ATOM     30  HD  NAG B   2      20.910   8.760  20.8870  0.00  0.00     0.000 HD
ATOM     30   C  NAG B   2      19.643   8.618  20.3450  0.00  0.00     0.000 C
ATOM     31   C  NAG B   2      19.645   7.301  21.0690  0.00  0.00     0.000 C
ATOM     32   O  NAG B   2      18.913   8.823  19.4030  0.00  0.00     0.000 OA
ENDBRANCH 18 30
BRANCH 17 33
ATOM     33  O4  BDP B   3      22.459  10.473  22.5270  0.00  0.00     0.000 O
BRANCH 33 37
ATOM     34  C1  BDP B   3      21.062  11.280  26.4820  0.00  0.00     0.000 C
ATOM     35  C2  BDP B   3      21.828  12.391  25.7730  0.00  0.00     0.000 C
ATOM     36  C3  BDP B   3      21.918  12.203  24.2630  0.00  0.00     0.000 C
ATOM     37  C4  BDP B   3      22.307  10.750  23.9500  0.00  0.00     0.000 C
ATOM     38  C5  BDP B   3      21.260   9.841  24.6220  0.00  0.00     0.000 C
ATOM     39  O5  BDP B   3      21.470   9.984  26.0270  0.00  0.00     0.000 O
ATOM     40   O  BDP B   3      21.178  13.613  26.1270  0.00  0.00     0.000 O
ATOM     42  HD  BDP B   3      21.666  13.488  26.8320  0.00  0.00     0.000 HD
ATOM     42   O  BDP B   3      22.897  13.127  23.7920  0.00  0.00     0.000 O
ATOM     44  HD  BDP B   3      23.386  13.002  24.4970  0.00  0.00     0.000 HD
BRANCH 38 44
ATOM     44   C  BDP B   3      21.357   8.397  24.2400  0.00  0.00     0.000 C
ATOM     45   O  BDP B   3      20.303   7.724  24.2250  0.00  0.00     0.000 OA
ATOM     46   O  BDP B   3      22.471   7.907  23.9520  0.00  0.00     0.000 OA
ENDBRANCH 38 44
BRANCH 34 47
ATOM     47  O3  NAG B   4      21.642  10.953  27.7430  0.00  0.00     0.000 O
BRANCH 47 50
ATOM     48  C1  NAG B   4      19.218   9.937  30.4340  0.00  0.00     0.000 C
ATOM     49  C2  NAG B   4      19.874  10.851  29.4140  0.00  0.00     0.000 C
ATOM     50  C3  NAG B   4      20.961  10.083  28.6700  0.00  0.00     0.000 C
ATOM     51  C4  NAG B   4      21.971   9.473  29.6290  0.00  0.00     0.000 C
ATOM     52  C5  NAG B   4      21.247   8.622  30.6730  0.00  0.00     0.000 C
ATOM     53  O5  NAG B   4      20.217   9.385  31.3140  0.00  0.00     0.000 O
ATOM     54   O  NAG B   4      22.898   8.679  28.8850  0.00  0.00     0.000 O
ATOM     56  HD  NAG B   4      23.167   8.837  29.6930  0.00  0.00     0.000 HD
ATOM     56   C  NAG B   4      22.215   8.095  31.7260  0.00  0.00     0.000 C
ATOM     57   O  NAG B   4      22.836   9.205  32.3870  0.00  0.00     0.000 O
ATOM     59  HD  NAG B   4      23.105   9.363  33.1950  0.00  0.00     0.000 HD
BRANCH 49 61
ATOM     59   N  NAG B   4      18.665  11.441  28.8380  0.00  0.00     0.000 N
ATOM     61  HD  NAG B   4      19.238  11.615  29.4640  0.00  0.00     0.000 HD
ATOM     61   O  NAG B   4      19.385  13.582  28.8300  0.00  0.00     0.000 OA
ATOM     62   C  NAG B   4      18.553  12.739  28.5290  0.00  0.00     0.000 C
ATOM     63   C  NAG B   4      17.330  13.116  27.7560  0.00  0.00     0.000 C
ENDBRANCH 49 61
BRANCH 48 64
ATOM     64  O4  BDP B   5      17.908   9.888  30.9910  0.00  0.00     0.000 O
BRANCH 64 68
ATOM     65  C1  BDP B   5      14.274  10.617  32.8970  0.00  0.00     0.000 C
ATOM     66  C2  BDP B   5      14.356  11.037  31.4350  0.00  0.00     0.000 C
ATOM     67  C3  BDP B   5      15.535  10.340  30.7680  0.00  0.00     0.000 C
ATOM     68  C4  BDP B   5      16.821  10.638  31.5310  0.00  0.00     0.000 C
ATOM     69  C5  BDP B   5      16.697  10.314  33.0140  0.00  0.00     0.000 C
ATOM     70  O5  BDP B   5      15.510  10.911  33.5650  0.00  0.00     0.000 O
ATOM     71   O  BDP B   5      13.118  10.733  30.7760  0.00  0.00     0.000 O
ATOM     73  HD  BDP B   5      12.359  10.510  30.4230  0.00  0.00     0.000 HD
ATOM     73   O  BDP B   5      15.678  10.781  29.4120  0.00  0.00     0.000 O
ATOM     75  HD  BDP B   5      14.919  10.558  29.0590  0.00  0.00     0.000 HD
BRANCH 69 75
ATOM     75   C  BDP B   5      17.911  10.860  33.7220  0.00  0.00     0.000 C
ATOM     76   O  BDP B   5      18.210  12.060  33.5600  0.00  0.00     0.000 OA
ATOM     77   O  BDP B   5      18.577  10.101  34.4500  0.00  0.00     0.000 OA
ENDBRANCH 69 75
BRANCH 65 78
ATOM     78  O3  NAG B   6      13.764  11.402  33.9780  0.00  0.00     0.000 O
BRANCH 78 81
ATOM     79  C1  NAG B   6      11.231  10.795  36.7260  0.00  0.00     0.000 C
ATOM     80  C2  NAG B   6      11.750  11.033  35.2990  0.00  0.00     0.000 C
ATOM     81  C3  NAG B   6      13.270  11.028  35.2820  0.00  0.00     0.000 C
ATOM     82  C4  NAG B   6      13.830  11.977  36.3470  0.00  0.00     0.000 C
ATOM     83  C5  NAG B   6      13.243  11.617  37.7060  0.00  0.00     0.000 C
ATOM     84  O5  NAG B   6      11.825  11.758  37.6150  0.00  0.00     0.000 O
BRANCH 80 87
ATOM     85   N  NAG B   6      11.098  10.034  34.4560  0.00  0.00     0.000 N
ATOM     87  HD  NAG B   6      10.396   9.756  34.0330  0.00  0.00     0.000 HD
ATOM     87   C  NAG B   6      10.678  10.267  33.2070  0.00  0.00     0.000 C
ATOM     88   C  NAG B   6      10.066   9.100  32.5000  0.00  0.00     0.000 C
ATOM     89   O  NAG B   6      10.793  11.355  32.6550  0.00  0.00     0.000 OA
ENDBRANCH 80 87
ATOM     90   O  NAG B   6      14.576  11.701  39.7220  0.00  0.00     0.000 O
ATOM     92  HD  NAG B   6      13.914  11.318  39.3160  0.00  0.00     0.000 HD
ATOM     92   O  NAG B   6      14.576  11.701  39.7220  0.00  0.00     0.000 O
ATOM     94  HD  NAG B   6      13.914  11.318  39.3160  0.00  0.00     0.000 HD
ENDBRANCH 78 81
ENDBRANCH 65 78
ENDBRANCH 64 68
ENDBRANCH 48 64
ENDBRANCH 47 50
ENDBRANCH 34 47
ENDBRANCH 33 37
ENDBRANCH 17 33
ENDBRANCH 16 19
ENDBRANCH 1 16
TORSDOF 16
ENDMDL
MODEL 10
REMARK VINA RESULT:      -6.0      7.883     11.407
ROOT
ATOM      1  C1  BDP B   1      12.485  23.237  17.7680  0.00  0.00     0.000 C
ATOM      2  C2  BDP B   1      12.515  24.565  18.5040  0.00  0.00     0.000 C
ATOM      3  C3  BDP B   1      11.180  25.277  18.4480  0.00  0.00     0.000 C
ATOM      4  C4  BDP B   1      10.022  24.393  17.9980  0.00  0.00     0.000 C
ATOM      5  C5  BDP B   1      10.359  23.563  16.7630  0.00  0.00     0.000 C
ATOM      6  O5  BDP B   1      11.777  23.451  16.5550  0.00  0.00     0.000 O
ATOM      7   O  BDP B   1      12.891  24.356  19.8690  0.00  0.00     0.000 O
ATOM      9  HD  BDP B   1      13.391  23.983  20.4710  0.00  0.00     0.000 HD
ATOM      9   O  BDP B   1      11.256  26.390  17.5440  0.00  0.00     0.000 O
ATOM     11  HD  BDP B   1      11.755  26.018  18.1460  0.00  0.00     0.000 HD
ATOM     11   O  BDP B   1       9.610  23.528  19.0630  0.00  0.00     0.000 O
ATOM     13  HD  BDP B   1      10.109  23.155  19.6650  0.00  0.00     0.000 HD
ENDROOT
BRANCH 5 13
ATOM     13   C  BDP B   1       9.733  24.239  15.5930  0.00  0.00     0.000 C
ATOM     14   O  BDP B   1      10.133  25.382  15.2900  0.00  0.00     0.000 OA
ATOM     15   O  BDP B   1       8.853  23.637  14.9420  0.00  0.00     0.000 OA
ENDBRANCH 5 13
BRANCH 1 16
ATOM     16  O3  NAG B   2      12.749  21.914  18.2310  0.00  0.00     0.000 O
BRANCH 16 19
ATOM     17  C1  NAG B   2      12.543  19.155  20.5970  0.00  0.00     0.000 C
ATOM     18  C2  NAG B   2      11.956  20.432  19.9940  0.00  0.00     0.000 C
ATOM     19  C3  NAG B   2      12.366  20.572  18.5360  0.00  0.00     0.000 C
ATOM     20  C4  NAG B   2      13.504  19.615  18.1710  0.00  0.00     0.000 C
ATOM     21  C5  NAG B   2      14.532  19.371  19.2850  0.00  0.00     0.000 C
ATOM     22  O5  NAG B   2      13.958  19.356  20.5970  0.00  0.00     0.000 O
ATOM     23   O  NAG B   2      12.934  18.369  17.7570  0.00  0.00     0.000 O
ATOM     25  HD  NAG B   2      12.320  18.366  18.3680  0.00  0.00     0.000 HD
ATOM     25   C  NAG B   2      15.635  20.438  19.2450  0.00  0.00     0.000 C
ATOM     26   O  NAG B   2      16.674  20.094  18.3180  0.00  0.00     0.000 O
ATOM     28  HD  NAG B   2      16.061  20.090  18.9290  0.00  0.00     0.000 HD
BRANCH 18 30
ATOM     28   N  NAG B   2      10.930  19.403  20.1570  0.00  0.00     0.000 N
ATOM     30  HD  NAG B   2      10.683  18.630  19.8540  0.00  0.00     0.000 HD
ATOM     30   C  NAG B   2       9.641  19.542  19.8150  0.00  0.00     0.000 C
ATOM     31   C  NAG B   2       8.780  18.342  20.0920  0.00  0.00     0.000 C
ATOM     32   O  NAG B   2       9.190  20.546  19.3150  0.00  0.00     0.000 OA
ENDBRANCH 18 30
BRANCH 17 33
ATOM     33  O4  BDP B   3      12.972  18.353  21.7180  0.00  0.00     0.000 O
BRANCH 33 37
ATOM     34  C1  BDP B   3      15.048  17.318  25.3050  0.00  0.00     0.000 C
ATOM     35  C2  BDP B   3      14.350  18.672  25.2700  0.00  0.00     0.000 C
ATOM     36  C3  BDP B   3      13.304  18.791  24.1670  0.00  0.00     0.000 C
ATOM     37  C4  BDP B   3      13.883  18.248  22.8520  0.00  0.00     0.000 C
ATOM     38  C5  BDP B   3      14.337  16.799  23.1150  0.00  0.00     0.000 C
ATOM     39  O5  BDP B   3      15.456  16.900  23.9960  0.00  0.00     0.000 O
ATOM     40   O  BDP B   3      13.789  18.865  26.5700  0.00  0.00     0.000 O
ATOM     42  HD  BDP B   3      14.610  19.097  26.7200  0.00  0.00     0.000 HD
ATOM     42   O  BDP B   3      12.970  20.175  24.0680  0.00  0.00     0.000 O
ATOM     44  HD  BDP B   3      13.790  20.406  24.2180  0.00  0.00     0.000 HD
BRANCH 38 44
ATOM     44   C  BDP B   3      14.726  16.039  21.8860  0.00  0.00     0.000 C
ATOM     45   O  BDP B   3      14.120  14.973  21.6410  0.00  0.00     0.000 OA
ATOM     46   O  BDP B   3      15.634  16.480  21.1480  0.00  0.00     0.000 OA
ENDBRANCH 38 44
BRANCH 34 47
ATOM     47  O3  NAG B   4      16.432  17.439  25.6300  0.00  0.00     0.000 O
BRANCH 47 50
ATOM     48  C1  NAG B   4      17.294  14.189  27.3150  0.00  0.00     0.000 C
ATOM     49  C2  NAG B   4      16.425  15.365  26.9050  0.00  0.00     0.000 C
ATOM     50  C3  NAG B   4      17.217  16.280  25.9780  0.00  0.00     0.000 C
ATOM     51  C4  NAG B   4      18.524  16.725  26.6140  0.00  0.00     0.000 C
ATOM     52  C5  NAG B   4      19.322  15.503  27.0700  0.00  0.00     0.000 C
ATOM     53  O5  NAG B   4      18.517  14.665  27.9090  0.00  0.00     0.000 O
ATOM     54   O  NAG B   4      19.269  17.489  25.6620  0.00  0.00     0.000 O
ATOM     56  HD  NAG B   4      19.577  17.569  26.4680  0.00  0.00     0.000 HD
ATOM     56   C  NAG B   4      20.581  15.914  27.8240  0.00  0.00     0.000 C
ATOM     57   O  NAG B   4      20.206  16.677  28.9790  0.00  0.00     0.000 O
ATOM     59  HD  NAG B   4      20.514  16.757  29.7850  0.00  0.00     0.000 HD
BRANCH 49 61
ATOM     59   N  NAG B   4      15.879  15.509  28.2550  0.00  0.00     0.000 N
ATOM     61  HD  NAG B   4      15.829  15.907  27.4880  0.00  0.00     0.000 HD
ATOM     61   O  NAG B   4      13.765  16.014  27.6410  0.00  0.00     0.000 OA
ATOM     62   C  NAG B   4      14.586  15.747  28.5060  0.00  0.00     0.000 C
ATOM     63   C  NAG B   4      14.177  15.649  29.9410  0.00  0.00     0.000 C
ENDBRANCH 49 61
BRANCH 48 64
ATOM     64  O4  BDP B   5      16.997  12.842  27.6740  0.00  0.00     0.000 O
BRANCH 64 68
ATOM     65  C1  BDP B   5      19.466  10.298  29.8660  0.00  0.00     0.000 C
ATOM     66  C2  BDP B   5      18.847   9.706  28.6080  0.00  0.00     0.000 C
ATOM     67  C3  BDP B   5      18.346  10.827  27.7060  0.00  0.00     0.000 C
ATOM     68  C4  BDP B   5      17.372  11.718  28.4680  0.00  0.00     0.000 C
ATOM     69  C5  BDP B   5      17.960  12.223  29.7790  0.00  0.00     0.000 C
ATOM     70  O5  BDP B   5      18.511  11.133  30.5400  0.00  0.00     0.000 O
ATOM     71   O  BDP B   5      19.812   8.878  27.9390  0.00  0.00     0.000 O
ATOM     73  HD  BDP B   5      20.436   8.408  27.5670  0.00  0.00     0.000 HD
ATOM     73   O  BDP B   5      17.690  10.289  26.5520  0.00  0.00     0.000 O
ATOM     75  HD  BDP B   5      18.315   9.819  26.1790  0.00  0.00     0.000 HD
BRANCH 69 75
ATOM     75   C  BDP B   5      16.859  12.883  30.5700  0.00  0.00     0.000 C
ATOM     76   O  BDP B   5      15.820  12.235  30.8080  0.00  0.00     0.000 OA
ATOM     77   O  BDP B   5      17.019  14.052  30.9660  0.00  0.00     0.000 OA
ENDBRANCH 69 75
BRANCH 65 78
ATOM     78  O3  NAG B   6      19.507   9.690  31.1600  0.00  0.00     0.000 O
BRANCH 78 81
ATOM     79  C1  NAG B   6      22.260   9.425  33.7450  0.00  0.00     0.000 C
ATOM     80  C2  NAG B   6      21.542   9.196  32.4060  0.00  0.00     0.000 C
ATOM     81  C3  NAG B   6      20.263  10.016  32.3460  0.00  0.00     0.000 C
ATOM     82  C4  NAG B   6      19.405   9.779  33.5940  0.00  0.00     0.000 C
ATOM     83  C5  NAG B   6      20.238  10.055  34.8410  0.00  0.00     0.000 C
ATOM     84  O5  NAG B   6      21.348   9.157  34.8260  0.00  0.00     0.000 O
BRANCH 80 87
ATOM     85   N  NAG B   6      22.513   9.486  31.3540  0.00  0.00     0.000 N
ATOM     87  HD  NAG B   6      23.210   9.254  30.8950  0.00  0.00     0.000 HD
ATOM     87   C  NAG B   6      22.622   8.782  30.2210  0.00  0.00     0.000 C
ATOM     88   C  NAG B   6      23.658   9.263  29.2560  0.00  0.00     0.000 C
ATOM     89   O  NAG B   6      21.918   7.812  29.9660  0.00  0.00     0.000 OA
ENDBRANCH 80 87
ATOM     90   O  NAG B   6      19.290  11.149  36.7780  0.00  0.00     0.000 O
ATOM     92  HD  NAG B   6      20.006  11.015  36.3100  0.00  0.00     0.000 HD
ATOM     92   O  NAG B   6      19.290  11.149  36.7780  0.00  0.00     0.000 O
ATOM     94  HD  NAG B   6      20.006  11.015  36.3100  0.00  0.00     0.000 HD
ENDBRANCH 78 81
ENDBRANCH 65 78
ENDBRANCH 64 68
ENDBRANCH 48 64
ENDBRANCH 47 50
ENDBRANCH 34 47
ENDBRANCH 33 37
ENDBRANCH 17 33
ENDBRANCH 16 19
ENDBRANCH 1 16
TORSDOF 16
ENDMDL
MODEL 11
REMARK VINA RESULT:      -6.0      8.823     11.335
ROOT
ATOM      1  C1  BDP B   1      21.376  18.560  14.6490  0.00  0.00     0.000 C
ATOM      2  C2  BDP B   1      20.100  19.112  14.0380  0.00  0.00     0.000 C
ATOM      3  C3  BDP B   1      19.412  18.101  13.1450  0.00  0.00     0.000 C
ATOM      4  C4  BDP B   1      19.919  16.673  13.3180  0.00  0.00     0.000 C
ATOM      5  C5  BDP B   1      21.442  16.585  13.3330  0.00  0.00     0.000 C
ATOM      6  O5  BDP B   1      22.055  17.853  13.6220  0.00  0.00     0.000 O
ATOM      7   O  BDP B   1      19.203  19.526  15.0750  0.00  0.00     0.000 O
ATOM      9  HD  BDP B   1      19.044  19.924  15.8270  0.00  0.00     0.000 HD
ATOM      9   O  BDP B   1      19.590  18.463  11.7670  0.00  0.00     0.000 O
ATOM     11  HD  BDP B   1      19.431  18.862  12.5190  0.00  0.00     0.000 HD
ATOM     11   O  BDP B   1      19.389  16.097  14.5180  0.00  0.00     0.000 O
ATOM     13  HD  BDP B   1      19.230  16.495  15.2700  0.00  0.00     0.000 HD
ENDROOT
BRANCH 5 13
ATOM     13   C  BDP B   1      21.869  16.116  11.9860  0.00  0.00     0.000 C
ATOM     14   O  BDP B   1      20.988  15.739  11.1860  0.00  0.00     0.000 OA
ATOM     15   O  BDP B   1      23.083  16.140  11.6910  0.00  0.00     0.000 OA
ENDBRANCH 5 13
BRANCH 1 16
ATOM     16  O3  NAG B   2      21.756  18.401  16.0140  0.00  0.00     0.000 O
BRANCH 16 19
ATOM     17  C1  NAG B   2      19.707  17.640  18.9250  0.00  0.00     0.000 C
ATOM     18  C2  NAG B   2      20.219  17.274  17.5320  0.00  0.00     0.000 C
ATOM     19  C3  NAG B   2      21.620  17.826  17.3150  0.00  0.00     0.000 C
ATOM     20  C4  NAG B   2      21.993  18.863  18.3790  0.00  0.00     0.000 C
ATOM     21  C5  NAG B   2      20.835  19.750  18.8580  0.00  0.00     0.000 C
ATOM     22  O5  NAG B   2      19.579  19.063  18.9160  0.00  0.00     0.000 O
ATOM     23   O  NAG B   2      22.575  18.181  19.4940  0.00  0.00     0.000 O
ATOM     25  HD  NAG B   2      22.016  17.520  19.4710  0.00  0.00     0.000 HD
ATOM     25   C  NAG B   2      20.681  20.977  17.9490  0.00  0.00     0.000 C
ATOM     26   O  NAG B   2      21.556  22.043  18.3430  0.00  0.00     0.000 O
ATOM     28  HD  NAG B   2      20.997  21.382  18.3200  0.00  0.00     0.000 HD
BRANCH 18 30
ATOM     28   N  NAG B   2      21.087  16.114  17.7320  0.00  0.00     0.000 N
ATOM     30  HD  NAG B   2      21.594  15.559  17.3030  0.00  0.00     0.000 HD
ATOM     30   C  NAG B   2      20.665  14.891  18.0840  0.00  0.00     0.000 C
ATOM     31   C  NAG B   2      21.753  13.867  18.2380  0.00  0.00     0.000 C
ATOM     32   O  NAG B   2      19.502  14.614  18.2620  0.00  0.00     0.000 OA
ENDBRANCH 18 30
BRANCH 17 33
ATOM     33  O4  BDP B   3      18.644  17.864  19.8770  0.00  0.00     0.000 O
BRANCH 33 37
ATOM     34  C1  BDP B   3      14.493  18.377  20.7400  0.00  0.00     0.000 C
ATOM     35  C2  BDP B   3      14.922  18.502  19.2830  0.00  0.00     0.000 C
ATOM     36  C3  BDP B   3      16.294  17.902  18.9970  0.00  0.00     0.000 C
ATOM     37  C4  BDP B   3      17.286  18.354  20.0800  0.00  0.00     0.000 C
ATOM     38  C5  BDP B   3      16.701  17.931  21.4410  0.00  0.00     0.000 C
ATOM     39  O5  BDP B   3      15.547  18.749  21.6360  0.00  0.00     0.000 O
ATOM     40   O  BDP B   3      13.891  17.887  18.5080  0.00  0.00     0.000 O
ATOM     42  HD  BDP B   3      13.534  18.663  18.6520  0.00  0.00     0.000 HD
ATOM     42   O  BDP B   3      16.679  18.358  17.7020  0.00  0.00     0.000 O
ATOM     44  HD  BDP B   3      16.323  19.134  17.8450  0.00  0.00     0.000 HD
BRANCH 38 44
ATOM     44   C  BDP B   3      17.639  18.096  22.5960  0.00  0.00     0.000 C
ATOM     45   O  BDP B   3      18.078  19.243  22.8340  0.00  0.00     0.000 OA
ATOM     46   O  BDP B   3      17.956  17.100  23.2820  0.00  0.00     0.000 OA
ENDBRANCH 38 44
BRANCH 34 47
ATOM     47  O3  NAG B   4      13.786  19.532  21.1890  0.00  0.00     0.000 O
BRANCH 47 50
ATOM     48  C1  NAG B   4      10.979  18.818  23.5900  0.00  0.00     0.000 C
ATOM     49  C2  NAG B   4      11.755  18.756  22.2850  0.00  0.00     0.000 C
ATOM     50  C3  NAG B   4      13.065  19.521  22.4380  0.00  0.00     0.000 C
ATOM     51  C4  NAG B   4      12.827  20.950  22.8990  0.00  0.00     0.000 C
ATOM     52  C5  NAG B   4      11.984  20.951  24.1750  0.00  0.00     0.000 C
ATOM     53  O5  NAG B   4      10.784  20.191  23.9810  0.00  0.00     0.000 O
ATOM     54   O  NAG B   4      14.089  21.582  23.1290  0.00  0.00     0.000 O
ATOM     56  HD  NAG B   4      13.434  22.147  23.0980  0.00  0.00     0.000 HD
ATOM     56   C  NAG B   4      11.620  22.370  24.5970  0.00  0.00     0.000 C
ATOM     57   O  NAG B   4      10.868  22.992  23.5460  0.00  0.00     0.000 O
ATOM     59  HD  NAG B   4      10.213  23.558  23.5160  0.00  0.00     0.000 HD
BRANCH 49 61
ATOM     59   N  NAG B   4      10.542  18.954  21.4900  0.00  0.00     0.000 N
ATOM     61  HD  NAG B   4      11.396  18.877  21.3660  0.00  0.00     0.000 HD
ATOM     61   O  NAG B   4      11.080  17.537  19.8160  0.00  0.00     0.000 OA
ATOM     62   C  NAG B   4      10.278  18.276  20.3670  0.00  0.00     0.000 C
ATOM     63   C  NAG B   4       8.901  18.457  19.8110  0.00  0.00     0.000 C
ENDBRANCH 49 61
BRANCH 48 64
ATOM     64  O4  BDP B   5      10.049  17.933  24.2070  0.00  0.00     0.000 O
BRANCH 64 68
ATOM     65  C1  BDP B   5       7.090  16.100  26.4990  0.00  0.00     0.000 C
ATOM     66  C2  BDP B   5       6.615  16.801  25.2330  0.00  0.00     0.000 C
ATOM     67  C3  BDP B   5       7.798  17.036  24.3030  0.00  0.00     0.000 C
ATOM     68  C4  BDP B   5       8.887  17.819  25.0270  0.00  0.00     0.000 C
ATOM     69  C5  BDP B   5       9.284  17.168  26.3450  0.00  0.00     0.000 C
ATOM     70  O5  BDP B   5       8.118  16.874  27.1360  0.00  0.00     0.000 O
ATOM     71   O  BDP B   5       5.592  16.015  24.6020  0.00  0.00     0.000 O
ATOM     73  HD  BDP B   5       4.995  15.494  24.2530  0.00  0.00     0.000 HD
ATOM     73   O  BDP B   5       7.386  17.763  23.1400  0.00  0.00     0.000 O
ATOM     75  HD  BDP B   5       6.789  17.242  22.7910  0.00  0.00     0.000 HD
BRANCH 69 75
ATOM     75   C  BDP B   5      10.174  18.124  27.0970  0.00  0.00     0.000 C
ATOM     76   O  BDP B   5      11.394  17.875  27.1730  0.00  0.00     0.000 OA
ATOM     77   O  BDP B   5       9.668  19.136  27.6170  0.00  0.00     0.000 OA
ENDBRANCH 69 75
BRANCH 65 78
ATOM     78  O3  NAG B   6       6.511  16.216  27.8020  0.00  0.00     0.000 O
BRANCH 78 81
ATOM     79  C1  NAG B   6       6.472  13.931  30.8200  0.00  0.00     0.000 C
ATOM     80  C2  NAG B   6       6.156  14.404  29.3920  0.00  0.00     0.000 C
ATOM     81  C3  NAG B   6       6.919  15.682  29.0800  0.00  0.00     0.000 C
ATOM     82  C4  NAG B   6       6.701  16.729  30.1780  0.00  0.00     0.000 C
ATOM     83  C5  NAG B   6       7.065  16.128  31.5310  0.00  0.00     0.000 C
ATOM     84  O5  NAG B   6       6.214  15.001  31.7460  0.00  0.00     0.000 O
BRANCH 80 87
ATOM     85   N  NAG B   6       6.513  13.385  28.4100  0.00  0.00     0.000 N
ATOM     87  HD  NAG B   6       6.394  12.595  28.0740  0.00  0.00     0.000 HD
ATOM     87   C  NAG B   6       5.693  12.958  27.4410  0.00  0.00     0.000 C
ATOM     88   C  NAG B   6       6.262  11.932  26.5150  0.00  0.00     0.000 C
ATOM     89   O  NAG B   6       4.552  13.381  27.2980  0.00  0.00     0.000 OA
ENDBRANCH 80 87
ATOM     90   O  NAG B   6       8.201  17.425  33.2260  0.00  0.00     0.000 O
ATOM     92  HD  NAG B   6       8.076  16.636  32.8910  0.00  0.00     0.000 HD
ATOM     92   O  NAG B   6       8.201  17.425  33.2260  0.00  0.00     0.000 O
ATOM     94  HD  NAG B   6       8.076  16.636  32.8910  0.00  0.00     0.000 HD
ENDBRANCH 78 81
ENDBRANCH 65 78
ENDBRANCH 64 68
ENDBRANCH 48 64
ENDBRANCH 47 50
ENDBRANCH 34 47
ENDBRANCH 33 37
ENDBRANCH 17 33
ENDBRANCH 16 19
ENDBRANCH 1 16
TORSDOF 16
ENDMDL
MODEL 12
REMARK VINA RESULT:      -5.4     17.223     25.977
ROOT
ATOM      1  C1  BDP B   1      17.357   2.599  43.8120  0.00  0.00     0.000 C
ATOM      2  C2  BDP B   1      16.816   1.498  42.9170  0.00  0.00     0.000 C
ATOM      3  C3  BDP B   1      17.899   0.873  42.0640  0.00  0.00     0.000 C
ATOM      4  C4  BDP B   1      19.316   1.208  42.5160  0.00  0.00     0.000 C
ATOM      5  C5  BDP B   1      19.507   2.692  42.8100  0.00  0.00     0.000 C
ATOM      6  O5  BDP B   1      18.256   3.367  43.0260  0.00  0.00     0.000 O
ATOM      7   O  BDP B   1      16.189   0.487  43.7140  0.00  0.00     0.000 O
ATOM      9  HD  BDP B   1      15.671   0.246  44.3660  0.00  0.00     0.000 HD
ATOM      9   O  BDP B   1      17.761   1.308  40.7020  0.00  0.00     0.000 O
ATOM     11  HD  BDP B   1      17.244   1.066  41.3530  0.00  0.00     0.000 HD
ATOM     11   O  BDP B   1      19.667   0.437  43.6710  0.00  0.00     0.000 O
ATOM     13  HD  BDP B   1      19.150   0.195  44.3230  0.00  0.00     0.000 HD
ENDROOT
BRANCH 5 13
ATOM     13   C  BDP B   1      20.202   3.288  41.6360  0.00  0.00     0.000 C
ATOM     14   O  BDP B   1      19.505   3.717  40.6930  0.00  0.00     0.000 OA
ATOM     15   O  BDP B   1      21.450   3.364  41.6420  0.00  0.00     0.000 OA
ENDBRANCH 5 13
BRANCH 1 16
ATOM     16  O3  NAG B   2      17.335   2.735  45.2320  0.00  0.00     0.000 O
BRANCH 16 19
ATOM     17  C1  NAG B   2      14.299   3.222  47.1800  0.00  0.00     0.000 C
ATOM     18  C2  NAG B   2      15.232   2.308  46.3850  0.00  0.00     0.000 C
ATOM     19  C3  NAG B   2      16.672   2.787  46.4960  0.00  0.00     0.000 C
ATOM     20  C4  NAG B   2      16.756   4.206  47.0640  0.00  0.00     0.000 C
ATOM     21  C5  NAG B   2      15.617   5.146  46.6430  0.00  0.00     0.000 C
ATOM     22  O5  NAG B   2      14.353   4.485  46.5140  0.00  0.00     0.000 O
ATOM     23   O  NAG B   2      16.811   4.121  48.4920  0.00  0.00     0.000 O
ATOM     25  HD  NAG B   2      16.223   3.487  48.5470  0.00  0.00     0.000 HD
ATOM     25   C  NAG B   2      15.949   5.834  45.3120  0.00  0.00     0.000 C
ATOM     26   O  NAG B   2      16.743   7.013  45.5070  0.00  0.00     0.000 O
ATOM     28  HD  NAG B   2      16.155   6.379  45.5620  0.00  0.00     0.000 HD
BRANCH 18 30
ATOM     28   N  NAG B   2      15.701   1.580  47.5630  0.00  0.00     0.000 N
ATOM     30  HD  NAG B   2      16.365   1.108  47.8540  0.00  0.00     0.000 HD
ATOM     30   C  NAG B   2      15.162   0.444  48.0280  0.00  0.00     0.000 C
ATOM     31   C  NAG B   2      15.817  -0.107  49.2630  0.00  0.00     0.000 C
ATOM     32   O  NAG B   2      14.225  -0.112  47.5040  0.00  0.00     0.000 OA
ENDBRANCH 18 30
BRANCH 17 33
ATOM     33  O4  BDP B   3      12.999   3.782  47.4670  0.00  0.00     0.000 O
BRANCH 33 37
ATOM     34  C1  BDP B   3       9.986   4.282  50.4530  0.00  0.00     0.000 C
ATOM     35  C2  BDP B   3      10.738   2.956  50.4360  0.00  0.00     0.000 C
ATOM     36  C3  BDP B   3      12.046   3.005  49.6540  0.00  0.00     0.000 C
ATOM     37  C4  BDP B   3      11.813   3.716  48.3120  0.00  0.00     0.000 C
ATOM     38  C5  BDP B   3      11.231   5.108  48.6270  0.00  0.00     0.000 C
ATOM     39  O5  BDP B   3       9.924   4.870  49.1490  0.00  0.00     0.000 O
ATOM     40   O  BDP B   3      10.939   2.593  51.8040  0.00  0.00     0.000 O
ATOM     42  HD  BDP B   3      10.121   2.331  51.6930  0.00  0.00     0.000 HD
ATOM     42   O  BDP B   3      12.466   1.654  49.4730  0.00  0.00     0.000 O
ATOM     44  HD  BDP B   3      11.648   1.392  49.3620  0.00  0.00     0.000 HD
BRANCH 38 44
ATOM     44   C  BDP B   3      11.147   6.024  47.4460  0.00  0.00     0.000 C
ATOM     45   O  BDP B   3      10.133   5.948  46.7180  0.00  0.00     0.000 OA
ATOM     46   O  BDP B   3      12.077   6.829  47.2210  0.00  0.00     0.000 OA
ENDBRANCH 38 44
BRANCH 34 47
ATOM     47  O3  NAG B   4       8.575   4.096  50.3710  0.00  0.00     0.000 O
BRANCH 47 50
ATOM     48  C1  NAG B   4       6.326   4.924  53.2700  0.00  0.00     0.000 C
ATOM     49  C2  NAG B   4       7.328   4.118  52.4620  0.00  0.00     0.000 C
ATOM     50  C3  NAG B   4       7.675   4.875  51.1850  0.00  0.00     0.000 C
ATOM     51  C4  NAG B   4       6.430   5.217  50.3810  0.00  0.00     0.000 C
ATOM     52  C5  NAG B   4       5.431   5.964  51.2650  0.00  0.00     0.000 C
ATOM     53  O5  NAG B   4       5.170   5.221  52.4620  0.00  0.00     0.000 O
ATOM     54   O  NAG B   4       6.807   6.017  49.2570  0.00  0.00     0.000 O
ATOM     56  HD  NAG B   4       6.001   5.706  49.1910  0.00  0.00     0.000 HD
ATOM     56   C  NAG B   4       4.119   6.213  50.5290  0.00  0.00     0.000 C
ATOM     57   O  NAG B   4       3.549   4.954  50.1500  0.00  0.00     0.000 O
ATOM     59  HD  NAG B   4       2.743   4.643  50.0840  0.00  0.00     0.000 HD
BRANCH 49 61
ATOM     59   N  NAG B   4       6.640   2.888  52.8550  0.00  0.00     0.000 N
ATOM     61  HD  NAG B   4       7.278   3.134  52.3230  0.00  0.00     0.000 HD
ATOM     61   O  NAG B   4       8.477   1.580  52.9870  0.00  0.00     0.000 OA
ATOM     62   C  NAG B   4       7.278   1.750  53.1540  0.00  0.00     0.000 C
ATOM     63   C  NAG B   4       6.429   0.666  53.7400  0.00  0.00     0.000 C
ENDBRANCH 49 61
BRANCH 48 64
ATOM     64  O4  BDP B   5       6.060   5.022  54.6660  0.00  0.00     0.000 O
BRANCH 64 68
ATOM     65  C1  BDP B   5       4.267   3.726  58.1980  0.00  0.00     0.000 C
ATOM     66  C2  BDP B   5       3.529   3.384  56.9110  0.00  0.00     0.000 C
ATOM     67  C3  BDP B   5       4.475   3.522  55.7260  0.00  0.00     0.000 C
ATOM     68  C4  BDP B   5       5.077   4.923  55.6950  0.00  0.00     0.000 C
ATOM     69  C5  BDP B   5       5.723   5.300  57.0220  0.00  0.00     0.000 C
ATOM     70  O5  BDP B   5       4.820   5.049  58.1130  0.00  0.00     0.000 O
ATOM     71   O  BDP B   5       2.986   2.058  57.0050  0.00  0.00     0.000 O
ATOM     73  HD  BDP B   5       2.698   1.248  57.1060  0.00  0.00     0.000 HD
ATOM     73   O  BDP B   5       3.780   3.280  54.4970  0.00  0.00     0.000 O
ATOM     75  HD  BDP B   5       3.492   2.469  54.5980  0.00  0.00     0.000 HD
BRANCH 69 75
ATOM     75   C  BDP B   5       6.069   6.767  56.9810  0.00  0.00     0.000 C
ATOM     76   O  BDP B   5       7.206   7.125  57.3470  0.00  0.00     0.000 OA
ATOM     77   O  BDP B   5       5.213   7.577  56.5800  0.00  0.00     0.000 OA
ENDBRANCH 69 75
BRANCH 65 78
ATOM     78  O3  NAG B   6       3.694   4.287  59.3830  0.00  0.00     0.000 O
BRANCH 78 81
ATOM     79  C1  NAG B   6       3.069   3.195  62.9530  0.00  0.00     0.000 C
ATOM     80  C2  NAG B   6       2.842   3.290  61.4360  0.00  0.00     0.000 C
ATOM     81  C3  NAG B   6       3.976   4.062  60.7810  0.00  0.00     0.000 C
ATOM     82  C4  NAG B   6       4.206   5.400  61.4910  0.00  0.00     0.000 C
ATOM     83  C5  NAG B   6       4.429   5.153  62.9780  0.00  0.00     0.000 C
ATOM     84  O5  NAG B   6       3.258   4.516  63.4910  0.00  0.00     0.000 O
BRANCH 80 87
ATOM     85   N  NAG B   6       2.633   1.918  60.9800  0.00  0.00     0.000 N
ATOM     87  HD  NAG B   6       2.117   1.228  60.8960  0.00  0.00     0.000 HD
ATOM     87   C  NAG B   6       1.781   1.574  60.0070  0.00  0.00     0.000 C
ATOM     88   C  NAG B   6       1.740   0.119  59.6650  0.00  0.00     0.000 C
ATOM     89   O  NAG B   6       1.082   2.386  59.4120  0.00  0.00     0.000 OA
ENDBRANCH 80 87
ATOM     90   O  NAG B   6       6.051   6.425  64.2420  0.00  0.00     0.000 O
ATOM     92  HD  NAG B   6       5.641   5.667  64.1610  0.00  0.00     0.000 HD
ATOM     92   O  NAG B   6       6.051   6.425  64.2420  0.00  0.00     0.000 O
ATOM     94  HD  NAG B   6       5.641   5.667  64.1610  0.00  0.00     0.000 HD
ENDBRANCH 78 81
ENDBRANCH 65 78
ENDBRANCH 64 68
ENDBRANCH 48 64
ENDBRANCH 47 50
ENDBRANCH 34 47
ENDBRANCH 33 37
ENDBRANCH 17 33
ENDBRANCH 16 19
ENDBRANCH 1 16
TORSDOF 16
ENDMDL
MODEL 13
REMARK VINA RESULT:      -5.4      7.971     11.318
ROOT
ATOM      1  C1  BDP B   1      10.465  21.475  17.1650  0.00  0.00     0.000 C
ATOM      2  C2  BDP B   1      10.427  22.622  16.1700  0.00  0.00     0.000 C
ATOM      3  C3  BDP B   1       9.377  23.652  16.5280  0.00  0.00     0.000 C
ATOM      4  C4  BDP B   1       8.841  23.525  17.9500  0.00  0.00     0.000 C
ATOM      5  C5  BDP B   1       8.483  22.089  18.3200  0.00  0.00     0.000 C
ATOM      6  O5  BDP B   1       9.118  21.132  17.4540  0.00  0.00     0.000 O
ATOM      7   O  BDP B   1      11.712  23.249  16.1010  0.00  0.00     0.000 O
ATOM      9  HD  BDP B   1      12.576  23.208  16.0580  0.00  0.00     0.000 HD
ATOM      9   O  BDP B   1       8.261  23.546  15.6300  0.00  0.00     0.000 O
ATOM     11  HD  BDP B   1       9.125  23.505  15.5870  0.00  0.00     0.000 HD
ATOM     11   O  BDP B   1       9.790  24.045  18.8900  0.00  0.00     0.000 O
ATOM     13  HD  BDP B   1      10.654  24.003  18.8460  0.00  0.00     0.000 HD
ENDROOT
BRANCH 5 13
ATOM     13   C  BDP B   1       7.004  21.961  18.2110  0.00  0.00     0.000 C
ATOM     14   O  BDP B   1       6.341  21.866  19.2640  0.00  0.00     0.000 OA
ATOM     15   O  BDP B   1       6.474  21.980  17.0790  0.00  0.00     0.000 OA
ENDBRANCH 5 13
BRANCH 1 16
ATOM     16  O3  NAG B   2      11.528  20.994  17.9850  0.00  0.00     0.000 O
BRANCH 16 19
ATOM     17  C1  NAG B   2      14.065  19.867  20.3410  0.00  0.00     0.000 C
ATOM     18  C2  NAG B   2      12.596  20.078  19.9750  0.00  0.00     0.000 C
ATOM     19  C3  NAG B   2      12.398  19.970  18.4700  0.00  0.00     0.000 C
ATOM     20  C4  NAG B   2      13.731  20.025  17.7180  0.00  0.00     0.000 C
ATOM     21  C5  NAG B   2      14.789  20.951  18.3340  0.00  0.00     0.000 C
ATOM     22  O5  NAG B   2      14.758  20.977  19.7660  0.00  0.00     0.000 O
ATOM     23   O  NAG B   2      14.250  18.695  17.6150  0.00  0.00     0.000 O
ATOM     25  HD  NAG B   2      14.026  18.470  18.4200  0.00  0.00     0.000 HD
ATOM     25   C  NAG B   2      14.622  22.385  17.8140  0.00  0.00     0.000 C
ATOM     26   O  NAG B   2      15.296  22.579  16.5620  0.00  0.00     0.000 O
ATOM     28  HD  NAG B   2      15.072  22.353  17.3680  0.00  0.00     0.000 HD
BRANCH 18 30
ATOM     28   N  NAG B   2      12.755  18.833  20.7240  0.00  0.00     0.000 N
ATOM     30  HD  NAG B   2      13.212  18.097  20.7370  0.00  0.00     0.000 HD
ATOM     30   C  NAG B   2      11.851  17.845  20.7730  0.00  0.00     0.000 C
ATOM     31   C  NAG B   2      12.244  16.669  21.6220  0.00  0.00     0.000 C
ATOM     32   O  NAG B   2      10.797  17.876  20.1800  0.00  0.00     0.000 OA
ENDBRANCH 18 30
BRANCH 17 33
ATOM     33  O4  BDP B   3      15.195  20.022  21.2260  0.00  0.00     0.000 O
BRANCH 33 37
ATOM     34  C1  BDP B   3      16.303  18.126  24.8890  0.00  0.00     0.000 C
ATOM     35  C2  BDP B   3      15.938  19.604  24.9530  0.00  0.00     0.000 C
ATOM     36  C3  BDP B   3      15.163  20.095  23.7340  0.00  0.00     0.000 C
ATOM     37  C4  BDP B   3      15.838  19.576  22.4560  0.00  0.00     0.000 C
ATOM     38  C5  BDP B   3      15.907  18.040  22.5650  0.00  0.00     0.000 C
ATOM     39  O5  BDP B   3      16.840  17.769  23.6100  0.00  0.00     0.000 O
ATOM     40   O  BDP B   3      15.206  19.783  26.1670  0.00  0.00     0.000 O
ATOM     42  HD  BDP B   3      16.016  19.791  26.4720  0.00  0.00     0.000 HD
ATOM     42   O  BDP B   3      15.164  21.520  23.7950  0.00  0.00     0.000 O
ATOM     44  HD  BDP B   3      15.975  21.528  24.1000  0.00  0.00     0.000 HD
BRANCH 38 44
ATOM     44   C  BDP B   3      16.337  17.349  21.3090  0.00  0.00     0.000 C
ATOM     45   O  BDP B   3      15.636  16.400  20.8940  0.00  0.00     0.000 OA
ATOM     46   O  BDP B   3      17.370  17.730  20.7160  0.00  0.00     0.000 OA
ENDBRANCH 38 44
BRANCH 34 47
ATOM     47  O3  NAG B   4      17.597  17.872  25.4350  0.00  0.00     0.000 O
BRANCH 47 50
ATOM     48  C1  NAG B   4      17.852  14.611  27.2920  0.00  0.00     0.000 C
ATOM     49  C2  NAG B   4      17.329  16.000  26.9680  0.00  0.00     0.000 C
ATOM     50  C3  NAG B   4      18.030  16.527  25.7220  0.00  0.00     0.000 C
ATOM     51  C4  NAG B   4      19.543  16.504  25.8780  0.00  0.00     0.000 C
ATOM     52  C5  NAG B   4      20.002  15.100  26.2720  0.00  0.00     0.000 C
ATOM     53  O5  NAG B   4      19.286  14.645  27.4280  0.00  0.00     0.000 O
ATOM     54   O  NAG B   4      20.145  16.904  24.6450  0.00  0.00     0.000 O
ATOM     56  HD  NAG B   4      20.705  16.906  25.3050  0.00  0.00     0.000 HD
ATOM     56   C  NAG B   4      21.499  15.067  26.5600  0.00  0.00     0.000 C
ATOM     57   O  NAG B   4      21.787  15.967  27.6390  0.00  0.00     0.000 O
ATOM     59  HD  NAG B   4      22.347  15.969  28.2990  0.00  0.00     0.000 HD
BRANCH 49 61
ATOM     59   N  NAG B   4      16.011  15.593  27.4580  0.00  0.00     0.000 N
ATOM     61  HD  NAG B   4      16.685  16.069  27.7230  0.00  0.00     0.000 HD
ATOM     61   O  NAG B   4      15.414  17.592  28.3240  0.00  0.00     0.000 OA
ATOM     62   C  NAG B   4      15.142  16.438  28.0250  0.00  0.00     0.000 C
ATOM     63   C  NAG B   4      13.771  15.891  28.2650  0.00  0.00     0.000 C
ENDBRANCH 49 61
BRANCH 48 64
ATOM     64  O4  BDP B   5      17.267  13.479  27.9290  0.00  0.00     0.000 O
BRANCH 64 68
ATOM     65  C1  BDP B   5      19.161  11.069  30.7530  0.00  0.00     0.000 C
ATOM     66  C2  BDP B   5      18.530  10.343  29.5720  0.00  0.00     0.000 C
ATOM     67  C3  BDP B   5      18.270  11.331  28.4420  0.00  0.00     0.000 C
ATOM     68  C4  BDP B   5      17.408  12.485  28.9430  0.00  0.00     0.000 C
ATOM     69  C5  BDP B   5      17.992  13.140  30.1880  0.00  0.00     0.000 C
ATOM     70  O5  BDP B   5      18.315  12.148  31.1780  0.00  0.00     0.000 O
ATOM     71   O  BDP B   5      19.387   9.270  29.1520  0.00  0.00     0.000 O
ATOM     73  HD  BDP B   5      19.949   8.651  28.9270  0.00  0.00     0.000 HD
ATOM     73   O  BDP B   5      17.605  10.684  27.3510  0.00  0.00     0.000 O
ATOM     75  HD  BDP B   5      18.167  10.065  27.1260  0.00  0.00     0.000 HD
BRANCH 69 75
ATOM     75   C  BDP B   5      16.967  14.094  30.7460  0.00  0.00     0.000 C
ATOM     76   O  BDP B   5      17.292  15.285  30.9280  0.00  0.00     0.000 OA
ATOM     77   O  BDP B   5      15.826  13.669  31.0060  0.00  0.00     0.000 OA
ENDBRANCH 69 75
BRANCH 65 78
ATOM     78  O3  NAG B   6      19.027  10.720  32.1330  0.00  0.00     0.000 O
BRANCH 78 81
ATOM     79  C1  NAG B   6      21.297   9.926  35.0570  0.00  0.00     0.000 C
ATOM     80  C2  NAG B   6      20.522   9.681  33.7530  0.00  0.00     0.000 C
ATOM     81  C3  NAG B   6      19.881  10.972  33.2700  0.00  0.00     0.000 C
ATOM     82  C4  NAG B   6      19.075  11.634  34.3930  0.00  0.00     0.000 C
ATOM     83  C5  NAG B   6      19.969  11.827  35.6130  0.00  0.00     0.000 C
ATOM     84  O5  NAG B   6      20.424  10.537  36.0240  0.00  0.00     0.000 O
BRANCH 80 87
ATOM     85   N  NAG B   6      21.392   9.180  32.6920  0.00  0.00     0.000 N
ATOM     87  HD  NAG B   6      21.919   8.565  32.3850  0.00  0.00     0.000 HD
ATOM     87   C  NAG B   6      21.133   8.085  31.9670  0.00  0.00     0.000 C
ATOM     88   C  NAG B   6      22.134   7.760  30.9040  0.00  0.00     0.000 C
ATOM     89   O  NAG B   6      20.139   7.389  32.1370  0.00  0.00     0.000 OA
ENDBRANCH 80 87
ATOM     90   O  NAG B   6      19.825  13.812  36.9860  0.00  0.00     0.000 O
ATOM     92  HD  NAG B   6      20.340  13.184  36.6870  0.00  0.00     0.000 HD
ATOM     92   O  NAG B   6      19.825  13.812  36.9860  0.00  0.00     0.000 O
ATOM     94  HD  NAG B   6      20.340  13.184  36.6870  0.00  0.00     0.000 HD
ENDBRANCH 78 81
ENDBRANCH 65 78
ENDBRANCH 64 68
ENDBRANCH 48 64
ENDBRANCH 47 50
ENDBRANCH 34 47
ENDBRANCH 33 37
ENDBRANCH 17 33
ENDBRANCH 16 19
ENDBRANCH 1 16
TORSDOF 16
ENDMDL
MODEL 14
REMARK VINA RESULT:      -5.3     12.344     16.576
ROOT
ATOM      1  C1  BDP B   1      13.474  27.384  12.5740  0.00  0.00     0.000 C
ATOM      2  C2  BDP B   1      12.379  27.410  11.5230  0.00  0.00     0.000 C
ATOM      3  C3  BDP B   1      12.134  26.042  10.9210  0.00  0.00     0.000 C
ATOM      4  C4  BDP B   1      12.751  24.895  11.7140  0.00  0.00     0.000 C
ATOM      5  C5  BDP B   1      14.196  25.168  12.1180  0.00  0.00     0.000 C
ATOM      6  O5  BDP B   1      14.519  26.568  12.0650  0.00  0.00     0.000 O
ATOM      7   O  BDP B   1      11.165  27.908  12.0960  0.00  0.00     0.000 O
ATOM      9  HD  BDP B   1      10.736  28.472  12.5920  0.00  0.00     0.000 HD
ATOM      9   O  BDP B   1      12.668  25.990   9.5890  0.00  0.00     0.000 O
ATOM     11  HD  BDP B   1      12.238  26.554  10.0860  0.00  0.00     0.000 HD
ATOM     11   O  BDP B   1      11.967  24.615  12.8800  0.00  0.00     0.000 O
ATOM     13  HD  BDP B   1      11.537  25.179  13.3760  0.00  0.00     0.000 HD
ENDROOT
BRANCH 5 13
ATOM     13   C  BDP B   1      15.068  24.416  11.1750  0.00  0.00     0.000 C
ATOM     14   O  BDP B   1      14.992  24.687   9.9590  0.00  0.00     0.000 OA
ATOM     15   O  BDP B   1      15.860  23.562  11.6280  0.00  0.00     0.000 OA
ENDBRANCH 5 13
BRANCH 1 16
ATOM     16  O3  NAG B   2      13.444  27.748  13.9530  0.00  0.00     0.000 O
BRANCH 16 19
ATOM     17  C1  NAG B   2      13.505  25.520  16.8320  0.00  0.00     0.000 C
ATOM     18  C2  NAG B   2      14.176  26.090  15.5810  0.00  0.00     0.000 C
ATOM     19  C3  NAG B   2      13.721  27.521  15.3360  0.00  0.00     0.000 C
ATOM     20  C4  NAG B   2      12.490  27.877  16.1740  0.00  0.00     0.000 C
ATOM     21  C5  NAG B   2      11.490  26.731  16.3830  0.00  0.00     0.000 C
ATOM     22  O5  NAG B   2      12.114  25.448  16.5110  0.00  0.00     0.000 O
ATOM     23   O  NAG B   2      12.932  28.373  17.4420  0.00  0.00     0.000 O
ATOM     25  HD  NAG B   2      13.567  27.790  17.5280  0.00  0.00     0.000 HD
ATOM     25   C  NAG B   2      10.484  26.674  15.2260  0.00  0.00     0.000 C
ATOM     26   O  NAG B   2       9.382  27.568  15.4350  0.00  0.00     0.000 O
ATOM     28  HD  NAG B   2      10.017  26.985  15.5200  0.00  0.00     0.000 HD
BRANCH 18 30
ATOM     28   N  NAG B   2      15.224  25.769  16.5490  0.00  0.00     0.000 N
ATOM     30  HD  NAG B   2      15.402  25.793  17.3960  0.00  0.00     0.000 HD
ATOM     30   C  NAG B   2      16.395  26.412  16.6550  0.00  0.00     0.000 C
ATOM     31   C  NAG B   2      17.311  25.886  17.7230  0.00  0.00     0.000 C
ATOM     32   O  NAG B   2      16.705  27.350  15.9580  0.00  0.00     0.000 OA
ENDBRANCH 18 30
BRANCH 17 33
ATOM     33  O4  BDP B   3      13.053  24.418  17.6480  0.00  0.00     0.000 O
BRANCH 33 37
ATOM     34  C1  BDP B   3      11.086  20.769  18.6790  0.00  0.00     0.000 C
ATOM     35  C2  BDP B   3      12.004  20.747  17.4630  0.00  0.00     0.000 C
ATOM     36  C3  BDP B   3      12.974  21.921  17.4080  0.00  0.00     0.000 C
ATOM     37  C4  BDP B   3      12.219  23.224  17.7140  0.00  0.00     0.000 C
ATOM     38  C5  BDP B   3      11.542  23.049  19.0870  0.00  0.00     0.000 C
ATOM     39  O5  BDP B   3      10.522  22.069  18.8910  0.00  0.00     0.000 O
ATOM     40   O  BDP B   3      12.680  19.488  17.4960  0.00  0.00     0.000 O
ATOM     42  HD  BDP B   3      11.924  19.249  17.1480  0.00  0.00     0.000 HD
ATOM     42   O  BDP B   3      13.535  21.928  16.0960  0.00  0.00     0.000 O
ATOM     44  HD  BDP B   3      12.779  21.689  15.7480  0.00  0.00     0.000 HD
BRANCH 38 44
ATOM     44   C  BDP B   3      10.942  24.301  19.6450  0.00  0.00     0.000 C
ATOM     45   O  BDP B   3      11.476  24.804  20.6580  0.00  0.00     0.000 OA
ATOM     46   O  BDP B   3       9.938  24.804  19.0960  0.00  0.00     0.000 OA
ENDBRANCH 38 44
BRANCH 34 47
ATOM     47  O3  NAG B   4       9.771  20.317  18.3640  0.00  0.00     0.000 O
BRANCH 47 50
ATOM     48  C1  NAG B   4       8.130  18.446  21.1840  0.00  0.00     0.000 C
ATOM     49  C2  NAG B   4       9.189  18.758  20.1410  0.00  0.00     0.000 C
ATOM     50  C3  NAG B   4       8.812  20.038  19.4050  0.00  0.00     0.000 C
ATOM     51  C4  NAG B   4       7.419  19.948  18.8020  0.00  0.00     0.000 C
ATOM     52  C5  NAG B   4       6.409  19.563  19.8830  0.00  0.00     0.000 C
ATOM     53  O5  NAG B   4       6.833  18.373  20.5610  0.00  0.00     0.000 O
ATOM     54   O  NAG B   4       7.081  21.210  18.2210  0.00  0.00     0.000 O
ATOM     56  HD  NAG B   4       6.547  20.574  17.9720  0.00  0.00     0.000 HD
ATOM     56   C  NAG B   4       5.022  19.340  19.2910  0.00  0.00     0.000 C
ATOM     57   O  NAG B   4       5.091  18.283  18.3250  0.00  0.00     0.000 O
ATOM     59  HD  NAG B   4       4.557  17.647  18.0760  0.00  0.00     0.000 HD
BRANCH 49 61
ATOM     59   N  NAG B   4      10.260  18.305  21.0300  0.00  0.00     0.000 N
ATOM     61  HD  NAG B   4       9.804  18.007  20.3560  0.00  0.00     0.000 HD
ATOM     61   O  NAG B   4      11.538  17.333  19.4410  0.00  0.00     0.000 OA
ATOM     62   C  NAG B   4      11.371  17.700  20.5960  0.00  0.00     0.000 C
ATOM     63   C  NAG B   4      12.444  17.504  21.6200  0.00  0.00     0.000 C
ENDBRANCH 49 61
BRANCH 48 64
ATOM     64  O4  BDP B   5       8.174  17.775  22.4400  0.00  0.00     0.000 O
BRANCH 64 68
ATOM     65  C1  BDP B   5       7.754  16.457  26.3720  0.00  0.00     0.000 C
ATOM     66  C2  BDP B   5       6.509  16.362  25.5000  0.00  0.00     0.000 C
ATOM     67  C3  BDP B   5       6.903  16.458  24.0320  0.00  0.00     0.000 C
ATOM     68  C4  BDP B   5       7.691  17.739  23.7820  0.00  0.00     0.000 C
ATOM     69  C5  BDP B   5       8.875  17.879  24.7290  0.00  0.00     0.000 C
ATOM     70  O5  BDP B   5       8.461  17.675  26.0920  0.00  0.00     0.000 O
ATOM     71   O  BDP B   5       5.814  15.139  25.7840  0.00  0.00     0.000 O
ATOM     73  HD  BDP B   5       5.445  14.379  25.9800  0.00  0.00     0.000 HD
ATOM     73   O  BDP B   5       5.739  16.448  23.1970  0.00  0.00     0.000 O
ATOM     75  HD  BDP B   5       5.371  15.689  23.3920  0.00  0.00     0.000 HD
BRANCH 69 75
ATOM     75   C  BDP B   5       9.442  19.268  24.5780  0.00  0.00     0.000 C
ATOM     76   O  BDP B   5      10.485  19.421  23.9110  0.00  0.00     0.000 OA
ATOM     77   O  BDP B   5       8.851  20.222  25.1170  0.00  0.00     0.000 OA
ENDBRANCH 69 75
BRANCH 65 78
ATOM     78  O3  NAG B   6       7.823  16.988  27.6980  0.00  0.00     0.000 O
BRANCH 78 81
ATOM     79  C1  NAG B   6       8.552  15.862  31.2380  0.00  0.00     0.000 C
ATOM     80  C2  NAG B   6       7.721  16.115  29.9710  0.00  0.00     0.000 C
ATOM     81  C3  NAG B   6       8.615  16.603  28.8430  0.00  0.00     0.000 C
ATOM     82  C4  NAG B   6       9.479  17.783  29.3020  0.00  0.00     0.000 C
ATOM     83  C5  NAG B   6      10.253  17.386  30.5540  0.00  0.00     0.000 C
ATOM     84  O5  NAG B   6       9.300  17.048  31.5630  0.00  0.00     0.000 O
BRANCH 80 87
ATOM     85   N  NAG B   6       7.010  14.884  29.6360  0.00  0.00     0.000 N
ATOM     87  HD  NAG B   6       6.385  14.310  29.8090  0.00  0.00     0.000 HD
ATOM     87   C  NAG B   6       5.729  14.840  29.2500  0.00  0.00     0.000 C
ATOM     88   C  NAG B   6       5.197  13.482  28.9190  0.00  0.00     0.000 C
ATOM     89   O  NAG B   6       5.025  15.839  29.1550  0.00  0.00     0.000 OA
ENDBRANCH 80 87
ATOM     90   O  NAG B   6      12.538  18.097  30.9060  0.00  0.00     0.000 O
ATOM     92  HD  NAG B   6      11.947  17.481  31.0560  0.00  0.00     0.000 HD
ATOM     92   O  NAG B   6      12.538  18.097  30.9060  0.00  0.00     0.000 O
ATOM     94  HD  NAG B   6      11.947  17.481  31.0560  0.00  0.00     0.000 HD
ENDBRANCH 78 81
ENDBRANCH 65 78
ENDBRANCH 64 68
ENDBRANCH 48 64
ENDBRANCH 47 50
ENDBRANCH 34 47
ENDBRANCH 33 37
ENDBRANCH 17 33
ENDBRANCH 16 19
ENDBRANCH 1 16
TORSDOF 16
ENDMDL
MODEL 15
REMARK VINA RESULT:      -5.2     12.091     16.096
ROOT
ATOM      1  C1  BDP B   1      15.020  28.342  14.6960  0.00  0.00     0.000 C
ATOM      2  C2  BDP B   1      14.278  29.608  15.0870  0.00  0.00     0.000 C
ATOM      3  C3  BDP B   1      14.790  30.822  14.3410  0.00  0.00     0.000 C
ATOM      4  C4  BDP B   1      15.660  30.489  13.1340  0.00  0.00     0.000 C
ATOM      5  C5  BDP B   1      16.716  29.432  13.4420  0.00  0.00     0.000 C
ATOM      6  O5  BDP B   1      16.399  28.675  14.6220  0.00  0.00     0.000 O
ATOM      7   O  BDP B   1      12.877  29.447  14.8400  0.00  0.00     0.000 O
ATOM      9  HD  BDP B   1      12.149  28.980  14.8740  0.00  0.00     0.000 HD
ATOM      9   O  BDP B   1      15.566  31.648  15.2230  0.00  0.00     0.000 O
ATOM     11  HD  BDP B   1      14.838  31.181  15.2580  0.00  0.00     0.000 HD
ATOM     11   O  BDP B   1      14.847  30.054  12.0370  0.00  0.00     0.000 O
ATOM     13  HD  BDP B   1      14.118  29.588  12.0710  0.00  0.00     0.000 HD
ENDROOT
BRANCH 5 13
ATOM     13   C  BDP B   1      18.009  30.144  13.6350  0.00  0.00     0.000 C
ATOM     14   O  BDP B   1      19.053  29.463  13.7100  0.00  0.00     0.000 OA
ATOM     15   O  BDP B   1      18.013  31.393  13.6890  0.00  0.00     0.000 OA
ENDBRANCH 5 13
BRANCH 1 16
ATOM     16  O3  NAG B   2      14.539  27.119  14.1430  0.00  0.00     0.000 O
BRANCH 16 19
ATOM     17  C1  NAG B   2      13.146  24.415  16.1450  0.00  0.00     0.000 C
ATOM     18  C2  NAG B   2      12.998  25.782  15.4760  0.00  0.00     0.000 C
ATOM     19  C3  NAG B   2      13.863  25.863  14.2270  0.00  0.00     0.000 C
ATOM     20  C4  NAG B   2      14.884  24.722  14.1680  0.00  0.00     0.000 C
ATOM     21  C5  NAG B   2      15.455  24.289  15.5260  0.00  0.00     0.000 C
ATOM     22  O5  NAG B   2      14.502  24.362  16.5930  0.00  0.00     0.000 O
ATOM     23   O  NAG B   2      14.276  23.602  13.5170  0.00  0.00     0.000 O
ATOM     25  HD  NAG B   2      13.510  23.701  13.9090  0.00  0.00     0.000 HD
ATOM     25   C  NAG B   2      16.674  25.144  15.8980  0.00  0.00     0.000 C
ATOM     26   O  NAG B   2      17.881  24.630  15.3160  0.00  0.00     0.000 O
ATOM     28  HD  NAG B   2      17.114  24.729  15.7070  0.00  0.00     0.000 HD
BRANCH 18 30
ATOM     28   N  NAG B   2      11.650  26.159  15.0530  0.00  0.00     0.000 N
ATOM     30  HD  NAG B   2      10.884  26.419  15.3640  0.00  0.00     0.000 HD
ATOM     30   C  NAG B   2      10.744  25.318  14.5340  0.00  0.00     0.000 C
ATOM     31   C  NAG B   2       9.432  25.951  14.1680  0.00  0.00     0.000 C
ATOM     32   O  NAG B   2      10.948  24.138  14.3710  0.00  0.00     0.000 OA
ENDBRANCH 18 30
BRANCH 17 33
ATOM     33  O4  BDP B   3      13.063  23.537  17.2880  0.00  0.00     0.000 O
BRANCH 33 37
ATOM     34  C1  BDP B   3      11.788  20.240  19.6860  0.00  0.00     0.000 C
ATOM     35  C2  BDP B   3      12.983  20.013  18.7680  0.00  0.00     0.000 C
ATOM     36  C3  BDP B   3      13.633  21.304  18.2800  0.00  0.00     0.000 C
ATOM     37  C4  BDP B   3      12.543  22.280  17.8130  0.00  0.00     0.000 C
ATOM     38  C5  BDP B   3      11.575  22.486  18.9940  0.00  0.00     0.000 C
ATOM     39  O5  BDP B   3      10.903  21.238  19.1640  0.00  0.00     0.000 O
ATOM     40   O  BDP B   3      13.896  19.190  19.4970  0.00  0.00     0.000 O
ATOM     42  HD  BDP B   3      13.341  18.590  19.2110  0.00  0.00     0.000 HD
ATOM     42   O  BDP B   3      14.513  20.943  17.2180  0.00  0.00     0.000 O
ATOM     44  HD  BDP B   3      13.958  20.343  16.9320  0.00  0.00     0.000 HD
BRANCH 38 44
ATOM     44   C  BDP B   3      10.573  23.579  18.7900  0.00  0.00     0.000 C
ATOM     45   O  BDP B   3       9.893  23.560  17.7410  0.00  0.00     0.000 OA
ATOM     46   O  BDP B   3      10.443  24.469  19.6590  0.00  0.00     0.000 OA
ENDBRANCH 38 44
BRANCH 34 47
ATOM     47  O3  NAG B   4      10.751  19.288  19.4580  0.00  0.00     0.000 O
BRANCH 47 50
ATOM     48  C1  NAG B   4       8.701  17.703  22.1840  0.00  0.00     0.000 C
ATOM     49  C2  NAG B   4       9.886  17.889  21.2530  0.00  0.00     0.000 C
ATOM     50  C3  NAG B   4       9.667  19.131  20.3970  0.00  0.00     0.000 C
ATOM     51  C4  NAG B   4       8.348  19.067  19.6430  0.00  0.00     0.000 C
ATOM     52  C5  NAG B   4       7.203  18.809  20.6230  0.00  0.00     0.000 C
ATOM     53  O5  NAG B   4       7.480  17.651  21.4210  0.00  0.00     0.000 O
ATOM     54   O  NAG B   4       8.149  20.300  18.9470  0.00  0.00     0.000 O
ATOM     56  HD  NAG B   4       7.612  19.675  18.6800  0.00  0.00     0.000 HD
ATOM     56   C  NAG B   4       5.881  18.613  19.8900  0.00  0.00     0.000 C
ATOM     57   O  NAG B   4       5.997  17.488  19.0090  0.00  0.00     0.000 O
ATOM     59  HD  NAG B   4       5.460  16.863  18.7420  0.00  0.00     0.000 HD
BRANCH 49 61
ATOM     59   N  NAG B   4      11.083  17.871  22.0940  0.00  0.00     0.000 N
ATOM     61  HD  NAG B   4      10.568  17.308  21.6850  0.00  0.00     0.000 HD
ATOM     61   O  NAG B   4      12.214  16.305  20.9230  0.00  0.00     0.000 OA
ATOM     62   C  NAG B   4      12.168  17.139  21.8160  0.00  0.00     0.000 C
ATOM     63   C  NAG B   4      13.368  17.412  22.6660  0.00  0.00     0.000 C
ENDBRANCH 49 61
BRANCH 48 64
ATOM     64  O4  BDP B   5       8.566  17.122  23.4780  0.00  0.00     0.000 O
BRANCH 64 68
ATOM     65  C1  BDP B   5       7.498  16.025  27.3550  0.00  0.00     0.000 C
ATOM     66  C2  BDP B   5       6.350  16.189  26.3680  0.00  0.00     0.000 C
ATOM     67  C3  BDP B   5       6.890  16.159  24.9440  0.00  0.00     0.000 C
ATOM     68  C4  BDP B   5       7.964  17.227  24.7670  0.00  0.00     0.000 C
ATOM     69  C5  BDP B   5       9.057  17.122  25.8230  0.00  0.00     0.000 C
ATOM     70  O5  BDP B   5       8.483  17.048  27.1400  0.00  0.00     0.000 O
ATOM     71   O  BDP B   5       5.375  15.159  26.5870  0.00  0.00     0.000 O
ATOM     73  HD  BDP B   5       4.830  14.505  26.7490  0.00  0.00     0.000 HD
ATOM     73   O  BDP B   5       5.836  16.390  24.0010  0.00  0.00     0.000 O
ATOM     75  HD  BDP B   5       5.291  15.736  24.1620  0.00  0.00     0.000 HD
BRANCH 69 75
ATOM     75   C  BDP B   5       9.932  18.346  25.7230  0.00  0.00     0.000 C
ATOM     76   O  BDP B   5      11.034  18.249  25.1470  0.00  0.00     0.000 OA
ATOM     77   O  BDP B   5       9.529  19.417  26.2120  0.00  0.00     0.000 OA
ENDBRANCH 69 75
BRANCH 65 78
ATOM     78  O3  NAG B   6       7.562  16.559  28.6800  0.00  0.00     0.000 O
BRANCH 78 81
ATOM     79  C1  NAG B   6       7.685  15.662  32.3560  0.00  0.00     0.000 C
ATOM     80  C2  NAG B   6       7.061  16.090  31.0180  0.00  0.00     0.000 C
ATOM     81  C3  NAG B   6       8.095  16.014  29.9060  0.00  0.00     0.000 C
ATOM     82  C4  NAG B   6       9.374  16.762  30.2980  0.00  0.00     0.000 C
ATOM     83  C5  NAG B   6       9.885  16.228  31.6310  0.00  0.00     0.000 C
ATOM     84  O5  NAG B   6       8.864  16.448  32.6050  0.00  0.00     0.000 O
BRANCH 80 87
ATOM     85   N  NAG B   6       5.692  16.519  30.7440  0.00  0.00     0.000 N
ATOM     87  HD  NAG B   6       5.049  16.654  30.1800  0.00  0.00     0.000 HD
ATOM     87   C  NAG B   6       4.726  15.704  30.3030  0.00  0.00     0.000 C
ATOM     88   C  NAG B   6       3.382  16.332  30.1180  0.00  0.00     0.000 C
ATOM     89   O  NAG B   6       4.908  14.514  30.0760  0.00  0.00     0.000 OA
ENDBRANCH 80 87
ATOM     90   O  NAG B   6      12.248  15.939  32.0560  0.00  0.00     0.000 O
ATOM     92  HD  NAG B   6      11.449  15.654  32.2290  0.00  0.00     0.000 HD
ATOM     92   O  NAG B   6      12.248  15.939  32.0560  0.00  0.00     0.000 O
ATOM     94  HD  NAG B   6      11.449  15.654  32.2290  0.00  0.00     0.000 HD
ENDBRANCH 78 81
ENDBRANCH 65 78
ENDBRANCH 64 68
ENDBRANCH 48 64
ENDBRANCH 47 50
ENDBRANCH 34 47
ENDBRANCH 33 37
ENDBRANCH 17 33
ENDBRANCH 16 19
ENDBRANCH 1 16
TORSDOF 16
ENDMDL
MODEL 16
REMARK VINA RESULT:      -5.2      5.557     17.326
ROOT
ATOM      1  C1  BDP B   1      22.213   7.400  33.1940  0.00  0.00     0.000 C
ATOM      2  C2  BDP B   1      20.962   6.716  33.7180  0.00  0.00     0.000 C
ATOM      3  C3  BDP B   1      20.900   6.724  35.2300  0.00  0.00     0.000 C
ATOM      4  C4  BDP B   1      21.877   7.692  35.8880  0.00  0.00     0.000 C
ATOM      5  C5  BDP B   1      23.283   7.599  35.3040  0.00  0.00     0.000 C
ATOM      6  O5  BDP B   1      23.293   6.971  34.0110  0.00  0.00     0.000 O
ATOM      7   O  BDP B   1      19.798   7.357  33.1860  0.00  0.00     0.000 O
ATOM      9  HD  BDP B   1      19.359   7.711  32.5280  0.00  0.00     0.000 HD
ATOM      9   O  BDP B   1      21.180   5.410  35.7390  0.00  0.00     0.000 O
ATOM     11  HD  BDP B   1      20.741   5.763  35.0810  0.00  0.00     0.000 HD
ATOM     11   O  BDP B   1      21.397   9.037  35.7790  0.00  0.00     0.000 O
ATOM     13  HD  BDP B   1      20.958   9.390  35.1220  0.00  0.00     0.000 HD
ENDROOT
BRANCH 5 13
ATOM     13   C  BDP B   1      24.104   6.800  36.2560  0.00  0.00     0.000 C
ATOM     14   O  BDP B   1      24.152   5.563  36.0980  0.00  0.00     0.000 OA
ATOM     15   O  BDP B   1      24.734   7.391  37.1590  0.00  0.00     0.000 OA
ENDBRANCH 5 13
BRANCH 1 16
ATOM     16  O3  NAG B   2      22.362   8.519  32.3230  0.00  0.00     0.000 O
BRANCH 16 19
ATOM     17  C1  NAG B   2      21.744   9.177  28.7950  0.00  0.00     0.000 C
ATOM     18  C2  NAG B   2      21.280   8.620  30.1420  0.00  0.00     0.000 C
ATOM     19  C3  NAG B   2      21.912   9.396  31.2880  0.00  0.00     0.000 C
ATOM     20  C4  NAG B   2      23.076  10.268  30.8090  0.00  0.00     0.000 C
ATOM     21  C5  NAG B   2      23.916   9.668  29.6730  0.00  0.00     0.000 C
ATOM     22  O5  NAG B   2      23.146   8.902  28.7390  0.00  0.00     0.000 O
ATOM     23   O  NAG B   2      22.555  11.540  30.4080  0.00  0.00     0.000 O
ATOM     25  HD  NAG B   2      21.855  11.209  30.0200  0.00  0.00     0.000 HD
ATOM     25   C  NAG B   2      25.030   8.776  30.2370  0.00  0.00     0.000 C
ATOM     26   O  NAG B   2      26.194   9.538  30.5890  0.00  0.00     0.000 O
ATOM     28  HD  NAG B   2      25.494   9.207  30.2010  0.00  0.00     0.000 HD
BRANCH 18 30
ATOM     28   N  NAG B   2      20.194   9.328  29.4650  0.00  0.00     0.000 N
ATOM     30  HD  NAG B   2      19.974  10.106  29.1540  0.00  0.00     0.000 HD
ATOM     30   C  NAG B   2      19.006   9.616  30.0150  0.00  0.00     0.000 C
ATOM     31   C  NAG B   2      18.050  10.342  29.1110  0.00  0.00     0.000 C
ATOM     32   O  NAG B   2      18.710   9.328  31.1520  0.00  0.00     0.000 OA
ENDBRANCH 18 30
BRANCH 17 33
ATOM     33  O4  BDP B   3      21.981   9.054  27.3760  0.00  0.00     0.000 O
BRANCH 33 37
ATOM     34  C1  BDP B   3      22.798  10.695  23.5180  0.00  0.00     0.000 C
ATOM     35  C2  BDP B   3      22.593  11.678  24.6640  0.00  0.00     0.000 C
ATOM     36  C3  BDP B   3      22.731  11.045  26.0440  0.00  0.00     0.000 C
ATOM     37  C4  BDP B   3      21.947   9.724  26.0820  0.00  0.00     0.000 C
ATOM     38  C5  BDP B   3      22.485   8.839  24.9420  0.00  0.00     0.000 C
ATOM     39  O5  BDP B   3      22.075   9.476  23.7320  0.00  0.00     0.000 O
ATOM     40   O  BDP B   3      23.534  12.734  24.4570  0.00  0.00     0.000 O
ATOM     42  HD  BDP B   3      22.909  12.974  23.9090  0.00  0.00     0.000 HD
ATOM     42   O  BDP B   3      22.222  11.991  26.9820  0.00  0.00     0.000 O
ATOM     44  HD  BDP B   3      21.597  12.232  26.4330  0.00  0.00     0.000 HD
BRANCH 38 44
ATOM     44   C  BDP B   3      21.987   7.428  24.9660  0.00  0.00     0.000 C
ATOM     45   O  BDP B   3      20.750   7.244  24.9730  0.00  0.00     0.000 OA
ATOM     46   O  BDP B   3      22.806   6.483  24.9780  0.00  0.00     0.000 OA
ENDBRANCH 38 44
BRANCH 34 47
ATOM     47  O3  NAG B   4      21.916  10.955  22.4280  0.00  0.00     0.000 O
BRANCH 47 50
ATOM     48  C1  NAG B   4      22.918   9.485  19.1130  0.00  0.00     0.000 C
ATOM     49  C2  NAG B   4      23.027  10.372  20.3410  0.00  0.00     0.000 C
ATOM     50  C3  NAG B   4      21.868  10.075  21.2850  0.00  0.00     0.000 C
ATOM     51  C4  NAG B   4      20.525  10.223  20.5870  0.00  0.00     0.000 C
ATOM     52  C5  NAG B   4      20.500   9.363  19.3230  0.00  0.00     0.000 C
ATOM     53  O5  NAG B   4      21.629   9.663  18.4930  0.00  0.00     0.000 O
ATOM     54   O  NAG B   4      19.486   9.829  21.4870  0.00  0.00     0.000 O
ATOM     56  HD  NAG B   4      19.185  10.255  20.7960  0.00  0.00     0.000 HD
ATOM     56   C  NAG B   4      19.217   9.582  18.5300  0.00  0.00     0.000 C
ATOM     57   O  NAG B   4      19.131  10.962  18.1510  0.00  0.00     0.000 O
ATOM     59  HD  NAG B   4      18.830  11.388  17.4600  0.00  0.00     0.000 HD
BRANCH 49 61
ATOM     59   N  NAG B   4      23.287  11.627  19.6340  0.00  0.00     0.000 N
ATOM     61  HD  NAG B   4      23.217  11.343  20.4490  0.00  0.00     0.000 HD
ATOM     61   O  NAG B   4      24.936  12.366  20.9890  0.00  0.00     0.000 OA
ATOM     62   C  NAG B   4      24.264  12.476  19.9740  0.00  0.00     0.000 C
ATOM     63   C  NAG B   4      24.515  13.593  19.0100  0.00  0.00     0.000 C
ENDBRANCH 49 61
BRANCH 48 64
ATOM     64  O4  BDP B   5      23.886   8.938  18.2230  0.00  0.00     0.000 O
BRANCH 64 68
ATOM     65  C1  BDP B   5      26.297   7.946  14.9710  0.00  0.00     0.000 C
ATOM     66  C2  BDP B   5      25.782   9.379  15.0070  0.00  0.00     0.000 C
ATOM     67  C3  BDP B   5      25.301   9.715  16.4130  0.00  0.00     0.000 C
ATOM     68  C4  BDP B   5      24.248   8.709  16.8620  0.00  0.00     0.000 C
ATOM     69  C5  BDP B   5      24.732   7.271  16.7240  0.00  0.00     0.000 C
ATOM     70  O5  BDP B   5      25.270   7.042  15.4100  0.00  0.00     0.000 O
ATOM     71   O  BDP B   5      26.818  10.274  14.5730  0.00  0.00     0.000 O
ATOM     73  HD  BDP B   5      27.482  10.770  14.3230  0.00  0.00     0.000 HD
ATOM     73   O  BDP B   5      24.742  11.034  16.4510  0.00  0.00     0.000 O
ATOM     75  HD  BDP B   5      25.406  11.530  16.2010  0.00  0.00     0.000 HD
BRANCH 69 75
ATOM     75   C  BDP B   5      23.559   6.352  16.9540  0.00  0.00     0.000 C
ATOM     76   O  BDP B   5      22.581   6.423  16.1810  0.00  0.00     0.000 OA
ATOM     77   O  BDP B   5      23.599   5.548  17.9030  0.00  0.00     0.000 OA
ENDBRANCH 69 75
BRANCH 65 78
ATOM     78  O3  NAG B   6      26.275   7.065  13.8450  0.00  0.00     0.000 O
BRANCH 78 81
ATOM     79  C1  NAG B   6      27.893   3.734  13.0570  0.00  0.00     0.000 C
ATOM     80  C2  NAG B   6      27.808   5.247  13.3130  0.00  0.00     0.000 C
ATOM     81  C3  NAG B   6      26.404   5.630  13.7510  0.00  0.00     0.000 C
ATOM     82  C4  NAG B   6      25.358   5.073  12.7790  0.00  0.00     0.000 C
ATOM     83  C5  NAG B   6      25.553   3.568  12.6320  0.00  0.00     0.000 C
ATOM     84  O5  NAG B   6      26.869   3.350  12.1220  0.00  0.00     0.000 O
BRANCH 80 87
ATOM     85   N  NAG B   6      28.888   6.222  13.1810  0.00  0.00     0.000 N
ATOM     87  HD  NAG B   6      29.208   7.010  13.3410  0.00  0.00     0.000 HD
ATOM     87   C  NAG B   6      29.611   6.682  14.2090  0.00  0.00     0.000 C
ATOM     88   C  NAG B   6      30.696   7.650  13.8580  0.00  0.00     0.000 C
ATOM     89   O  NAG B   6      29.423   6.333  15.3680  0.00  0.00     0.000 OA
ENDBRANCH 80 87
ATOM     90   O  NAG B   6      23.670   2.061  12.4620  0.00  0.00     0.000 O
ATOM     92  HD  NAG B   6      24.489   2.157  12.7270  0.00  0.00     0.000 HD
ATOM     92   O  NAG B   6      23.670   2.061  12.4620  0.00  0.00     0.000 O
ATOM     94  HD  NAG B   6      24.489   2.157  12.7270  0.00  0.00     0.000 HD
ENDBRANCH 78 81
ENDBRANCH 65 78
ENDBRANCH 64 68
ENDBRANCH 48 64
ENDBRANCH 47 50
ENDBRANCH 34 47
ENDBRANCH 33 37
ENDBRANCH 17 33
ENDBRANCH 16 19
ENDBRANCH 1 16
TORSDOF 16
ENDMDL
MODEL 17
REMARK VINA RESULT:      -5.2     12.327     16.707
ROOT
ATOM      1  C1  BDP B   1       7.288  27.787  16.9510  0.00  0.00     0.000 C
ATOM      2  C2  BDP B   1       7.605  27.780  18.4360  0.00  0.00     0.000 C
ATOM      3  C3  BDP B   1       6.409  27.379  19.2730  0.00  0.00     0.000 C
ATOM      4  C4  BDP B   1       5.280  26.737  18.4750  0.00  0.00     0.000 C
ATOM      5  C5  BDP B   1       4.943  27.509  17.2030  0.00  0.00     0.000 C
ATOM      6  O5  BDP B   1       6.009  28.387  16.8030  0.00  0.00     0.000 O
ATOM      7   O  BDP B   1       8.695  26.889  18.6960  0.00  0.00     0.000 O
ATOM      9  HD  BDP B   1       9.475  26.566  18.5030  0.00  0.00     0.000 HD
ATOM      9   O  BDP B   1       5.871  28.530  19.9420  0.00  0.00     0.000 O
ATOM     11  HD  BDP B   1       6.651  28.207  19.7490  0.00  0.00     0.000 HD
ATOM     11   O  BDP B   1       5.608  25.382  18.1450  0.00  0.00     0.000 O
ATOM     13  HD  BDP B   1       6.388  25.059  17.9520  0.00  0.00     0.000 HD
ENDROOT
BRANCH 5 13
ATOM     13   C  BDP B   1       3.716  28.304  17.4810  0.00  0.00     0.000 C
ATOM     14   O  BDP B   1       2.607  27.775  17.2540  0.00  0.00     0.000 OA
ATOM     15   O  BDP B   1       3.831  29.455  17.9540  0.00  0.00     0.000 OA
ENDBRANCH 5 13
BRANCH 1 16
ATOM     16  O3  NAG B   2       7.879  27.065  15.8730  0.00  0.00     0.000 O
BRANCH 16 19
ATOM     17  C1  NAG B   2       9.936  24.074  16.1550  0.00  0.00     0.000 C
ATOM     18  C2  NAG B   2       8.585  24.773  16.3070  0.00  0.00     0.000 C
ATOM     19  C3  NAG B   2       8.443  25.892  15.2850  0.00  0.00     0.000 C
ATOM     20  C4  NAG B   2       9.785  26.236  14.6310  0.00  0.00     0.000 C
ATOM     21  C5  NAG B   2      11.006  26.129  15.5540  0.00  0.00     0.000 C
ATOM     22  O5  NAG B   2      10.910  25.060  16.5030  0.00  0.00     0.000 O
ATOM     23   O  NAG B   2       9.964  25.391  13.4890  0.00  0.00     0.000 O
ATOM     25  HD  NAG B   2       9.650  24.683  13.8770  0.00  0.00     0.000 HD
ATOM     25   C  NAG B   2      11.225  27.443  16.3160  0.00  0.00     0.000 C
ATOM     26   O  NAG B   2      11.989  28.383  15.5460  0.00  0.00     0.000 O
ATOM     28  HD  NAG B   2      11.675  27.674  15.9340  0.00  0.00     0.000 HD
BRANCH 18 30
ATOM     28   N  NAG B   2       7.795  23.544  16.3440  0.00  0.00     0.000 N
ATOM     30  HD  NAG B   2       7.859  22.695  16.5020  0.00  0.00     0.000 HD
ATOM     30   C  NAG B   2       7.272  22.934  15.2710  0.00  0.00     0.000 C
ATOM     31   C  NAG B   2       6.489  21.687  15.5710  0.00  0.00     0.000 C
ATOM     32   O  NAG B   2       7.414  23.338  14.1400  0.00  0.00     0.000 OA
ENDBRANCH 18 30
BRANCH 17 33
ATOM     33  O4  BDP B   3      11.024  23.272  16.6650  0.00  0.00     0.000 O
BRANCH 33 37
ATOM     34  C1  BDP B   3      12.785  21.003  19.8260  0.00  0.00     0.000 C
ATOM     35  C2  BDP B   3      13.127  20.592  18.3990  0.00  0.00     0.000 C
ATOM     36  C3  BDP B   3      12.824  21.669  17.3640  0.00  0.00     0.000 C
ATOM     37  C4  BDP B   3      11.428  22.255  17.6280  0.00  0.00     0.000 C
ATOM     38  C5  BDP B   3      11.417  22.775  19.0780  0.00  0.00     0.000 C
ATOM     39  O5  BDP B   3      11.491  21.613  19.9050  0.00  0.00     0.000 O
ATOM     40   O  BDP B   3      14.508  20.224  18.4090  0.00  0.00     0.000 O
ATOM     42  HD  BDP B   3      14.152  19.498  18.7190  0.00  0.00     0.000 HD
ATOM     42   O  BDP B   3      12.903  21.042  16.0850  0.00  0.00     0.000 O
ATOM     44  HD  BDP B   3      12.547  20.316  16.3950  0.00  0.00     0.000 HD
BRANCH 38 44
ATOM     44   C  BDP B   3      10.206  23.577  19.4390  0.00  0.00     0.000 C
ATOM     45   O  BDP B   3      10.378  24.755  19.8250  0.00  0.00     0.000 OA
ATOM     46   O  BDP B   3       9.072  23.060  19.3480  0.00  0.00     0.000 OA
ENDBRANCH 38 44
BRANCH 34 47
ATOM     47  O3  NAG B   4      12.251  19.917  20.5820  0.00  0.00     0.000 O
BRANCH 47 50
ATOM     48  C1  NAG B   4      13.504  19.248  24.0650  0.00  0.00     0.000 C
ATOM     49  C2  NAG B   4      13.540  19.279  22.5470  0.00  0.00     0.000 C
ATOM     50  C3  NAG B   4      12.268  19.937  22.0240  0.00  0.00     0.000 C
ATOM     51  C4  NAG B   4      11.022  19.247  22.5550  0.00  0.00     0.000 C
ATOM     52  C5  NAG B   4      11.076  19.183  24.0820  0.00  0.00     0.000 C
ATOM     53  O5  NAG B   4      12.305  18.586  24.5140  0.00  0.00     0.000 O
ATOM     54   O  NAG B   4       9.868  19.971  22.1210  0.00  0.00     0.000 O
ATOM     56  HD  NAG B   4       9.672  19.187  22.4320  0.00  0.00     0.000 HD
ATOM     56   C  NAG B   4       9.903  18.387  24.6440  0.00  0.00     0.000 C
ATOM     57   O  NAG B   4       9.952  17.052  24.1240  0.00  0.00     0.000 O
ATOM     59  HD  NAG B   4       9.757  16.267  24.4340  0.00  0.00     0.000 HD
BRANCH 49 61
ATOM     59   N  NAG B   4      14.918  19.744  22.3820  0.00  0.00     0.000 N
ATOM     61  HD  NAG B   4      14.484  18.995  22.4140  0.00  0.00     0.000 HD
ATOM     61   O  NAG B   4      15.498  18.299  20.7460  0.00  0.00     0.000 OA
ATOM     62   C  NAG B   4      15.751  19.265  21.4500  0.00  0.00     0.000 C
ATOM     63   C  NAG B   4      17.040  20.007  21.2920  0.00  0.00     0.000 C
ENDBRANCH 49 61
BRANCH 48 64
ATOM     64  O4  BDP B   5      14.524  19.272  25.0590  0.00  0.00     0.000 O
BRANCH 64 68
ATOM     65  C1  BDP B   5      15.036  16.419  28.0540  0.00  0.00     0.000 C
ATOM     66  C2  BDP B   5      15.007  17.871  28.5140  0.00  0.00     0.000 C
ATOM     67  C3  BDP B   5      14.397  18.742  27.4230  0.00  0.00     0.000 C
ATOM     68  C4  BDP B   5      15.164  18.561  26.1180  0.00  0.00     0.000 C
ATOM     69  C5  BDP B   5      15.280  17.096  25.7180  0.00  0.00     0.000 C
ATOM     70  O5  BDP B   5      15.761  16.307  26.8200  0.00  0.00     0.000 O
ATOM     71   O  BDP B   5      14.274  17.972  29.7450  0.00  0.00     0.000 O
ATOM     73  HD  BDP B   5      13.807  17.980  30.4740  0.00  0.00     0.000 HD
ATOM     73   O  BDP B   5      14.431  20.122  27.8030  0.00  0.00     0.000 O
ATOM     75  HD  BDP B   5      13.964  20.130  28.5330  0.00  0.00     0.000 HD
BRANCH 69 75
ATOM     75   C  BDP B   5      16.248  16.994  24.5660  0.00  0.00     0.000 C
ATOM     76   O  BDP B   5      17.381  17.503  24.6880  0.00  0.00     0.000 OA
ATOM     77   O  BDP B   5      15.892  16.404  23.5290  0.00  0.00     0.000 OA
ENDBRANCH 69 75
BRANCH 65 78
ATOM     78  O3  NAG B   6      15.988  15.425  28.4420  0.00  0.00     0.000 O
BRANCH 78 81
ATOM     79  C1  NAG B   6      15.874  12.076  30.2040  0.00  0.00     0.000 C
ATOM     80  C2  NAG B   6      15.834  13.605  30.0550  0.00  0.00     0.000 C
ATOM     81  C3  NAG B   6      15.871  13.993  28.5860  0.00  0.00     0.000 C
ATOM     82  C4  NAG B   6      17.032  13.298  27.8670  0.00  0.00     0.000 C
ATOM     83  C5  NAG B   6      16.937  11.793  28.0890  0.00  0.00     0.000 C
ATOM     84  O5  NAG B   6      17.014  11.558  29.4960  0.00  0.00     0.000 O
BRANCH 80 87
ATOM     85   N  NAG B   6      14.670  14.052  30.8160  0.00  0.00     0.000 N
ATOM     87  HD  NAG B   6      14.297  14.232  31.5760  0.00  0.00     0.000 HD
ATOM     87   C  NAG B   6      14.629  15.186  31.5250  0.00  0.00     0.000 C
ATOM     88   C  NAG B   6      13.329  15.479  32.2050  0.00  0.00     0.000 C
ATOM     89   O  NAG B   6      15.579  15.955  31.6120  0.00  0.00     0.000 OA
ENDBRANCH 80 87
ATOM     90   O  NAG B   6      17.467  10.220  26.3310  0.00  0.00     0.000 O
ATOM     92  HD  NAG B   6      16.990  10.370  27.0370  0.00  0.00     0.000 HD
ATOM     92   O  NAG B   6      17.467  10.220  26.3310  0.00  0.00     0.000 O
ATOM     94  HD  NAG B   6      16.990  10.370  27.0370  0.00  0.00     0.000 HD
ENDBRANCH 78 81
ENDBRANCH 65 78
ENDBRANCH 64 68
ENDBRANCH 48 64
ENDBRANCH 47 50
ENDBRANCH 34 47
ENDBRANCH 33 37
ENDBRANCH 17 33
ENDBRANCH 16 19
ENDBRANCH 1 16
TORSDOF 16
ENDMDL
MODEL 18
REMARK VINA RESULT:      -5.0      7.652     14.316
ROOT
ATOM      1  C1  BDP B   1      28.018  15.976  34.4510  0.00  0.00     0.000 C
ATOM      2  C2  BDP B   1      28.484  15.082  35.5860  0.00  0.00     0.000 C
ATOM      3  C3  BDP B   1      27.395  14.140  36.0530  0.00  0.00     0.000 C
ATOM      4  C4  BDP B   1      26.216  14.027  35.0930  0.00  0.00     0.000 C
ATOM      5  C5  BDP B   1      25.723  15.384  34.6020  0.00  0.00     0.000 C
ATOM      6  O5  BDP B   1      26.709  16.416  34.7800  0.00  0.00     0.000 O
ATOM      7   O  BDP B   1      29.628  14.327  35.1730  0.00  0.00     0.000 O
ATOM      9  HD  BDP B   1      30.396  14.267  34.7780  0.00  0.00     0.000 HD
ATOM      9   O  BDP B   1      26.883  14.574  37.3230  0.00  0.00     0.000 O
ATOM     11  HD  BDP B   1      27.651  14.514  36.9280  0.00  0.00     0.000 HD
ATOM     11   O  BDP B   1      26.562  13.204  33.9720  0.00  0.00     0.000 O
ATOM     13  HD  BDP B   1      27.330  13.144  33.5770  0.00  0.00     0.000 HD
ENDROOT
BRANCH 5 13
ATOM     13   C  BDP B   1      24.500  15.718  35.3830  0.00  0.00     0.000 C
ATOM     14   O  BDP B   1      24.049  14.857  36.1670  0.00  0.00     0.000 OA
ATOM     15   O  BDP B   1      23.984  16.848  35.2500  0.00  0.00     0.000 OA
ENDBRANCH 5 13
BRANCH 1 16
ATOM     16  O3  NAG B   2      28.525  16.133  33.1270  0.00  0.00     0.000 O
BRANCH 16 19
ATOM     17  C1  NAG B   2      27.066  14.976  29.9980  0.00  0.00     0.000 C
ATOM     18  C2  NAG B   2      26.983  15.829  31.2640  0.00  0.00     0.000 C
ATOM     19  C3  NAG B   2      28.373  16.259  31.7120  0.00  0.00     0.000 C
ATOM     20  C4  NAG B   2      29.470  15.461  31.0020  0.00  0.00     0.000 C
ATOM     21  C5  NAG B   2      29.126  13.992  30.7160  0.00  0.00     0.000 C
ATOM     22  O5  NAG B   2      27.747  13.783  30.3930  0.00  0.00     0.000 O
ATOM     23   O  NAG B   2      29.798  16.129  29.7790  0.00  0.00     0.000 O
ATOM     25  HD  NAG B   2      28.978  16.324  29.5840  0.00  0.00     0.000 HD
ATOM     25   C  NAG B   2      29.488  13.109  31.9180  0.00  0.00     0.000 C
ATOM     26   O  NAG B   2      30.865  12.710  31.8890  0.00  0.00     0.000 O
ATOM     28  HD  NAG B   2      30.045  12.905  31.6940  0.00  0.00     0.000 HD
BRANCH 18 30
ATOM     28   N  NAG B   2      26.970  17.262  30.9740  0.00  0.00     0.000 N
ATOM     30  HD  NAG B   2      26.774  18.028  31.3260  0.00  0.00     0.000 HD
ATOM     30   C  NAG B   2      26.145  17.861  30.1030  0.00  0.00     0.000 C
ATOM     31   C  NAG B   2      26.333  19.345  29.9720  0.00  0.00     0.000 C
ATOM     32   O  NAG B   2      25.303  17.269  29.4680  0.00  0.00     0.000 OA
ENDBRANCH 18 30
BRANCH 17 33
ATOM     33  O4  BDP B   3      26.534  13.995  29.0820  0.00  0.00     0.000 O
BRANCH 33 37
ATOM     34  C1  BDP B   3      24.097  12.526  25.8960  0.00  0.00     0.000 C
ATOM     35  C2  BDP B   3      24.382  14.023  25.9220  0.00  0.00     0.000 C
ATOM     36  C3  BDP B   3      25.567  14.404  26.8020  0.00  0.00     0.000 C
ATOM     37  C4  BDP B   3      25.464  13.669  28.1470  0.00  0.00     0.000 C
ATOM     38  C5  BDP B   3      25.385  12.161  27.8400  0.00  0.00     0.000 C
ATOM     39  O5  BDP B   3      24.118  11.961  27.2130  0.00  0.00     0.000 O
ATOM     40   O  BDP B   3      24.570  14.417  24.5620  0.00  0.00     0.000 O
ATOM     42  HD  BDP B   3      23.705  14.404  24.6010  0.00  0.00     0.000 HD
ATOM     42   O  BDP B   3      25.518  15.820  26.9660  0.00  0.00     0.000 O
ATOM     44  HD  BDP B   3      24.653  15.807  27.0050  0.00  0.00     0.000 HD
BRANCH 38 44
ATOM     44   C  BDP B   3      25.500  11.277  29.0430  0.00  0.00     0.000 C
ATOM     45   O  BDP B   3      26.321  10.335  29.0000  0.00  0.00     0.000 OA
ATOM     46   O  BDP B   3      24.783  11.499  30.0430  0.00  0.00     0.000 OA
ENDBRANCH 38 44
BRANCH 34 47
ATOM     47  O3  NAG B   4      22.698  12.249  25.8650  0.00  0.00     0.000 O
BRANCH 47 50
ATOM     48  C1  NAG B   4      21.327   9.854  23.3090  0.00  0.00     0.000 C
ATOM     49  C2  NAG B   4      21.918  11.150  23.8380  0.00  0.00     0.000 C
ATOM     50  C3  NAG B   4      22.199  11.007  25.3290  0.00  0.00     0.000 C
ATOM     51  C4  NAG B   4      20.955  10.587  26.0960  0.00  0.00     0.000 C
ATOM     52  C5  NAG B   4      20.366   9.319  25.4760  0.00  0.00     0.000 C
ATOM     53  O5  NAG B   4      20.155   9.502  24.0700  0.00  0.00     0.000 O
ATOM     54   O  NAG B   4      21.304  10.364  27.4640  0.00  0.00     0.000 O
ATOM     56  HD  NAG B   4      20.448  10.415  27.3420  0.00  0.00     0.000 HD
ATOM     56   C  NAG B   4      19.048   8.939  26.1390  0.00  0.00     0.000 C
ATOM     57   O  NAG B   4      18.113  10.013  25.9710  0.00  0.00     0.000 O
ATOM     59  HD  NAG B   4      17.257  10.064  25.8490  0.00  0.00     0.000 HD
BRANCH 49 61
ATOM     59   N  NAG B   4      22.869  11.385  22.7520  0.00  0.00     0.000 N
ATOM     61  HD  NAG B   4      22.062  11.611  22.9680  0.00  0.00     0.000 HD
ATOM     61   O  NAG B   4      22.456  13.591  22.5000  0.00  0.00     0.000 OA
ATOM     62   C  NAG B   4      23.109  12.593  22.2290  0.00  0.00     0.000 C
ATOM     63   C  NAG B   4      24.263  12.671  21.2810  0.00  0.00     0.000 C
ENDBRANCH 49 61
BRANCH 48 64
ATOM     64  O4  BDP B   5      21.365   9.221  22.0340  0.00  0.00     0.000 O
BRANCH 64 68
ATOM     65  C1  BDP B   5      23.510   5.774  21.0900  0.00  0.00     0.000 C
ATOM     66  C2  BDP B   5      23.645   6.933  20.1110  0.00  0.00     0.000 C
ATOM     67  C3  BDP B   5      23.184   8.223  20.7770  0.00  0.00     0.000 C
ATOM     68  C4  BDP B   5      21.759   8.064  21.2970  0.00  0.00     0.000 C
ATOM     69  C5  BDP B   5      21.606   6.842  22.1920  0.00  0.00     0.000 C
ATOM     70  O5  BDP B   5      22.154   5.675  21.5530  0.00  0.00     0.000 O
ATOM     71   O  BDP B   5      25.005   7.025  19.6590  0.00  0.00     0.000 O
ATOM     73  HD  BDP B   5      25.841   7.049  19.4350  0.00  0.00     0.000 HD
ATOM     73   O  BDP B   5      23.230   9.312  19.8490  0.00  0.00     0.000 O
ATOM     75  HD  BDP B   5      24.066   9.336  19.6240  0.00  0.00     0.000 HD
BRANCH 69 75
ATOM     75   C  BDP B   5      20.138   6.629  22.4560  0.00  0.00     0.000 C
ATOM     76   O  BDP B   5      19.763   6.421  23.6280  0.00  0.00     0.000 OA
ATOM     77   O  BDP B   5      19.341   6.670  21.5000  0.00  0.00     0.000 OA
ENDBRANCH 69 75
BRANCH 65 78
ATOM     78  O3  NAG B   6      23.256   4.406  20.7560  0.00  0.00     0.000 O
BRANCH 78 81
ATOM     79  C1  NAG B   6      23.615   1.009  22.3890  0.00  0.00     0.000 C
ATOM     80  C2  NAG B   6      24.053   2.286  21.6530  0.00  0.00     0.000 C
ATOM     81  C3  NAG B   6      22.899   3.272  21.5760  0.00  0.00     0.000 C
ATOM     82  C4  NAG B   6      21.642   2.598  21.0180  0.00  0.00     0.000 C
ATOM     83  C5  NAG B   6      21.320   1.361  21.8480  0.00  0.00     0.000 C
ATOM     84  O5  NAG B   6      22.437   0.476  21.7570  0.00  0.00     0.000 O
BRANCH 80 87
ATOM     85   N  NAG B   6      25.235   2.800  22.3410  0.00  0.00     0.000 N
ATOM     87  HD  NAG B   6      26.079   2.742  22.5230  0.00  0.00     0.000 HD
ATOM     87   C  NAG B   6      26.303   3.309  21.7160  0.00  0.00     0.000 C
ATOM     88   C  NAG B   6      27.395   3.815  22.6050  0.00  0.00     0.000 C
ATOM     89   O  NAG B   6      26.393   3.380  20.4960  0.00  0.00     0.000 OA
ENDBRANCH 80 87
ATOM     90   O  NAG B   6      19.041   0.758  22.3870  0.00  0.00     0.000 O
ATOM     92  HD  NAG B   6      19.868   0.734  22.6430  0.00  0.00     0.000 HD
ATOM     92   O  NAG B   6      19.041   0.758  22.3870  0.00  0.00     0.000 O
ATOM     94  HD  NAG B   6      19.868   0.734  22.6430  0.00  0.00     0.000 HD
ENDBRANCH 78 81
ENDBRANCH 65 78
ENDBRANCH 64 68
ENDBRANCH 48 64
ENDBRANCH 47 50
ENDBRANCH 34 47
ENDBRANCH 33 37
ENDBRANCH 17 33
ENDBRANCH 16 19
ENDBRANCH 1 16
TORSDOF 16
ENDMDL
MODEL 19
REMARK VINA RESULT:      -4.9      8.426     15.805
ROOT
ATOM      1  C1  BDP B   1      30.086  20.232   9.3900  0.00  0.00     0.000 C
ATOM      2  C2  BDP B   1      30.469  21.692   9.2190  0.00  0.00     0.000 C
ATOM      3  C3  BDP B   1      29.421  22.470   8.4530  0.00  0.00     0.000 C
ATOM      4  C4  BDP B   1      28.082  21.753   8.3280  0.00  0.00     0.000 C
ATOM      5  C5  BDP B   1      28.230  20.293   7.9100  0.00  0.00     0.000 C
ATOM      6  O5  BDP B   1      29.557  19.794   8.1470  0.00  0.00     0.000 O
ATOM      7   O  BDP B   1      30.675  22.294  10.5010  0.00  0.00     0.000 O
ATOM      9  HD  BDP B   1      30.996  22.279  11.3050  0.00  0.00     0.000 HD
ATOM      9   O  BDP B   1      29.892  22.749   7.1240  0.00  0.00     0.000 O
ATOM     11  HD  BDP B   1      30.213  22.733   7.9280  0.00  0.00     0.000 HD
ATOM     11   O  BDP B   1      27.357  21.831   9.5620  0.00  0.00     0.000 O
ATOM     13  HD  BDP B   1      27.679  21.815  10.3660  0.00  0.00     0.000 HD
ENDROOT
BRANCH 5 13
ATOM     13   C  BDP B   1      27.917  20.218   6.4560  0.00  0.00     0.000 C
ATOM     14   O  BDP B   1      28.599  19.450   5.7460  0.00  0.00     0.000 OA
ATOM     15   O  BDP B   1      26.974  20.899   6.0010  0.00  0.00     0.000 OA
ENDBRANCH 5 13
BRANCH 1 16
ATOM     16  O3  NAG B   2      29.903  19.454  10.5710  0.00  0.00     0.000 O
BRANCH 16 19
ATOM     17  C1  NAG B   2      26.783  18.251  12.0110  0.00  0.00     0.000 C
ATOM     18  C2  NAG B   2      27.784  18.286  10.8560  0.00  0.00     0.000 C
ATOM     19  C3  NAG B   2      29.196  18.511  11.3780  0.00  0.00     0.000 C
ATOM     20  C4  NAG B   2      29.194  18.977  12.8360  0.00  0.00     0.000 C
ATOM     21  C5  NAG B   2      28.027  19.896  13.2250  0.00  0.00     0.000 C
ATOM     22  O5  NAG B   2      26.800  19.570  12.5610  0.00  0.00     0.000 O
ATOM     23   O  NAG B   2      29.204  17.823  13.6820  0.00  0.00     0.000 O
ATOM     25  HD  NAG B   2      28.646  17.374  13.1960  0.00  0.00     0.000 HD
ATOM     25   C  NAG B   2      28.371  21.362  12.9270  0.00  0.00     0.000 C
ATOM     26   O  NAG B   2      29.102  21.966  14.0030  0.00  0.00     0.000 O
ATOM     28  HD  NAG B   2      28.543  21.518  13.5170  0.00  0.00     0.000 HD
BRANCH 18 30
ATOM     28   N  NAG B   2      27.201  16.949  10.9630  0.00  0.00     0.000 N
ATOM     30  HD  NAG B   2      27.024  16.325  11.5370  0.00  0.00     0.000 HD
ATOM     30   C  NAG B   2      27.746  15.831  10.4630  0.00  0.00     0.000 C
ATOM     31   C  NAG B   2      26.947  14.580  10.6950  0.00  0.00     0.000 C
ATOM     32   O  NAG B   2      28.802  15.810   9.8740  0.00  0.00     0.000 OA
ENDBRANCH 18 30
BRANCH 17 33
ATOM     33  O4  BDP B   3      25.449  18.383  12.5490  0.00  0.00     0.000 O
BRANCH 33 37
ATOM     34  C1  BDP B   3      22.808  15.793  14.6840  0.00  0.00     0.000 C
ATOM     35  C2  BDP B   3      22.776  15.720  13.1620  0.00  0.00     0.000 C
ATOM     36  C3  BDP B   3      24.003  16.333  12.4960  0.00  0.00     0.000 C
ATOM     37  C4  BDP B   3      24.312  17.691  13.1430  0.00  0.00     0.000 C
ATOM     38  C5  BDP B   3      24.489  17.448  14.6540  0.00  0.00     0.000 C
ATOM     39  O5  BDP B   3      23.195  17.094  15.1420  0.00  0.00     0.000 O
ATOM     40   O  BDP B   3      22.615  14.338  12.8320  0.00  0.00     0.000 O
ATOM     42  HD  BDP B   3      21.795  14.551  13.0130  0.00  0.00     0.000 HD
ATOM     42   O  BDP B   3      23.694  16.463  11.1090  0.00  0.00     0.000 O
ATOM     44  HD  BDP B   3      22.874  16.676  11.2900  0.00  0.00     0.000 HD
BRANCH 38 44
ATOM     44   C  BDP B   3      25.012  18.628  15.4130  0.00  0.00     0.000 C
ATOM     45   O  BDP B   3      24.278  19.636  15.5060  0.00  0.00     0.000 OA
ATOM     46   O  BDP B   3      26.150  18.577  15.9270  0.00  0.00     0.000 OA
ENDBRANCH 38 44
BRANCH 34 47
ATOM     47  O3  NAG B   4      21.516  16.051  15.2320  0.00  0.00     0.000 O
BRANCH 47 50
ATOM     48  C1  NAG B   4      20.348  14.036  18.1860  0.00  0.00     0.000 C
ATOM     49  C2  NAG B   4      20.719  14.313  16.7400  0.00  0.00     0.000 C
ATOM     50  C3  NAG B   4      21.221  15.747  16.6110  0.00  0.00     0.000 C
ATOM     51  C4  NAG B   4      20.207  16.745  17.1450  0.00  0.00     0.000 C
ATOM     52  C5  NAG B   4      19.819  16.375  18.5770  0.00  0.00     0.000 C
ATOM     53  O5  NAG B   4      19.388  15.010  18.6410  0.00  0.00     0.000 O
ATOM     54   O  NAG B   4      20.775  18.057  17.0990  0.00  0.00     0.000 O
ATOM     56  HD  NAG B   4      19.919  18.068  17.2290  0.00  0.00     0.000 HD
ATOM     56   C  NAG B   4      18.710  17.280  19.1020  0.00  0.00     0.000 C
ATOM     57   O  NAG B   4      17.557  17.143  18.2610  0.00  0.00     0.000 O
ATOM     59  HD  NAG B   4      16.701  17.154  18.3920  0.00  0.00     0.000 HD
BRANCH 49 61
ATOM     59   N  NAG B   4      21.510  13.118  16.4460  0.00  0.00     0.000 N
ATOM     61  HD  NAG B   4      20.688  13.383  16.3870  0.00  0.00     0.000 HD
ATOM     61   O  NAG B   4      20.551  12.637  14.4590  0.00  0.00     0.000 OA
ATOM     62   C  NAG B   4      21.409  12.429  15.3030  0.00  0.00     0.000 C
ATOM     63   C  NAG B   4      22.444  11.369  15.0930  0.00  0.00     0.000 C
ENDBRANCH 49 61
BRANCH 48 64
ATOM     64  O4  BDP B   5      20.346  12.852  18.9770  0.00  0.00     0.000 O
BRANCH 64 68
ATOM     65  C1  BDP B   5      21.362  10.140  21.9750  0.00  0.00     0.000 C
ATOM     66  C2  BDP B   5      22.220  11.395  21.8920  0.00  0.00     0.000 C
ATOM     67  C3  BDP B   5      21.496  12.458  21.0760  0.00  0.00     0.000 C
ATOM     68  C4  BDP B   5      21.136  11.909  19.7000  0.00  0.00     0.000 C
ATOM     69  C5  BDP B   5      20.367  10.597  19.7880  0.00  0.00     0.000 C
ATOM     70  O5  BDP B   5      21.046   9.670  20.6550  0.00  0.00     0.000 O
ATOM     71   O  BDP B   5      22.525  11.859  23.2160  0.00  0.00     0.000 O
ATOM     73  HD  BDP B   5      22.662  12.106  24.0350  0.00  0.00     0.000 HD
ATOM     73   O  BDP B   5      22.320  13.620  20.9200  0.00  0.00     0.000 O
ATOM     75  HD  BDP B   5      22.457  13.867  21.7390  0.00  0.00     0.000 HD
BRANCH 69 75
ATOM     75   C  BDP B   5      20.270  10.011  18.4030  0.00  0.00     0.000 C
ATOM     76   O  BDP B   5      19.163  10.012  17.8280  0.00  0.00     0.000 OA
ATOM     77   O  BDP B   5      21.295   9.547  17.8700  0.00  0.00     0.000 OA
ENDBRANCH 69 75
BRANCH 65 78
ATOM     78  O3  NAG B   6      21.833   8.795  22.0950  0.00  0.00     0.000 O
BRANCH 78 81
ATOM     79  C1  NAG B   6      20.676   5.941  24.2970  0.00  0.00     0.000 C
ATOM     80  C2  NAG B   6      21.256   7.321  23.9470  0.00  0.00     0.000 C
ATOM     81  C3  NAG B   6      21.154   7.572  22.4510  0.00  0.00     0.000 C
ATOM     82  C4  NAG B   6      21.741   6.398  21.6600  0.00  0.00     0.000 C
ATOM     83  C5  NAG B   6      21.067   5.103  22.0990  0.00  0.00     0.000 C
ATOM     84  O5  NAG B   6      21.320   4.936  23.4950  0.00  0.00     0.000 O
BRANCH 80 87
ATOM     85   N  NAG B   6      20.562   8.292  24.7890  0.00  0.00     0.000 N
ATOM     87  HD  NAG B   6      20.444   8.661  25.5640  0.00  0.00     0.000 HD
ATOM     87   C  NAG B   6      21.155   9.349  25.3570  0.00  0.00     0.000 C
ATOM     88   C  NAG B   6      20.261  10.243  26.1550  0.00  0.00     0.000 C
ATOM     89   O  NAG B   6      22.349   9.594  25.2310  0.00  0.00     0.000 OA
ENDBRANCH 80 87
ATOM     90   O  NAG B   6      20.515   3.364  20.5130  0.00  0.00     0.000 O
ATOM     92  HD  NAG B   6      20.300   3.748  21.2580  0.00  0.00     0.000 HD
ATOM     92   O  NAG B   6      20.515   3.364  20.5130  0.00  0.00     0.000 O
ATOM     94  HD  NAG B   6      20.300   3.748  21.2580  0.00  0.00     0.000 HD
ENDBRANCH 78 81
ENDBRANCH 65 78
ENDBRANCH 64 68
ENDBRANCH 48 64
ENDBRANCH 47 50
ENDBRANCH 34 47
ENDBRANCH 33 37
ENDBRANCH 17 33
ENDBRANCH 16 19
ENDBRANCH 1 16
TORSDOF 16
ENDMDL
MODEL 20
REMARK VINA RESULT:      -4.7     12.930     18.606
ROOT
ATOM      1  C1  BDP B   1       9.133  30.102  16.1670  0.00  0.00     0.000 C
ATOM      2  C2  BDP B   1       9.723  30.522  17.5020  0.00  0.00     0.000 C
ATOM      3  C3  BDP B   1       9.090  29.783  18.6620  0.00  0.00     0.000 C
ATOM      4  C4  BDP B   1       8.282  28.557  18.2510  0.00  0.00     0.000 C
ATOM      5  C5  BDP B   1       7.346  28.833  17.0790  0.00  0.00     0.000 C
ATOM      6  O5  BDP B   1       7.728  30.009  16.3450  0.00  0.00     0.000 O
ATOM      7   O  BDP B   1      11.137  30.297  17.5020  0.00  0.00     0.000 O
ATOM      9  HD  BDP B   1      11.912  30.338  17.1190  0.00  0.00     0.000 HD
ATOM      9   O  BDP B   1       8.213  30.662  19.3830  0.00  0.00     0.000 O
ATOM     11  HD  BDP B   1       8.988  30.703  19.0000  0.00  0.00     0.000 HD
ATOM     11   O  BDP B   1       9.156  27.469  17.9270  0.00  0.00     0.000 O
ATOM     13  HD  BDP B   1       9.931  27.509  17.5440  0.00  0.00     0.000 HD
ENDROOT
BRANCH 5 13
ATOM     13   C  BDP B   1       5.979  29.013  17.6400  0.00  0.00     0.000 C
ATOM     14   O  BDP B   1       5.721  30.080  18.2330  0.00  0.00     0.000 OA
ATOM     15   O  BDP B   1       5.131  28.109  17.4770  0.00  0.00     0.000 OA
ENDBRANCH 5 13
BRANCH 1 16
ATOM     16  O3  NAG B   2       9.757  29.543  15.0130  0.00  0.00     0.000 O
BRANCH 16 19
ATOM     17  C1  NAG B   2      10.763  26.237  13.8660  0.00  0.00     0.000 C
ATOM     18  C2  NAG B   2       9.725  27.160  14.5050  0.00  0.00     0.000 C
ATOM     19  C3  NAG B   2       9.865  28.576  13.9670  0.00  0.00     0.000 C
ATOM     20  C4  NAG B   2      11.187  28.771  13.2180  0.00  0.00     0.000 C
ATOM     21  C5  NAG B   2      12.381  27.998  13.7940  0.00  0.00     0.000 C
ATOM     22  O5  NAG B   2      12.027  26.717  14.3280  0.00  0.00     0.000 O
ATOM     23   O  NAG B   2      10.990  28.408  11.8480  0.00  0.00     0.000 O
ATOM     25  HD  NAG B   2      10.499  27.718  12.0270  0.00  0.00     0.000 HD
ATOM     25   C  NAG B   2      13.073  28.814  14.8960  0.00  0.00     0.000 C
ATOM     26   O  NAG B   2      14.031  29.734  14.3540  0.00  0.00     0.000 O
ATOM     28  HD  NAG B   2      13.540  29.044  14.5340  0.00  0.00     0.000 HD
BRANCH 18 30
ATOM     28   N  NAG B   2       9.114  26.290  13.5010  0.00  0.00     0.000 N
ATOM     30  HD  NAG B   2       9.079  26.151  12.6470  0.00  0.00     0.000 HD
ATOM     30   C  NAG B   2       7.810  26.277  13.1880  0.00  0.00     0.000 C
ATOM     31   C  NAG B   2       7.425  25.283  12.1290  0.00  0.00     0.000 C
ATOM     32   O  NAG B   2       6.994  27.005  13.7020  0.00  0.00     0.000 OA
ENDBRANCH 18 30
BRANCH 17 33
ATOM     33  O4  BDP B   3      11.574  25.042  13.8540  0.00  0.00     0.000 O
BRANCH 33 37
ATOM     34  C1  BDP B   3      13.469  22.710  16.8890  0.00  0.00     0.000 C
ATOM     35  C2  BDP B   3      14.299  23.062  15.6610  0.00  0.00     0.000 C
ATOM     36  C3  BDP B   3      13.726  24.216  14.8460  0.00  0.00     0.000 C
ATOM     37  C4  BDP B   3      12.215  24.008  14.6570  0.00  0.00     0.000 C
ATOM     38  C5  BDP B   3      11.592  23.875  16.0600  0.00  0.00     0.000 C
ATOM     39  O5  BDP B   3      12.072  22.635  16.5790  0.00  0.00     0.000 O
ATOM     40   O  BDP B   3      15.618  23.338  16.1360  0.00  0.00     0.000 O
ATOM     42  HD  BDP B   3      15.639  22.473  16.1170  0.00  0.00     0.000 HD
ATOM     42   O  BDP B   3      14.421  24.224  13.6010  0.00  0.00     0.000 O
ATOM     44  HD  BDP B   3      14.441  23.358  13.5820  0.00  0.00     0.000 HD
BRANCH 38 44
ATOM     44   C  BDP B   3      10.096  23.886  16.0760  0.00  0.00     0.000 C
ATOM     45   O  BDP B   3       9.496  23.116  15.2930  0.00  0.00     0.000 OA
ATOM     46   O  BDP B   3       9.491  24.653  16.8570  0.00  0.00     0.000 OA
ENDBRANCH 38 44
BRANCH 34 47
ATOM     47  O3  NAG B   4      13.430  21.303  17.1220  0.00  0.00     0.000 O
BRANCH 47 50
ATOM     48  C1  NAG B   4      14.482  19.529  20.2670  0.00  0.00     0.000 C
ATOM     49  C2  NAG B   4      14.640  20.141  18.8860  0.00  0.00     0.000 C
ATOM     50  C3  NAG B   4      13.321  20.774  18.4590  0.00  0.00     0.000 C
ATOM     51  C4  NAG B   4      12.175  19.776  18.5190  0.00  0.00     0.000 C
ATOM     52  C5  NAG B   4      12.110  19.143  19.9090  0.00  0.00     0.000 C
ATOM     53  O5  NAG B   4      13.385  18.595  20.2680  0.00  0.00     0.000 O
ATOM     54   O  NAG B   4      10.952  20.452  18.2140  0.00  0.00     0.000 O
ATOM     56  HD  NAG B   4      10.873  19.590  18.1880  0.00  0.00     0.000 HD
ATOM     56   C  NAG B   4      11.053  18.046  19.9680  0.00  0.00     0.000 C
ATOM     57   O  NAG B   4      11.380  17.029  19.0130  0.00  0.00     0.000 O
ATOM     59  HD  NAG B   4      11.301  16.167  18.9860  0.00  0.00     0.000 HD
BRANCH 49 61
ATOM     59   N  NAG B   4      15.893  20.874  19.0650  0.00  0.00     0.000 N
ATOM     61  HD  NAG B   4      15.630  20.092  18.8020  0.00  0.00     0.000 HD
ATOM     61   O  NAG B   4      16.885  20.186  17.1560  0.00  0.00     0.000 OA
ATOM     62   C  NAG B   4      16.873  20.892  18.1540  0.00  0.00     0.000 C
ATOM     63   C  NAG B   4      17.981  21.864  18.4140  0.00  0.00     0.000 C
ENDBRANCH 49 61
BRANCH 48 64
ATOM     64  O4  BDP B   5      15.393  19.307  21.3390  0.00  0.00     0.000 O
BRANCH 64 68
ATOM     65  C1  BDP B   5      17.567  17.624  24.4720  0.00  0.00     0.000 C
ATOM     66  C2  BDP B   5      18.361  17.969  23.2190  0.00  0.00     0.000 C
ATOM     67  C3  BDP B   5      17.564  18.941  22.3590  0.00  0.00     0.000 C
ATOM     68  C4  BDP B   5      16.194  18.353  22.0350  0.00  0.00     0.000 C
ATOM     69  C5  BDP B   5      15.448  17.913  23.2880  0.00  0.00     0.000 C
ATOM     70  O5  BDP B   5      16.286  17.084  24.1120  0.00  0.00     0.000 O
ATOM     71   O  BDP B   5      19.636  18.514  23.5920  0.00  0.00     0.000 O
ATOM     73  HD  BDP B   5      20.382  18.854  23.8700  0.00  0.00     0.000 HD
ATOM     73   O  BDP B   5      18.259  19.218  21.1370  0.00  0.00     0.000 O
ATOM     75  HD  BDP B   5      19.005  19.558  21.4160  0.00  0.00     0.000 HD
BRANCH 69 75
ATOM     75   C  BDP B   5      14.230  17.133  22.8630  0.00  0.00     0.000 C
ATOM     76   O  BDP B   5      14.383  16.124  22.1450  0.00  0.00     0.000 OA
ATOM     77   O  BDP B   5      13.107  17.512  23.2440  0.00  0.00     0.000 OA
ENDBRANCH 69 75
BRANCH 65 78
ATOM     78  O3  NAG B   6      17.626  16.397  25.2040  0.00  0.00     0.000 O
BRANCH 78 81
ATOM     79  C1  NAG B   6      17.866  15.625  28.9020  0.00  0.00     0.000 C
ATOM     80  C2  NAG B   6      18.313  16.149  27.5280  0.00  0.00     0.000 C
ATOM     81  C3  NAG B   6      17.171  16.051  26.5300  0.00  0.00     0.000 C
ATOM     82  C4  NAG B   6      16.570  14.641  26.5250  0.00  0.00     0.000 C
ATOM     83  C5  NAG B   6      16.162  14.260  27.9440  0.00  0.00     0.000 C
ATOM     84  O5  NAG B   6      17.336  14.295  28.7560  0.00  0.00     0.000 O
BRANCH 80 87
ATOM     85   N  NAG B   6      18.842  17.492  27.7520  0.00  0.00     0.000 N
ATOM     87  HD  NAG B   6      19.478  18.009  28.0310  0.00  0.00     0.000 HD
ATOM     87   C  NAG B   6      19.908  17.992  27.1160  0.00  0.00     0.000 C
ATOM     88   C  NAG B   6      20.268  19.402  27.4620  0.00  0.00     0.000 C
ATOM     89   O  NAG B   6      20.552  17.357  26.2890  0.00  0.00     0.000 OA
ENDBRANCH 80 87
ATOM     90   O  NAG B   6      14.138  13.013  28.3850  0.00  0.00     0.000 O
ATOM     92  HD  NAG B   6      14.697  13.601  28.6870  0.00  0.00     0.000 HD
ATOM     92   O  NAG B   6      14.138  13.013  28.3850  0.00  0.00     0.000 O
ATOM     94  HD  NAG B   6      14.697  13.601  28.6870  0.00  0.00     0.000 HD
ENDBRANCH 78 81
ENDBRANCH 65 78
ENDBRANCH 64 68
ENDBRANCH 48 64
ENDBRANCH 47 50
ENDBRANCH 34 47
ENDBRANCH 33 37
ENDBRANCH 17 33
ENDBRANCH 16 19
ENDBRANCH 1 16
TORSDOF 16
ENDMDL
MODEL 21
REMARK VINA RESULT:      -4.6     16.628     26.011
ROOT
ATOM      1  C1  BDP B   1      16.934   3.005  43.8070  0.00  0.00     0.000 C
ATOM      2  C2  BDP B   1      16.744   1.748  42.9760  0.00  0.00     0.000 C
ATOM      3  C3  BDP B   1      17.874   1.541  41.9900  0.00  0.00     0.000 C
ATOM      4  C4  BDP B   1      19.105   2.398  42.2670  0.00  0.00     0.000 C
ATOM      5  C5  BDP B   1      18.758   3.856  42.5480  0.00  0.00     0.000 C
ATOM      6  O5  BDP B   1      17.380   4.023  42.9240  0.00  0.00     0.000 O
ATOM      7   O  BDP B   1      16.641   0.608  43.8350  0.00  0.00     0.000 O
ATOM      9  HD  BDP B   1      16.332   0.215  44.5430  0.00  0.00     0.000 HD
ATOM      9   O  BDP B   1      17.424   1.841  40.6600  0.00  0.00     0.000 O
ATOM     11  HD  BDP B   1      17.116   1.449  41.3680  0.00  0.00     0.000 HD
ATOM     11   O  BDP B   1      19.853   1.858  43.3640  0.00  0.00     0.000 O
ATOM     13  HD  BDP B   1      19.544   1.466  44.0710  0.00  0.00     0.000 HD
ENDROOT
BRANCH 5 13
ATOM     13   C  BDP B   1      19.035   4.624  41.3030  0.00  0.00     0.000 C
ATOM     14   O  BDP B   1      18.757   5.841  41.2870  0.00  0.00     0.000 OA
ATOM     15   O  BDP B   1      19.557   4.037  40.3310  0.00  0.00     0.000 OA
ENDBRANCH 5 13
BRANCH 1 16
ATOM     16  O3  NAG B   2      17.030   3.176  45.2200  0.00  0.00     0.000 O
BRANCH 16 19
ATOM     17  C1  NAG B   2      14.328   3.698  47.6040  0.00  0.00     0.000 C
ATOM     18  C2  NAG B   2      15.020   2.830  46.5530  0.00  0.00     0.000 C
ATOM     19  C3  NAG B   2      16.520   3.085  46.5510  0.00  0.00     0.000 C
ATOM     20  C4  NAG B   2      16.881   4.353  47.3300  0.00  0.00     0.000 C
ATOM     21  C5  NAG B   2      15.862   5.496  47.2230  0.00  0.00     0.000 C
ATOM     22  O5  NAG B   2      14.504   5.043  47.1530  0.00  0.00     0.000 O
ATOM     23   O  NAG B   2      17.073   4.003  48.7050  0.00  0.00     0.000 O
ATOM     25  HD  NAG B   2      16.404   3.453  48.7310  0.00  0.00     0.000 HD
ATOM     25   C  NAG B   2      16.152   6.365  45.9910  0.00  0.00     0.000 C
ATOM     26   O  NAG B   2      17.134   7.373  46.2720  0.00  0.00     0.000 O
ATOM     28  HD  NAG B   2      16.465   6.824  46.2980  0.00  0.00     0.000 HD
BRANCH 18 30
ATOM     28   N  NAG B   2      15.371   1.937  47.6570  0.00  0.00     0.000 N
ATOM     30  HD  NAG B   2      16.017   1.446  47.9600  0.00  0.00     0.000 HD
ATOM     30   C  NAG B   2      14.839   0.723  47.8610  0.00  0.00     0.000 C
ATOM     31   C  NAG B   2      15.357   0.003  49.0740  0.00  0.00     0.000 C
ATOM     32   O  NAG B   2      14.011   0.227  47.1330  0.00  0.00     0.000 OA
ENDBRANCH 18 30
BRANCH 17 33
ATOM     33  O4  BDP B   3      13.167   4.364  48.1460  0.00  0.00     0.000 O
BRANCH 33 37
ATOM     34  C1  BDP B   3       9.894   4.675  50.8730  0.00  0.00     0.000 C
ATOM     35  C2  BDP B   3      10.766   3.429  50.9700  0.00  0.00     0.000 C
ATOM     36  C3  BDP B   3      12.121   3.577  50.2870  0.00  0.00     0.000 C
ATOM     37  C4  BDP B   3      11.930   4.213  48.9020  0.00  0.00     0.000 C
ATOM     38  C5  BDP B   3      11.196   5.552  49.1110  0.00  0.00     0.000 C
ATOM     39  O5  BDP B   3       9.880   5.207  49.5430  0.00  0.00     0.000 O
ATOM     40   O  BDP B   3      10.892   3.138  52.3640  0.00  0.00     0.000 O
ATOM     42  HD  BDP B   3      10.114   2.793  52.2030  0.00  0.00     0.000 HD
ATOM     42   O  BDP B   3      12.680   2.268  50.1980  0.00  0.00     0.000 O
ATOM     44  HD  BDP B   3      11.902   1.923  50.0370  0.00  0.00     0.000 HD
BRANCH 38 44
ATOM     44   C  BDP B   3      11.119   6.413  47.8890  0.00  0.00     0.000 C
ATOM     45   O  BDP B   3      10.482   5.977  46.9050  0.00  0.00     0.000 OA
ATOM     46   O  BDP B   3      11.686   7.528  47.8810  0.00  0.00     0.000 OA
ENDBRANCH 38 44
BRANCH 34 47
ATOM     47  O3  NAG B   4       8.517   4.350  50.6920  0.00  0.00     0.000 O
BRANCH 47 50
ATOM     48  C1  NAG B   4       5.969   5.134  53.3450  0.00  0.00     0.000 C
ATOM     49  C2  NAG B   4       7.105   4.382  52.6750  0.00  0.00     0.000 C
ATOM     50  C3  NAG B   4       7.484   5.087  51.3780  0.00  0.00     0.000 C
ATOM     51  C4  NAG B   4       6.284   5.253  50.4600  0.00  0.00     0.000 C
ATOM     52  C5  NAG B   4       5.150   5.952  51.2090  0.00  0.00     0.000 C
ATOM     53  O5  NAG B   4       4.861   5.265  52.4330  0.00  0.00     0.000 O
ATOM     54   O  NAG B   4       6.676   6.013  49.3140  0.00  0.00     0.000 O
ATOM     56  HD  NAG B   4       5.911   5.621  49.2080  0.00  0.00     0.000 HD
ATOM     56   C  NAG B   4       3.886   6.024  50.3600  0.00  0.00     0.000 C
ATOM     57   O  NAG B   4       3.469   4.693  50.0290  0.00  0.00     0.000 O
ATOM     59  HD  NAG B   4       2.704   4.301  49.9240  0.00  0.00     0.000 HD
BRANCH 49 61
ATOM     59   N  NAG B   4       6.516   3.068  52.9370  0.00  0.00     0.000 N
ATOM     61  HD  NAG B   4       7.212   3.402  52.5450  0.00  0.00     0.000 HD
ATOM     61   O  NAG B   4       8.439   2.008  53.4660  0.00  0.00     0.000 OA
ATOM     62   C  NAG B   4       7.220   2.019  53.3780  0.00  0.00     0.000 C
ATOM     63   C  NAG B   4       6.415   0.828  53.7920  0.00  0.00     0.000 C
ENDBRANCH 49 61
BRANCH 48 64
ATOM     64  O4  BDP B   5       5.581   5.294  54.7070  0.00  0.00     0.000 O
BRANCH 64 68
ATOM     65  C1  BDP B   5       3.628   5.327  58.3880  0.00  0.00     0.000 C
ATOM     66  C2  BDP B   5       3.314   4.147  57.4770  0.00  0.00     0.000 C
ATOM     67  C3  BDP B   5       4.384   4.034  56.3990  0.00  0.00     0.000 C
ATOM     68  C4  BDP B   5       4.496   5.347  55.6320  0.00  0.00     0.000 C
ATOM     69  C5  BDP B   5       4.705   6.538  56.5580  0.00  0.00     0.000 C
ATOM     70  O5  BDP B   5       3.730   6.533  57.6160  0.00  0.00     0.000 O
ATOM     71   O  BDP B   5       3.220   2.946  58.2590  0.00  0.00     0.000 O
ATOM     73  HD  BDP B   5       3.194   2.250  58.7740  0.00  0.00     0.000 HD
ATOM     73   O  BDP B   5       4.067   2.978  55.4850  0.00  0.00     0.000 O
ATOM     75  HD  BDP B   5       4.041   2.282  55.9990  0.00  0.00     0.000 HD
BRANCH 69 75
ATOM     75   C  BDP B   5       4.560   7.800  55.7460  0.00  0.00     0.000 C
ATOM     76   O  BDP B   5       5.551   8.548  55.6180  0.00  0.00     0.000 OA
ATOM     77   O  BDP B   5       3.460   8.059  55.2240  0.00  0.00     0.000 OA
ENDBRANCH 69 75
BRANCH 65 78
ATOM     78  O3  NAG B   6       2.678   6.129  59.0950  0.00  0.00     0.000 O
BRANCH 78 81
ATOM     79  C1  NAG B   6       2.368   7.267  62.6930  0.00  0.00     0.000 C
ATOM     80  C2  NAG B   6       2.366   6.290  61.5070  0.00  0.00     0.000 C
ATOM     81  C3  NAG B   6       2.823   6.996  60.2410  0.00  0.00     0.000 C
ATOM     82  C4  NAG B   6       2.031   8.289  60.0210  0.00  0.00     0.000 C
ATOM     83  C5  NAG B   6       2.132   9.163  61.2660  0.00  0.00     0.000 C
ATOM     84  O5  NAG B   6       1.582   8.425  62.3580  0.00  0.00     0.000 O
BRANCH 80 87
ATOM     85   N  NAG B   6       3.168   5.143  61.9220  0.00  0.00     0.000 N
ATOM     87  HD  NAG B   6       3.248   4.411  62.3790  0.00  0.00     0.000 HD
ATOM     87   C  NAG B   6       2.884   3.874  61.6020  0.00  0.00     0.000 C
ATOM     88   C  NAG B   6       3.852   2.847  62.0980  0.00  0.00     0.000 C
ATOM     89   O  NAG B   6       1.907   3.556  60.9350  0.00  0.00     0.000 OA
ENDBRANCH 80 87
ATOM     90   O  NAG B   6       2.346  11.567  61.1110  0.00  0.00     0.000 O
ATOM     92  HD  NAG B   6       2.536  10.859  61.5720  0.00  0.00     0.000 HD
ATOM     92   O  NAG B   6       2.346  11.567  61.1110  0.00  0.00     0.000 O
ATOM     94  HD  NAG B   6       2.536  10.859  61.5720  0.00  0.00     0.000 HD
ENDBRANCH 78 81
ENDBRANCH 65 78
ENDBRANCH 64 68
ENDBRANCH 48 64
ENDBRANCH 47 50
ENDBRANCH 34 47
ENDBRANCH 33 37
ENDBRANCH 17 33
ENDBRANCH 16 19
ENDBRANCH 1 16
TORSDOF 16
ENDMDL
MODEL 22
REMARK VINA RESULT:      -4.5      8.418     16.137
ROOT
ATOM      1  C1  BDP B   1      28.913  21.685   9.3010  0.00  0.00     0.000 C
ATOM      2  C2  BDP B   1      30.154  22.330   8.7110  0.00  0.00     0.000 C
ATOM      3  C3  BDP B   1      30.734  23.390   9.6230  0.00  0.00     0.000 C
ATOM      4  C4  BDP B   1      30.196  23.345  11.0490  0.00  0.00     0.000 C
ATOM      5  C5  BDP B   1      28.677  23.214  11.1020  0.00  0.00     0.000 C
ATOM      6  O5  BDP B   1      28.131  22.728   9.8640  0.00  0.00     0.000 O
ATOM      7   O  BDP B   1      31.143  21.330   8.4450  0.00  0.00     0.000 O
ATOM      9  HD  BDP B   1      31.375  20.552   8.1440  0.00  0.00     0.000 HD
ATOM      9   O  BDP B   1      30.458  24.697   9.0940  0.00  0.00     0.000 O
ATOM     11  HD  BDP B   1      30.690  23.918   8.7930  0.00  0.00     0.000 HD
ATOM     11   O  BDP B   1      30.800  22.269  11.7770  0.00  0.00     0.000 O
ATOM     13  HD  BDP B   1      31.031  21.491  11.4760  0.00  0.00     0.000 HD
ENDROOT
BRANCH 5 13
ATOM     13   C  BDP B   1      28.128  24.566  11.3960  0.00  0.00     0.000 C
ATOM     14   O  BDP B   1      28.798  25.330  12.1220  0.00  0.00     0.000 OA
ATOM     15   O  BDP B   1      27.035  24.902  10.8910  0.00  0.00     0.000 OA
ENDBRANCH 5 13
BRANCH 1 16
ATOM     16  O3  NAG B   2      28.637  20.321   9.6150  0.00  0.00     0.000 O
BRANCH 16 19
ATOM     17  C1  NAG B   2      25.504  18.902  10.8080  0.00  0.00     0.000 C
ATOM     18  C2  NAG B   2      26.304  19.627   9.7260  0.00  0.00     0.000 C
ATOM     19  C3  NAG B   2      27.764  19.200   9.7630  0.00  0.00     0.000 C
ATOM     20  C4  NAG B   2      28.103  18.449  11.0530  0.00  0.00     0.000 C
ATOM     21  C5  NAG B   2      27.369  18.943  12.3070  0.00  0.00     0.000 C
ATOM     22  O5  NAG B   2      26.029  19.381  12.0470  0.00  0.00     0.000 O
ATOM     23   O  NAG B   2      27.835  17.057  10.8520  0.00  0.00     0.000 O
ATOM     25  HD  NAG B   2      27.102  17.190  10.4110  0.00  0.00     0.000 HD
ATOM     25   C  NAG B   2      28.141  20.095  12.9670  0.00  0.00     0.000 C
ATOM     26   O  NAG B   2      29.161  19.611  13.8520  0.00  0.00     0.000 O
ATOM     28  HD  NAG B   2      28.428  19.744  13.4100  0.00  0.00     0.000 HD
BRANCH 18 30
ATOM     28   N  NAG B   2      26.311  18.491   8.8050  0.00  0.00     0.000 N
ATOM     30  HD  NAG B   2      26.749  18.154   8.1390  0.00  0.00     0.000 HD
ATOM     30   C  NAG B   2      25.400  18.275   7.8450  0.00  0.00     0.000 C
ATOM     31   C  NAG B   2      25.619  17.029   7.0350  0.00  0.00     0.000 C
ATOM     32   O  NAG B   2      24.472  19.019   7.6280  0.00  0.00     0.000 OA
ENDBRANCH 18 30
BRANCH 17 33
ATOM     33  O4  BDP B   3      24.370  18.783  11.6940  0.00  0.00     0.000 O
BRANCH 33 37
ATOM     34  C1  BDP B   3      22.895  16.291  14.8330  0.00  0.00     0.000 C
ATOM     35  C2  BDP B   3      23.232  15.617  13.5080  0.00  0.00     0.000 C
ATOM     36  C3  BDP B   3      24.127  16.458  12.6060  0.00  0.00     0.000 C
ATOM     37  C4  BDP B   3      23.603  17.902  12.5650  0.00  0.00     0.000 C
ATOM     38  C5  BDP B   3      23.544  18.408  14.0190  0.00  0.00     0.000 C
ATOM     39  O5  BDP B   3      22.506  17.657  14.6470  0.00  0.00     0.000 O
ATOM     40   O  BDP B   3      23.825  14.360  13.8390  0.00  0.00     0.000 O
ATOM     42  HD  BDP B   3      22.986  14.163  13.9260  0.00  0.00     0.000 HD
ATOM     42   O  BDP B   3      24.100  15.847  11.3170  0.00  0.00     0.000 O
ATOM     44  HD  BDP B   3      23.261  15.650  11.4040  0.00  0.00     0.000 HD
BRANCH 38 44
ATOM     44   C  BDP B   3      23.262  19.873  14.1530  0.00  0.00     0.000 C
ATOM     45   O  BDP B   3      24.188  20.612  14.5540  0.00  0.00     0.000 OA
ATOM     46   O  BDP B   3      22.128  20.313  13.8670  0.00  0.00     0.000 OA
ENDBRANCH 38 44
BRANCH 34 47
ATOM     47  O3  NAG B   4      21.554  16.028  15.2410  0.00  0.00     0.000 O
BRANCH 47 50
ATOM     48  C1  NAG B   4      20.346  14.034  18.1930  0.00  0.00     0.000 C
ATOM     49  C2  NAG B   4      20.737  14.301  16.7500  0.00  0.00     0.000 C
ATOM     50  C3  NAG B   4      21.240  15.733  16.6180  0.00  0.00     0.000 C
ATOM     51  C4  NAG B   4      20.219  16.735  17.1310  0.00  0.00     0.000 C
ATOM     52  C5  NAG B   4      19.812  16.376  18.5600  0.00  0.00     0.000 C
ATOM     53  O5  NAG B   4      19.380  15.011  18.6290  0.00  0.00     0.000 O
ATOM     54   O  NAG B   4      20.787  18.046  17.0820  0.00  0.00     0.000 O
ATOM     56  HD  NAG B   4      19.929  18.059  17.2010  0.00  0.00     0.000 HD
ATOM     56   C  NAG B   4      18.697  17.285  19.0640  0.00  0.00     0.000 C
ATOM     57   O  NAG B   4      17.555  17.141  18.2090  0.00  0.00     0.000 O
ATOM     59  HD  NAG B   4      16.697  17.153  18.3280  0.00  0.00     0.000 HD
BRANCH 49 61
ATOM     59   N  NAG B   4      21.530  13.101  16.4770  0.00  0.00     0.000 N
ATOM     61  HD  NAG B   4      20.709  13.368  16.4040  0.00  0.00     0.000 HD
ATOM     61   O  NAG B   4      20.598  12.608  14.4790  0.00  0.00     0.000 OA
ATOM     62   C  NAG B   4      21.444  12.404  15.3380  0.00  0.00     0.000 C
ATOM     63   C  NAG B   4      22.480  11.341  15.1510  0.00  0.00     0.000 C
ENDBRANCH 49 61
BRANCH 48 64
ATOM     64  O4  BDP B   5      20.334  12.856  18.9930  0.00  0.00     0.000 O
BRANCH 64 68
ATOM     65  C1  BDP B   5      21.251  10.064  21.9480  0.00  0.00     0.000 C
ATOM     66  C2  BDP B   5      22.043  11.364  21.9900  0.00  0.00     0.000 C
ATOM     67  C3  BDP B   5      21.330  12.425  21.1620  0.00  0.00     0.000 C
ATOM     68  C4  BDP B   5      21.114  11.922  19.7390  0.00  0.00     0.000 C
ATOM     69  C5  BDP B   5      20.414  10.570  19.7080  0.00  0.00     0.000 C
ATOM     70  O5  BDP B   5      21.070   9.640  20.5880  0.00  0.00     0.000 O
ATOM     71   O  BDP B   5      22.213  11.780  23.3540  0.00  0.00     0.000 O
ATOM     73  HD  BDP B   5      22.270  11.996  24.1910  0.00  0.00     0.000 HD
ATOM     73   O  BDP B   5      22.098  13.634  21.1250  0.00  0.00     0.000 O
ATOM     75  HD  BDP B   5      22.154  13.849  21.9620  0.00  0.00     0.000 HD
BRANCH 69 75
ATOM     75   C  BDP B   5      20.462  10.045  18.2950  0.00  0.00     0.000 C
ATOM     76   O  BDP B   5      21.344   9.216  17.9930  0.00  0.00     0.000 OA
ATOM     77   O  BDP B   5      19.619  10.449  17.4730  0.00  0.00     0.000 OA
ENDBRANCH 69 75
BRANCH 65 78
ATOM     78  O3  NAG B   6      21.785   8.741  22.0500  0.00  0.00     0.000 O
BRANCH 78 81
ATOM     79  C1  NAG B   6      20.783   5.816  24.2350  0.00  0.00     0.000 C
ATOM     80  C2  NAG B   6      21.295   7.224  23.8930  0.00  0.00     0.000 C
ATOM     81  C3  NAG B   6      21.167   7.484  22.4010  0.00  0.00     0.000 C
ATOM     82  C4  NAG B   6      21.798   6.346  21.5920  0.00  0.00     0.000 C
ATOM     83  C5  NAG B   6      21.189   5.018  22.0250  0.00  0.00     0.000 C
ATOM     84  O5  NAG B   6      21.464   4.848  23.4160  0.00  0.00     0.000 O
BRANCH 80 87
ATOM     85   N  NAG B   6      20.557   8.183  24.7090  0.00  0.00     0.000 N
ATOM     87  HD  NAG B   6      20.395   8.541  25.4810  0.00  0.00     0.000 HD
ATOM     87   C  NAG B   6      21.118   9.231  25.3250  0.00  0.00     0.000 C
ATOM     88   C  NAG B   6      20.180  10.115  26.0840  0.00  0.00     0.000 C
ATOM     89   O  NAG B   6      22.317   9.476  25.2700  0.00  0.00     0.000 OA
ENDBRANCH 80 87
ATOM     90   O  NAG B   6      20.700   3.270  20.4260  0.00  0.00     0.000 O
ATOM     92  HD  NAG B   6      20.476   3.637  21.1780  0.00  0.00     0.000 HD
ATOM     92   O  NAG B   6      20.700   3.270  20.4260  0.00  0.00     0.000 O
ATOM     94  HD  NAG B   6      20.476   3.637  21.1780  0.00  0.00     0.000 HD
ENDBRANCH 78 81
ENDBRANCH 65 78
ENDBRANCH 64 68
ENDBRANCH 48 64
ENDBRANCH 47 50
ENDBRANCH 34 47
ENDBRANCH 33 37
ENDBRANCH 17 33
ENDBRANCH 16 19
ENDBRANCH 1 16
TORSDOF 16
ENDMDL
MODEL 23
REMARK VINA RESULT:      -4.4      6.560     13.173
ROOT
ATOM      1  C1  BDP B   1      24.123  16.478  40.8890  0.00  0.00     0.000 C
ATOM      2  C2  BDP B   1      24.541  16.091  42.2960  0.00  0.00     0.000 C
ATOM      3  C3  BDP B   1      23.351  15.895  43.2110  0.00  0.00     0.000 C
ATOM      4  C4  BDP B   1      22.019  15.772  42.4800  0.00  0.00     0.000 C
ATOM      5  C5  BDP B   1      21.834  16.841  41.4060  0.00  0.00     0.000 C
ATOM      6  O5  BDP B   1      23.083  17.436  41.0140  0.00  0.00     0.000 O
ATOM      7   O  BDP B   1      25.322  14.891  42.2590  0.00  0.00     0.000 O
ATOM      9  HD  BDP B   1      25.947  14.402  41.9130  0.00  0.00     0.000 HD
ATOM      9   O  BDP B   1      23.248  16.999  44.1240  0.00  0.00     0.000 O
ATOM     11  HD  BDP B   1      23.873  16.510  43.7770  0.00  0.00     0.000 HD
ATOM     11   O  BDP B   1      21.888  14.471  41.8940  0.00  0.00     0.000 O
ATOM     13  HD  BDP B   1      22.513  13.982  41.5480  0.00  0.00     0.000 HD
ENDROOT
BRANCH 5 13
ATOM     13   C  BDP B   1      20.937  17.884  41.9730  0.00  0.00     0.000 C
ATOM     14   O  BDP B   1      20.067  18.382  41.2270  0.00  0.00     0.000 OA
ATOM     15   O  BDP B   1      21.062  18.208  43.1730  0.00  0.00     0.000 OA
ENDBRANCH 5 13
BRANCH 1 16
ATOM     16  O3  NAG B   2      24.375  15.840  39.6380  0.00  0.00     0.000 O
BRANCH 16 19
ATOM     17  C1  NAG B   2      22.082  13.935  37.5480  0.00  0.00     0.000 C
ATOM     18  C2  NAG B   2      22.469  15.241  38.2440  0.00  0.00     0.000 C
ATOM     19  C3  NAG B   2      23.982  15.361  38.3510  0.00  0.00     0.000 C
ATOM     20  C4  NAG B   2      24.680  14.029  38.0600  0.00  0.00     0.000 C
ATOM     21  C5  NAG B   2      23.928  12.781  38.5420  0.00  0.00     0.000 C
ATOM     22  O5  NAG B   2      22.504  12.898  38.4360  0.00  0.00     0.000 O
ATOM     23   O  NAG B   2      24.917  13.939  36.6510  0.00  0.00     0.000 O
ATOM     25  HD  NAG B   2      24.150  14.274  36.4300  0.00  0.00     0.000 HD
ATOM     25   C  NAG B   2      24.286  12.464  40.0010  0.00  0.00     0.000 C
ATOM     26   O  NAG B   2      25.484  11.681  40.0960  0.00  0.00     0.000 O
ATOM     28  HD  NAG B   2      24.718  12.017  39.8740  0.00  0.00     0.000 HD
BRANCH 18 30
ATOM     28   N  NAG B   2      21.676  16.232  37.5180  0.00  0.00     0.000 N
ATOM     30  HD  NAG B   2      20.910  16.342  37.1290  0.00  0.00     0.000 HD
ATOM     30   C  NAG B   2      21.956  16.688  36.2890  0.00  0.00     0.000 C
ATOM     31   C  NAG B   2      20.994  17.714  35.7610  0.00  0.00     0.000 C
ATOM     32   O  NAG B   2      22.901  16.310  35.6370  0.00  0.00     0.000 OA
ENDBRANCH 18 30
BRANCH 17 33
ATOM     33  O4  BDP B   3      21.148  12.873  37.2540  0.00  0.00     0.000 O
BRANCH 33 37
ATOM     34  C1  BDP B   3      18.324  10.808  34.8050  0.00  0.00     0.000 C
ATOM     35  C2  BDP B   3      19.463   9.987  35.3990  0.00  0.00     0.000 C
ATOM     36  C3  BDP B   3      20.162  10.670  36.5690  0.00  0.00     0.000 C
ATOM     37  C4  BDP B   3      20.444  12.137  36.2120  0.00  0.00     0.000 C
ATOM     38  C5  BDP B   3      19.096  12.784  35.8370  0.00  0.00     0.000 C
ATOM     39  O5  BDP B   3      18.705  12.174  34.6070  0.00  0.00     0.000 O
ATOM     40   O  BDP B   3      18.898   8.727  35.7670  0.00  0.00     0.000 O
ATOM     42  HD  BDP B   3      19.017   8.601  34.9190  0.00  0.00     0.000 HD
ATOM     42   O  BDP B   3      21.364   9.942  36.8100  0.00  0.00     0.000 O
ATOM     44  HD  BDP B   3      21.483   9.816  35.9620  0.00  0.00     0.000 HD
BRANCH 38 44
ATOM     44   C  BDP B   3      19.148  14.271  35.6710  0.00  0.00     0.000 C
ATOM     45   O  BDP B   3      18.821  14.980  36.6480  0.00  0.00     0.000 OA
ATOM     46   O  BDP B   3      19.511  14.759  34.5790  0.00  0.00     0.000 OA
ENDBRANCH 38 44
BRANCH 34 47
ATOM     47  O3  NAG B   4      18.260  10.683  33.3860  0.00  0.00     0.000 O
BRANCH 47 50
ATOM     48  C1  NAG B   4      14.749  10.419  32.0630  0.00  0.00     0.000 C
ATOM     49  C2  NAG B   4      15.964  10.040  32.8900  0.00  0.00     0.000 C
ATOM     50  C3  NAG B   4      17.072  11.061  32.6600  0.00  0.00     0.000 C
ATOM     51  C4  NAG B   4      17.404  11.204  31.1830  0.00  0.00     0.000 C
ATOM     52  C5  NAG B   4      16.132  11.515  30.3930  0.00  0.00     0.000 C
ATOM     53  O5  NAG B   4      15.118  10.542  30.6750  0.00  0.00     0.000 O
ATOM     54   O  NAG B   4      18.367  12.248  31.0200  0.00  0.00     0.000 O
ATOM     56  HD  NAG B   4      18.283  11.758  30.3110  0.00  0.00     0.000 HD
ATOM     56   C  NAG B   4      16.404  11.541  28.8940  0.00  0.00     0.000 C
ATOM     57   O  NAG B   4      16.899  10.258  28.4860  0.00  0.00     0.000 O
ATOM     59  HD  NAG B   4      16.815   9.768  27.7770  0.00  0.00     0.000 HD
BRANCH 49 61
ATOM     59   N  NAG B   4      15.821   8.619  32.5730  0.00  0.00     0.000 N
ATOM     61  HD  NAG B   4      16.364   9.137  33.0070  0.00  0.00     0.000 HD
ATOM     61   O  NAG B   4      16.382   7.827  34.6130  0.00  0.00     0.000 OA
ATOM     62   C  NAG B   4      15.970   7.643  33.4770  0.00  0.00     0.000 C
ATOM     63   C  NAG B   4      15.576   6.274  33.0220  0.00  0.00     0.000 C
ENDBRANCH 49 61
BRANCH 48 64
ATOM     64  O4  BDP B   5      13.351  10.213  32.2430  0.00  0.00     0.000 O
BRANCH 64 68
ATOM     65  C1  BDP B   5      11.478   6.637  33.2770  0.00  0.00     0.000 C
ATOM     66  C2  BDP B   5      11.546   6.947  31.7880  0.00  0.00     0.000 C
ATOM     67  C3  BDP B   5      12.600   8.018  31.5360  0.00  0.00     0.000 C
ATOM     68  C4  BDP B   5      12.301   9.256  32.3740  0.00  0.00     0.000 C
ATOM     69  C5  BDP B   5      12.129   8.922  33.8500  0.00  0.00     0.000 C
ATOM     70  O5  BDP B   5      11.203   7.835  34.0190  0.00  0.00     0.000 O
ATOM     71   O  BDP B   5      11.827   5.744  31.0570  0.00  0.00     0.000 O
ATOM     73  HD  BDP B   5      12.018   4.994  30.6680  0.00  0.00     0.000 HD
ATOM     73   O  BDP B   5      12.627   8.381  30.1500  0.00  0.00     0.000 O
ATOM     75  HD  BDP B   5      12.817   7.631  29.7610  0.00  0.00     0.000 HD
BRANCH 69 75
ATOM     75   C  BDP B   5      11.602  10.147  34.5540  0.00  0.00     0.000 C
ATOM     76   O  BDP B   5      12.328  10.714  35.3960  0.00  0.00     0.000 OA
ATOM     77   O  BDP B   5      10.462  10.559  34.2750  0.00  0.00     0.000 OA
ENDBRANCH 69 75
BRANCH 65 78
ATOM     78  O3  NAG B   6      10.325   6.195  34.0000  0.00  0.00     0.000 O
BRANCH 78 81
ATOM     79  C1  NAG B   6       9.433   3.187  36.1190  0.00  0.00     0.000 C
ATOM     80  C2  NAG B   6       9.727   3.987  34.8400  0.00  0.00     0.000 C
ATOM     81  C3  NAG B   6      10.194   5.391  35.1920  0.00  0.00     0.000 C
ATOM     82  C4  NAG B   6       9.223   6.059  36.1710  0.00  0.00     0.000 C
ATOM     83  C5  NAG B   6       9.037   5.165  37.3910  0.00  0.00     0.000 C
ATOM     84  O5  NAG B   6       8.503   3.920  36.9370  0.00  0.00     0.000 O
BRANCH 80 87
ATOM     85   N  NAG B   6      10.658   3.176  34.0610  0.00  0.00     0.000 N
ATOM     87  HD  NAG B   6      10.807   2.503  33.5360  0.00  0.00     0.000 HD
ATOM     87   C  NAG B   6      10.634   3.082  32.7260  0.00  0.00     0.000 C
ATOM     88   C  NAG B   6      11.697   2.226  32.1160  0.00  0.00     0.000 C
ATOM     89   O  NAG B   6       9.811   3.665  32.0300  0.00  0.00     0.000 OA
ENDBRANCH 80 87
ATOM     90   O  NAG B   6       8.856   6.086  39.6190  0.00  0.00     0.000 O
ATOM     92  HD  NAG B   6       9.111   5.410  39.1420  0.00  0.00     0.000 HD
ATOM     92   O  NAG B   6       8.856   6.086  39.6190  0.00  0.00     0.000 O
ATOM     94  HD  NAG B   6       9.111   5.410  39.1420  0.00  0.00     0.000 HD
ENDBRANCH 78 81
ENDBRANCH 65 78
ENDBRANCH 64 68
ENDBRANCH 48 64
ENDBRANCH 47 50
ENDBRANCH 34 47
ENDBRANCH 33 37
ENDBRANCH 17 33
ENDBRANCH 16 19
ENDBRANCH 1 16
TORSDOF 16
ENDMDL
MODEL 24
REMARK VINA RESULT:      -4.2      8.343     15.668
ROOT
ATOM      1  C1  BDP B   1      33.301  21.611  16.8760  0.00  0.00     0.000 C
ATOM      2  C2  BDP B   1      34.109  22.211  18.0130  0.00  0.00     0.000 C
ATOM      3  C3  BDP B   1      33.492  23.490  18.5370  0.00  0.00     0.000 C
ATOM      4  C4  BDP B   1      32.054  23.717  18.0860  0.00  0.00     0.000 C
ATOM      5  C5  BDP B   1      31.858  23.475  16.5930  0.00  0.00     0.000 C
ATOM      6  O5  BDP B   1      32.917  22.683  16.0290  0.00  0.00     0.000 O
ATOM      7   O  BDP B   1      34.227  21.263  19.0790  0.00  0.00     0.000 O
ATOM      9  HD  BDP B   1      34.371  20.459  19.3690  0.00  0.00     0.000 HD
ATOM      9   O  BDP B   1      34.268  24.620  18.1060  0.00  0.00     0.000 O
ATOM     11  HD  BDP B   1      34.411  23.816  18.3960  0.00  0.00     0.000 HD
ATOM     11   O  BDP B   1      31.159  22.883  18.8320  0.00  0.00     0.000 O
ATOM     13  HD  BDP B   1      31.303  22.080  19.1220  0.00  0.00     0.000 HD
ENDROOT
BRANCH 5 13
ATOM     13   C  BDP B   1      31.821  24.808  15.9310  0.00  0.00     0.000 C
ATOM     14   O  BDP B   1      31.706  24.847  14.6890  0.00  0.00     0.000 OA
ATOM     15   O  BDP B   1      31.879  25.839  16.6360  0.00  0.00     0.000 OA
ENDBRANCH 5 13
BRANCH 1 16
ATOM     16  O3  NAG B   2      32.681  20.332  16.7530  0.00  0.00     0.000 O
BRANCH 16 19
ATOM     17  C1  NAG B   2      30.936  17.138  16.6630  0.00  0.00     0.000 C
ATOM     18  C2  NAG B   2      31.462  18.383  15.9470  0.00  0.00     0.000 C
ATOM     19  C3  NAG B   2      32.712  18.908  16.6370  0.00  0.00     0.000 C
ATOM     20  C4  NAG B   2      32.903  18.281  18.0200  0.00  0.00     0.000 C
ATOM     21  C5  NAG B   2      31.607  17.999  18.7930  0.00  0.00     0.000 C
ATOM     22  O5  NAG B   2      30.520  17.594  17.9520  0.00  0.00     0.000 O
ATOM     23   O  NAG B   2      33.652  17.070  17.8710  0.00  0.00     0.000 O
ATOM     25  HD  NAG B   2      33.239  16.821  17.1520  0.00  0.00     0.000 HD
ATOM     25   C  NAG B   2      31.174  19.235  19.5930  0.00  0.00     0.000 C
ATOM     26   O  NAG B   2      31.827  19.298  20.8690  0.00  0.00     0.000 O
ATOM     28  HD  NAG B   2      31.414  19.049  20.1490  0.00  0.00     0.000 HD
BRANCH 18 30
ATOM     28   N  NAG B   2      31.841  17.167  15.2290  0.00  0.00     0.000 N
ATOM     30  HD  NAG B   2      32.407  16.511  15.2470  0.00  0.00     0.000 HD
ATOM     30   C  NAG B   2      32.403  17.138  14.0120  0.00  0.00     0.000 C
ATOM     31   C  NAG B   2      32.691  15.762  13.4820  0.00  0.00     0.000 C
ATOM     32   O  NAG B   2      32.671  18.132  13.3780  0.00  0.00     0.000 OA
ENDBRANCH 18 30
BRANCH 17 33
ATOM     33  O4  BDP B   3      29.885  16.207  17.0000  0.00  0.00     0.000 O
BRANCH 33 37
ATOM     34  C1  BDP B   3      26.555  13.648  16.2180  0.00  0.00     0.000 C
ATOM     35  C2  BDP B   3      27.383  14.100  15.0210  0.00  0.00     0.000 C
ATOM     36  C3  BDP B   3      28.759  14.637  15.3970  0.00  0.00     0.000 C
ATOM     37  C4  BDP B   3      28.624  15.604  16.5840  0.00  0.00     0.000 C
ATOM     38  C5  BDP B   3      27.930  14.835  17.7240  0.00  0.00     0.000 C
ATOM     39  O5  BDP B   3      26.593  14.610  17.2790  0.00  0.00     0.000 O
ATOM     40   O  BDP B   3      27.463  12.976  14.1430  0.00  0.00     0.000 O
ATOM     42  HD  BDP B   3      26.678  13.278  13.9360  0.00  0.00     0.000 HD
ATOM     42   O  BDP B   3      29.276  15.288  14.2380  0.00  0.00     0.000 O
ATOM     44  HD  BDP B   3      28.491  15.591  14.0310  0.00  0.00     0.000 HD
BRANCH 38 44
ATOM     44   C  BDP B   3      27.913  15.556  19.0360  0.00  0.00     0.000 C
ATOM     45   O  BDP B   3      27.148  16.538  19.1540  0.00  0.00     0.000 OA
ATOM     46   O  BDP B   3      28.653  15.165  19.9650  0.00  0.00     0.000 OA
ENDBRANCH 38 44
BRANCH 34 47
ATOM     47  O3  NAG B   4      25.173  13.965  16.0620  0.00  0.00     0.000 O
BRANCH 47 50
ATOM     48  C1  NAG B   4      22.661  11.385  17.1470  0.00  0.00     0.000 C
ATOM     49  C2  NAG B   4      23.766  11.993  16.3020  0.00  0.00     0.000 C
ATOM     50  C3  NAG B   4      24.170  13.340  16.8890  0.00  0.00     0.000 C
ATOM     51  C4  NAG B   4      22.976  14.270  17.0290  0.00  0.00     0.000 C
ATOM     52  C5  NAG B   4      21.870  13.579  17.8280  0.00  0.00     0.000 C
ATOM     53  O5  NAG B   4      21.557  12.306  17.2490  0.00  0.00     0.000 O
ATOM     54   O  NAG B   4      23.395  15.471  17.6820  0.00  0.00     0.000 O
ATOM     56  HD  NAG B   4      22.615  15.547  17.3130  0.00  0.00     0.000 HD
ATOM     56   C  NAG B   4      20.609  14.434  17.8820  0.00  0.00     0.000 C
ATOM     57   O  NAG B   4      20.141  14.661  16.5460  0.00  0.00     0.000 O
ATOM     59  HD  NAG B   4      19.361  14.737  16.1770  0.00  0.00     0.000 HD
BRANCH 49 61
ATOM     59   N  NAG B   4      24.630  10.819  16.1650  0.00  0.00     0.000 N
ATOM     61  HD  NAG B   4      23.981  11.202  15.7370  0.00  0.00     0.000 HD
ATOM     61   O  NAG B   4      25.008  11.018  13.9470  0.00  0.00     0.000 OA
ATOM     62   C  NAG B   4      25.233  10.477  15.0200  0.00  0.00     0.000 C
ATOM     63   C  NAG B   4      26.242   9.378  15.1240  0.00  0.00     0.000 C
ENDBRANCH 49 61
BRANCH 48 64
ATOM     64  O4  BDP B   5      22.281  10.041  17.4270  0.00  0.00     0.000 O
BRANCH 64 68
ATOM     65  C1  BDP B   5      22.391   8.286  21.2060  0.00  0.00     0.000 C
ATOM     66  C2  BDP B   5      23.217   7.599  20.1280  0.00  0.00     0.000 C
ATOM     67  C3  BDP B   5      23.431   8.553  18.9600  0.00  0.00     0.000 C
ATOM     68  C4  BDP B   5      22.088   9.049  18.4350  0.00  0.00     0.000 C
ATOM     69  C5  BDP B   5      21.222   9.641  19.5390  0.00  0.00     0.000 C
ATOM     70  O5  BDP B   5      21.143   8.739  20.6570  0.00  0.00     0.000 O
ATOM     71   O  BDP B   5      24.464   7.155  20.6850  0.00  0.00     0.000 O
ATOM     73  HD  BDP B   5      25.207   6.927  21.0670  0.00  0.00     0.000 HD
ATOM     73   O  BDP B   5      24.141   7.901  17.9000  0.00  0.00     0.000 O
ATOM     75  HD  BDP B   5      24.884   7.673  18.2820  0.00  0.00     0.000 HD
BRANCH 69 75
ATOM     75   C  BDP B   5      19.841   9.876  18.9830  0.00  0.00     0.000 C
ATOM     76   O  BDP B   5      19.176   8.895  18.5940  0.00  0.00     0.000 OA
ATOM     77   O  BDP B   5      19.402  11.040  18.9310  0.00  0.00     0.000 OA
ENDBRANCH 69 75
BRANCH 65 78
ATOM     78  O3  NAG B   6      21.496   7.651  22.1240  0.00  0.00     0.000 O
BRANCH 78 81
ATOM     79  C1  NAG B   6      21.209   6.978  25.8380  0.00  0.00     0.000 C
ATOM     80  C2  NAG B   6      21.669   6.765  24.3870  0.00  0.00     0.000 C
ATOM     81  C3  NAG B   6      21.202   7.918  23.5120  0.00  0.00     0.000 C
ATOM     82  C4  NAG B   6      19.701   8.165  23.6910  0.00  0.00     0.000 C
ATOM     83  C5  NAG B   6      19.394   8.372  25.1700  0.00  0.00     0.000 C
ATOM     84  O5  NAG B   6      19.785   7.186  25.8620  0.00  0.00     0.000 O
BRANCH 80 87
ATOM     85   N  NAG B   6      22.471   5.618  23.9720  0.00  0.00     0.000 N
ATOM     87  HD  NAG B   6      22.932   5.208  23.3640  0.00  0.00     0.000 HD
ATOM     87   C  NAG B   6      23.772   5.686  23.6640  0.00  0.00     0.000 C
ATOM     88   C  NAG B   6      24.420   4.389  23.2950  0.00  0.00     0.000 C
ATOM     89   O  NAG B   6      24.411   6.731  23.6900  0.00  0.00     0.000 OA
ENDBRANCH 80 87
ATOM     90   O  NAG B   6      17.771  10.006  25.9080  0.00  0.00     0.000 O
ATOM     92  HD  NAG B   6      18.502   9.583  26.1020  0.00  0.00     0.000 HD
ATOM     92   O  NAG B   6      17.771  10.006  25.9080  0.00  0.00     0.000 O
ATOM     94  HD  NAG B   6      18.502   9.583  26.1020  0.00  0.00     0.000 HD
ENDBRANCH 78 81
ENDBRANCH 65 78
ENDBRANCH 64 68
ENDBRANCH 48 64
ENDBRANCH 47 50
ENDBRANCH 34 47
ENDBRANCH 33 37
ENDBRANCH 17 33
ENDBRANCH 16 19
ENDBRANCH 1 16
TORSDOF 16
ENDMDL
MODEL 25
REMARK VINA RESULT:      -4.0     15.201     19.284
ROOT
ATOM      1  C1  BDP B   1      13.640  33.786  24.0290  0.00  0.00     0.000 C
ATOM      2  C2  BDP B   1      14.542  34.402  25.0840  0.00  0.00     0.000 C
ATOM      3  C3  BDP B   1      13.943  35.656  25.6850  0.00  0.00     0.000 C
ATOM      4  C4  BDP B   1      12.459  35.839  25.3880  0.00  0.00     0.000 C
ATOM      5  C5  BDP B   1      12.117  35.604  23.9190  0.00  0.00     0.000 C
ATOM      6  O5  BDP B   1      13.137  34.854  23.2390  0.00  0.00     0.000 O
ATOM      7   O  BDP B   1      14.801  33.448  26.1200  0.00  0.00     0.000 O
ATOM      9  HD  BDP B   1      15.000  32.648  26.3820  0.00  0.00     0.000 HD
ATOM      9   O  BDP B   1      14.633  36.814  25.1900  0.00  0.00     0.000 O
ATOM     11  HD  BDP B   1      14.831  36.013  25.4530  0.00  0.00     0.000 HD
ATOM     11   O  BDP B   1      11.673  34.969  26.2120  0.00  0.00     0.000 O
ATOM     13  HD  BDP B   1      11.872  34.168  26.4750  0.00  0.00     0.000 HD
ENDROOT
BRANCH 5 13
ATOM     13   C  BDP B   1      11.969  36.942  23.2820  0.00  0.00     0.000 C
ATOM     14   O  BDP B   1      12.981  37.468  22.7740  0.00  0.00     0.000 OA
ATOM     15   O  BDP B   1      10.842  37.480  23.2540  0.00  0.00     0.000 OA
ENDBRANCH 5 13
BRANCH 1 16
ATOM     16  O3  NAG B   2      13.053  32.489  23.9540  0.00  0.00     0.000 O
BRANCH 16 19
ATOM     17  C1  NAG B   2      13.921  28.968  23.6280  0.00  0.00     0.000 C
ATOM     18  C2  NAG B   2      14.198  30.354  24.2120  0.00  0.00     0.000 C
ATOM     19  C3  NAG B   2      12.902  31.133  24.3790  0.00  0.00     0.000 C
ATOM     20  C4  NAG B   2      11.745  30.479  23.6190  0.00  0.00     0.000 C
ATOM     21  C5  NAG B   2      12.130  29.819  22.2870  0.00  0.00     0.000 C
ATOM     22  O5  NAG B   2      13.426  29.209  22.3090  0.00  0.00     0.000 O
ATOM     23   O  NAG B   2      11.125  29.516  24.4760  0.00  0.00     0.000 O
ATOM     25  HD  NAG B   2      11.871  29.220  24.8010  0.00  0.00     0.000 HD
ATOM     25   C  NAG B   2      12.089  30.843  21.1440  0.00  0.00     0.000 C
ATOM     26   O  NAG B   2      10.768  30.981  20.6020  0.00  0.00     0.000 O
ATOM     28  HD  NAG B   2      11.515  30.685  20.9270  0.00  0.00     0.000 HD
BRANCH 18 30
ATOM     28   N  NAG B   2      14.269  29.322  25.2450  0.00  0.00     0.000 N
ATOM     30  HD  NAG B   2      13.772  28.795  25.7200  0.00  0.00     0.000 HD
ATOM     30   C  NAG B   2      14.629  29.534  26.5190  0.00  0.00     0.000 C
ATOM     31   C  NAG B   2      14.634  28.308  27.3870  0.00  0.00     0.000 C
ATOM     32   O  NAG B   2      14.924  30.622  26.9550  0.00  0.00     0.000 OA
ENDBRANCH 18 30
BRANCH 17 33
ATOM     33  O4  BDP B   3      14.326  27.776  22.9200  0.00  0.00     0.000 O
BRANCH 33 37
ATOM     34  C1  BDP B   3      12.985  23.836  21.9630  0.00  0.00     0.000 C
ATOM     35  C2  BDP B   3      12.930  24.254  23.4270  0.00  0.00     0.000 C
ATOM     36  C3  BDP B   3      13.011  25.762  23.6350  0.00  0.00     0.000 C
ATOM     37  C4  BDP B   3      14.138  26.339  22.7650  0.00  0.00     0.000 C
ATOM     38  C5  BDP B   3      13.845  25.933  21.3080  0.00  0.00     0.000 C
ATOM     39  O5  BDP B   3      14.028  24.519  21.2570  0.00  0.00     0.000 O
ATOM     40   O  BDP B   3      11.724  23.699  23.9570  0.00  0.00     0.000 O
ATOM     42  HD  BDP B   3      12.242  23.006  23.9930  0.00  0.00     0.000 HD
ATOM     42   O  BDP B   3      13.254  25.972  25.0250  0.00  0.00     0.000 O
ATOM     44  HD  BDP B   3      13.772  25.279  25.0620  0.00  0.00     0.000 HD
BRANCH 38 44
ATOM     44   C  BDP B   3      14.723  26.595  20.2920  0.00  0.00     0.000 C
ATOM     45   O  BDP B   3      14.171  27.220  19.3600  0.00  0.00     0.000 OA
ATOM     46   O  BDP B   3      15.965  26.507  20.3980  0.00  0.00     0.000 OA
ENDBRANCH 38 44
BRANCH 34 47
ATOM     47  O3  NAG B   4      13.730  22.634  21.7790  0.00  0.00     0.000 O
BRANCH 47 50
ATOM     48  C1  NAG B   4      11.970  19.524  20.6040  0.00  0.00     0.000 C
ATOM     49  C2  NAG B   4      12.372  20.624  21.5710  0.00  0.00     0.000 C
ATOM     50  C3  NAG B   4      13.283  21.617  20.8590  0.00  0.00     0.000 C
ATOM     51  C4  NAG B   4      14.488  20.926  20.2410  0.00  0.00     0.000 C
ATOM     52  C5  NAG B   4      14.025  19.786  19.3340  0.00  0.00     0.000 C
ATOM     53  O5  NAG B   4      13.146  18.906  20.0470  0.00  0.00     0.000 O
ATOM     54   O  NAG B   4      15.245  21.886  19.4980  0.00  0.00     0.000 O
ATOM     56  HD  NAG B   4      15.681  21.150  19.6330  0.00  0.00     0.000 HD
ATOM     56   C  NAG B   4      15.208  18.991  18.7950  0.00  0.00     0.000 C
ATOM     57   O  NAG B   4      15.940  18.436  19.8960  0.00  0.00     0.000 O
ATOM     59  HD  NAG B   4      16.375  17.700  20.0320  0.00  0.00     0.000 HD
BRANCH 49 61
ATOM     59   N  NAG B   4      12.912  19.898  22.7210  0.00  0.00     0.000 N
ATOM     61  HD  NAG B   4      12.705  20.711  22.5040  0.00  0.00     0.000 HD
ATOM     61   O  NAG B   4      11.720  20.976  24.3080  0.00  0.00     0.000 OA
ATOM     62   C  NAG B   4      12.488  20.085  23.9760  0.00  0.00     0.000 C
ATOM     63   C  NAG B   4      13.001  19.106  24.9850  0.00  0.00     0.000 C
ENDBRANCH 49 61
BRANCH 48 64
ATOM     64  O4  BDP B   5      10.814  18.698  20.5010  0.00  0.00     0.000 O
BRANCH 64 68
ATOM     65  C1  BDP B   5       7.940  17.891  23.4090  0.00  0.00     0.000 C
ATOM     66  C2  BDP B   5       9.163  16.982  23.4090  0.00  0.00     0.000 C
ATOM     67  C3  BDP B   5      10.287  17.637  22.6170  0.00  0.00     0.000 C
ATOM     68  C4  BDP B   5       9.811  17.970  21.2080  0.00  0.00     0.000 C
ATOM     69  C5  BDP B   5       8.528  18.791  21.2130  0.00  0.00     0.000 C
ATOM     70  O5  BDP B   5       7.540  18.179  22.0610  0.00  0.00     0.000 O
ATOM     71   O  BDP B   5       9.558  16.706  24.7620  0.00  0.00     0.000 O
ATOM     73  HD  BDP B   5       9.764  16.588  25.5940  0.00  0.00     0.000 HD
ATOM     73   O  BDP B   5      11.421  16.764  22.5390  0.00  0.00     0.000 O
ATOM     75  HD  BDP B   5      11.628  16.646  23.3720  0.00  0.00     0.000 HD
BRANCH 69 75
ATOM     75   C  BDP B   5       8.006  18.863  19.8010  0.00  0.00     0.000 C
ATOM     76   O  BDP B   5       7.428  17.866  19.3240  0.00  0.00     0.000 OA
ATOM     77   O  BDP B   5       8.161  19.915  19.1530  0.00  0.00     0.000 OA
ENDBRANCH 69 75
BRANCH 65 78
ATOM     78  O3  NAG B   6       6.574  17.475  23.4860  0.00  0.00     0.000 O
BRANCH 78 81
ATOM     79  C1  NAG B   6       3.686  17.718  25.9220  0.00  0.00     0.000 C
ATOM     80  C2  NAG B   6       4.994  17.183  25.3180  0.00  0.00     0.000 C
ATOM     81  C3  NAG B   6       5.433  18.057  24.1540  0.00  0.00     0.000 C
ATOM     82  C4  NAG B   6       4.287  18.254  23.1570  0.00  0.00     0.000 C
ATOM     83  C5  NAG B   6       3.066  18.799  23.8890  0.00  0.00     0.000 C
ATOM     84  O5  NAG B   6       2.697  17.843  24.8840  0.00  0.00     0.000 O
BRANCH 80 87
ATOM     85   N  NAG B   6       5.895  17.033  26.4570  0.00  0.00     0.000 N
ATOM     87  HD  NAG B   6       6.170  16.574  27.1380  0.00  0.00     0.000 HD
ATOM     87   C  NAG B   6       6.831  16.081  26.5520  0.00  0.00     0.000 C
ATOM     88   C  NAG B   6       7.675  16.121  27.7860  0.00  0.00     0.000 C
ATOM     89   O  NAG B   6       7.011  15.232  25.6870  0.00  0.00     0.000 OA
ENDBRANCH 80 87
ATOM     90   O  NAG B   6       1.632  20.469  22.8890  0.00  0.00     0.000 O
ATOM     92  HD  NAG B   6       1.952  20.149  23.6270  0.00  0.00     0.000 HD
ATOM     92   O  NAG B   6       1.632  20.469  22.8890  0.00  0.00     0.000 O
ATOM     94  HD  NAG B   6       1.952  20.149  23.6270  0.00  0.00     0.000 HD
ENDBRANCH 78 81
ENDBRANCH 65 78
ENDBRANCH 64 68
ENDBRANCH 48 64
ENDBRANCH 47 50
ENDBRANCH 34 47
ENDBRANCH 33 37
ENDBRANCH 17 33
ENDBRANCH 16 19
ENDBRANCH 1 16
TORSDOF 16
ENDMDL
MODEL 26
REMARK VINA RESULT:      -3.9     16.719     22.078
ROOT
ATOM      1  C1  BDP B   1      14.783  36.009  22.6180  0.00  0.00     0.000 C
ATOM      2  C2  BDP B   1      15.834  35.918  23.7100  0.00  0.00     0.000 C
ATOM      3  C3  BDP B   1      15.870  37.162  24.5720  0.00  0.00     0.000 C
ATOM      4  C4  BDP B   1      14.653  38.066  24.4090  0.00  0.00     0.000 C
ATOM      5  C5  BDP B   1      14.288  38.308  22.9480  0.00  0.00     0.000 C
ATOM      6  O5  BDP B   1      14.861  37.319  22.0750  0.00  0.00     0.000 O
ATOM      7   O  BDP B   1      15.585  34.772  24.5310  0.00  0.00     0.000 O
ATOM      9  HD  BDP B   1      15.378  33.936  24.6260  0.00  0.00     0.000 HD
ATOM      9   O  BDP B   1      17.036  37.940  24.2600  0.00  0.00     0.000 O
ATOM     11  HD  BDP B   1      16.829  37.105  24.3560  0.00  0.00     0.000 HD
ATOM     11   O  BDP B   1      13.526  37.517  25.1040  0.00  0.00     0.000 O
ATOM     13  HD  BDP B   1      13.320  36.682  25.1990  0.00  0.00     0.000 HD
ENDROOT
BRANCH 5 13
ATOM     13   C  BDP B   1      14.802  39.657  22.5830  0.00  0.00     0.000 C
ATOM     14   O  BDP B   1      14.524  40.107  21.4520  0.00  0.00     0.000 OA
ATOM     15   O  BDP B   1      15.466  40.302  23.4220  0.00  0.00     0.000 OA
ENDBRANCH 5 13
BRANCH 1 16
ATOM     16  O3  NAG B   2      13.660  35.174  22.3400  0.00  0.00     0.000 O
BRANCH 16 19
ATOM     17  C1  NAG B   2      13.835  31.920  20.7150  0.00  0.00     0.000 C
ATOM     18  C2  NAG B   2      14.091  32.811  21.9320  0.00  0.00     0.000 C
ATOM     19  C3  NAG B   2      13.055  33.923  22.0080  0.00  0.00     0.000 C
ATOM     20  C4  NAG B   2      12.272  34.059  20.6990  0.00  0.00     0.000 C
ATOM     21  C5  NAG B   2      13.082  33.789  19.4240  0.00  0.00     0.000 C
ATOM     22  O5  NAG B   2      14.065  32.759  19.5810  0.00  0.00     0.000 O
ATOM     23   O  NAG B   2      11.143  33.182  20.7520  0.00  0.00     0.000 O
ATOM     25  HD  NAG B   2      11.577  32.532  21.1260  0.00  0.00     0.000 HD
ATOM     25   C  NAG B   2      13.784  35.068  18.9470  0.00  0.00     0.000 C
ATOM     26   O  NAG B   2      12.922  35.876  18.1330  0.00  0.00     0.000 O
ATOM     28  HD  NAG B   2      13.356  35.226  18.5070  0.00  0.00     0.000 HD
BRANCH 18 30
ATOM     28   N  NAG B   2      13.599  31.496  22.3410  0.00  0.00     0.000 N
ATOM     30  HD  NAG B   2      12.924  30.961  22.2520  0.00  0.00     0.000 HD
ATOM     30   C  NAG B   2      13.231  31.168  23.5870  0.00  0.00     0.000 C
ATOM     31   C  NAG B   2      12.770  29.748  23.7570  0.00  0.00     0.000 C
ATOM     32   O  NAG B   2      13.254  31.943  24.5150  0.00  0.00     0.000 OA
ENDBRANCH 18 30
BRANCH 17 33
ATOM     33  O4  BDP B   3      14.265  30.976  19.7110  0.00  0.00     0.000 O
BRANCH 33 37
ATOM     34  C1  BDP B   3      13.101  27.022  18.5930  0.00  0.00     0.000 C
ATOM     35  C2  BDP B   3      14.101  27.157  19.7340  0.00  0.00     0.000 C
ATOM     36  C3  BDP B   3      14.143  28.552  20.3480  0.00  0.00     0.000 C
ATOM     37  C4  BDP B   3      14.184  29.603  19.2280  0.00  0.00     0.000 C
ATOM     38  C5  BDP B   3      12.956  29.362  18.3290  0.00  0.00     0.000 C
ATOM     39  O5  BDP B   3      13.196  28.117  17.6740  0.00  0.00     0.000 O
ATOM     40   O  BDP B   3      13.753  26.155  20.6920  0.00  0.00     0.000 O
ATOM     42  HD  BDP B   3      14.200  25.678  20.1240  0.00  0.00     0.000 HD
ATOM     42   O  BDP B   3      15.309  28.604  21.1680  0.00  0.00     0.000 O
ATOM     44  HD  BDP B   3      15.756  28.127  20.6010  0.00  0.00     0.000 HD
BRANCH 38 44
ATOM     44   C  BDP B   3      12.715  30.433  17.3110  0.00  0.00     0.000 C
ATOM     45   O  BDP B   3      11.717  31.170  17.4620  0.00  0.00     0.000 OA
ATOM     46   O  BDP B   3      13.504  30.560  16.3490  0.00  0.00     0.000 OA
ENDBRANCH 38 44
BRANCH 34 47
ATOM     47  O3  NAG B   4      13.592  26.183  17.5490  0.00  0.00     0.000 O
BRANCH 47 50
ATOM     48  C1  NAG B   4      11.678  23.065  16.6740  0.00  0.00     0.000 C
ATOM     49  C2  NAG B   4      12.561  23.977  17.5070  0.00  0.00     0.000 C
ATOM     50  C3  NAG B   4      12.702  25.324  16.8070  0.00  0.00     0.000 C
ATOM     51  C4  NAG B   4      13.219  25.164  15.3860  0.00  0.00     0.000 C
ATOM     52  C5  NAG B   4      12.333  24.182  14.6180  0.00  0.00     0.000 C
ATOM     53  O5  NAG B   4      12.211  22.950  15.3400  0.00  0.00     0.000 O
ATOM     54   O  NAG B   4      13.228  26.443  14.7470  0.00  0.00     0.000 O
ATOM     56  HD  NAG B   4      13.683  25.849  14.3100  0.00  0.00     0.000 HD
ATOM     56   C  NAG B   4      12.894  23.901  13.2290  0.00  0.00     0.000 C
ATOM     57   O  NAG B   4      14.204  23.335  13.3590  0.00  0.00     0.000 O
ATOM     59  HD  NAG B   4      14.659  22.741  12.9230  0.00  0.00     0.000 HD
BRANCH 49 61
ATOM     59   N  NAG B   4      13.797  23.223  17.7210  0.00  0.00     0.000 N
ATOM     61  HD  NAG B   4      13.426  23.955  17.9980  0.00  0.00     0.000 HD
ATOM     61   O  NAG B   4      13.892  23.486  19.9620  0.00  0.00     0.000 OA
ATOM     62   C  NAG B   4      14.314  22.981  18.9310  0.00  0.00     0.000 C
ATOM     63   C  NAG B   4      15.456  22.017  18.9660  0.00  0.00     0.000 C
ENDBRANCH 49 61
BRANCH 48 64
ATOM     64  O4  BDP B   5      10.801  21.994  17.0090  0.00  0.00     0.000 O
BRANCH 64 68
ATOM     65  C1  BDP B   5      10.799  19.066  19.9750  0.00  0.00     0.000 C
ATOM     66  C2  BDP B   5      11.860  18.918  18.8930  0.00  0.00     0.000 C
ATOM     67  C3  BDP B   5      12.024  20.239  18.1530  0.00  0.00     0.000 C
ATOM     68  C4  BDP B   5      10.682  20.697  17.5920  0.00  0.00     0.000 C
ATOM     69  C5  BDP B   5       9.598  20.742  18.6610  0.00  0.00     0.000 C
ATOM     70  O5  BDP B   5       9.561  19.506  19.3950  0.00  0.00     0.000 O
ATOM     71   O  BDP B   5      13.095  18.485  19.4840  0.00  0.00     0.000 O
ATOM     73  HD  BDP B   5      13.818  18.243  19.8940  0.00  0.00     0.000 HD
ATOM     73   O  BDP B   5      12.963  20.101  17.0790  0.00  0.00     0.000 O
ATOM     75  HD  BDP B   5      13.686  19.859  17.4890  0.00  0.00     0.000 HD
BRANCH 69 75
ATOM     75   C  BDP B   5       8.271  20.963  17.9800  0.00  0.00     0.000 C
ATOM     76   O  BDP B   5       7.598  21.967  18.2900  0.00  0.00     0.000 OA
ATOM     77   O  BDP B   5       7.887  20.143  17.1270  0.00  0.00     0.000 OA
ENDBRANCH 69 75
BRANCH 65 78
ATOM     78  O3  NAG B   6       9.940  18.034  20.4680  0.00  0.00     0.000 O
BRANCH 78 81
ATOM     79  C1  NAG B   6       8.942  17.140  24.0090  0.00  0.00     0.000 C
ATOM     80  C2  NAG B   6       9.877  17.362  22.8090  0.00  0.00     0.000 C
ATOM     81  C3  NAG B   6       9.107  17.965  21.6460  0.00  0.00     0.000 C
ATOM     82  C4  NAG B   6       7.845  17.149  21.3460  0.00  0.00     0.000 C
ATOM     83  C5  NAG B   6       7.011  17.021  22.6160  0.00  0.00     0.000 C
ATOM     84  O5  NAG B   6       7.811  16.354  23.5930  0.00  0.00     0.000 O
BRANCH 80 87
ATOM     85   N  NAG B   6      11.304  17.082  22.6820  0.00  0.00     0.000 N
ATOM     87  HD  NAG B   6      12.061  17.219  22.2840  0.00  0.00     0.000 HD
ATOM     87   C  NAG B   6      12.268  17.982  22.9150  0.00  0.00     0.000 C
ATOM     88   C  NAG B   6      13.670  17.485  22.7620  0.00  0.00     0.000 C
ATOM     89   O  NAG B   6      12.037  19.138  23.2480  0.00  0.00     0.000 OA
ENDBRANCH 80 87
ATOM     90   O  NAG B   6       4.596  17.135  22.5590  0.00  0.00     0.000 O
ATOM     92  HD  NAG B   6       5.310  17.290  23.0240  0.00  0.00     0.000 HD
ATOM     92   O  NAG B   6       4.596  17.135  22.5590  0.00  0.00     0.000 O
ATOM     94  HD  NAG B   6       5.310  17.290  23.0240  0.00  0.00     0.000 HD
ENDBRANCH 78 81
ENDBRANCH 65 78
ENDBRANCH 64 68
ENDBRANCH 48 64
ENDBRANCH 47 50
ENDBRANCH 34 47
ENDBRANCH 33 37
ENDBRANCH 17 33
ENDBRANCH 16 19
ENDBRANCH 1 16
TORSDOF 16
ENDMDL
MODEL 27
REMARK VINA RESULT:      -3.8     23.918     29.271
ROOT
ATOM      1  C1  BDP B   1      20.012   9.529  56.9480  0.00  0.00     0.000 C
ATOM      2  C2  BDP B   1      20.263  10.054  58.3500  0.00  0.00     0.000 C
ATOM      3  C3  BDP B   1      20.082  11.555  58.4370  0.00  0.00     0.000 C
ATOM      4  C4  BDP B   1      19.362  12.165  57.2400  0.00  0.00     0.000 C
ATOM      5  C5  BDP B   1      19.903  11.659  55.9050  0.00  0.00     0.000 C
ATOM      6  O5  BDP B   1      20.638  10.432  56.0480  0.00  0.00     0.000 O
ATOM      7   O  BDP B   1      19.381   9.409  59.2760  0.00  0.00     0.000 O
ATOM      9  HD  BDP B   1      18.989   8.702  59.5850  0.00  0.00     0.000 HD
ATOM      9   O  BDP B   1      21.363  12.196  58.5490  0.00  0.00     0.000 O
ATOM     11  HD  BDP B   1      20.971  11.488  58.8570  0.00  0.00     0.000 HD
ATOM     11   O  BDP B   1      17.955  11.908  57.3200  0.00  0.00     0.000 O
ATOM     13  HD  BDP B   1      17.563  11.200  57.6280  0.00  0.00     0.000 HD
ENDROOT
BRANCH 5 13
ATOM     13   C  BDP B   1      20.796  12.719  55.3620  0.00  0.00     0.000 C
ATOM     14   O  BDP B   1      21.153  13.638  56.1280  0.00  0.00     0.000 OA
ATOM     15   O  BDP B   1      21.177  12.643  54.1740  0.00  0.00     0.000 OA
ENDBRANCH 5 13
BRANCH 1 16
ATOM     16  O3  NAG B   2      19.075   8.565  56.4720  0.00  0.00     0.000 O
BRANCH 16 19
ATOM     17  C1  NAG B   2      16.514   6.252  55.3110  0.00  0.00     0.000 C
ATOM     18  C2  NAG B   2      17.738   7.125  55.0320  0.00  0.00     0.000 C
ATOM     19  C3  NAG B   2      18.616   7.227  56.2700  0.00  0.00     0.000 C
ATOM     20  C4  NAG B   2      17.888   6.735  57.5240  0.00  0.00     0.000 C
ATOM     21  C5  NAG B   2      16.384   7.041  57.5660  0.00  0.00     0.000 C
ATOM     22  O5  NAG B   2      15.753   6.973  56.2820  0.00  0.00     0.000 O
ATOM     23   O  NAG B   2      18.100   5.325  57.6490  0.00  0.00     0.000 O
ATOM     25  HD  NAG B   2      18.010   5.166  56.8030  0.00  0.00     0.000 HD
ATOM     25   C  NAG B   2      16.132   8.433  58.1630  0.00  0.00     0.000 C
ATOM     26   O  NAG B   2      16.084   8.395  59.5970  0.00  0.00     0.000 O
ATOM     28  HD  NAG B   2      15.994   8.236  58.7500  0.00  0.00     0.000 HD
BRANCH 18 30
ATOM     28   N  NAG B   2      18.097   5.752  54.6770  0.00  0.00     0.000 N
ATOM     30  HD  NAG B   2      18.540   5.066  54.9640  0.00  0.00     0.000 HD
ATOM     30   C  NAG B   2      18.923   5.409  53.6780  0.00  0.00     0.000 C
ATOM     31   C  NAG B   2      19.126   3.930  53.5060  0.00  0.00     0.000 C
ATOM     32   O  NAG B   2      19.476   6.213  52.9640  0.00  0.00     0.000 OA
ENDBRANCH 18 30
BRANCH 17 33
ATOM     33  O4  BDP B   3      15.164   5.819  55.0340  0.00  0.00     0.000 O
BRANCH 33 37
ATOM     34  C1  BDP B   3      11.996   3.853  52.9500  0.00  0.00     0.000 C
ATOM     35  C2  BDP B   3      13.370   3.195  52.9110  0.00  0.00     0.000 C
ATOM     36  C3  BDP B   3      14.320   3.698  53.9920  0.00  0.00     0.000 C
ATOM     37  C4  BDP B   3      14.260   5.232  54.0540  0.00  0.00     0.000 C
ATOM     38  C5  BDP B   3      12.789   5.622  54.2950  0.00  0.00     0.000 C
ATOM     39  O5  BDP B   3      12.095   5.275  53.0970  0.00  0.00     0.000 O
ATOM     40   O  BDP B   3      13.142   1.787  53.0030  0.00  0.00     0.000 O
ATOM     42  HD  BDP B   3      12.986   1.914  52.1610  0.00  0.00     0.000 HD
ATOM     42   O  BDP B   3      15.622   3.232  53.6430  0.00  0.00     0.000 O
ATOM     44  HD  BDP B   3      15.466   3.359  52.8010  0.00  0.00     0.000 HD
BRANCH 38 44
ATOM     44   C  BDP B   3      12.576   7.072  54.6020  0.00  0.00     0.000 C
ATOM     45   O  BDP B   3      12.356   7.393  55.7900  0.00  0.00     0.000 OA
ATOM     46   O  BDP B   3      12.621   7.912  53.6770  0.00  0.00     0.000 OA
ENDBRANCH 38 44
BRANCH 34 47
ATOM     47  O3  NAG B   4      11.477   4.085  51.6420  0.00  0.00     0.000 O
BRANCH 47 50
ATOM     48  C1  NAG B   4       7.752   4.325  51.1800  0.00  0.00     0.000 C
ATOM     49  C2  NAG B   4       9.089   3.656  51.4500  0.00  0.00     0.000 C
ATOM     50  C3  NAG B   4      10.191   4.709  51.4540  0.00  0.00     0.000 C
ATOM     51  C4  NAG B   4      10.200   5.513  50.1640  0.00  0.00     0.000 C
ATOM     52  C5  NAG B   4       8.813   6.103  49.9090  0.00  0.00     0.000 C
ATOM     53  O5  NAG B   4       7.817   5.073  49.9510  0.00  0.00     0.000 O
ATOM     54   O  NAG B   4      11.178   6.551  50.2700  0.00  0.00     0.000 O
ATOM     56  HD  NAG B   4      10.906   6.431  49.4560  0.00  0.00     0.000 HD
ATOM     56   C  NAG B   4       8.751   6.812  48.5610  0.00  0.00     0.000 C
ATOM     57   O  NAG B   4       9.050   5.869  47.5230  0.00  0.00     0.000 O
ATOM     59  HD  NAG B   4       8.777   5.749  46.7100  0.00  0.00     0.000 HD
BRANCH 49 61
ATOM     59   N  NAG B   4       8.700   2.807  52.5770  0.00  0.00     0.000 N
ATOM     61  HD  NAG B   4       8.759   2.755  51.7150  0.00  0.00     0.000 HD
ATOM     61   O  NAG B   4       9.711   0.920  51.8580  0.00  0.00     0.000 OA
ATOM     62   C  NAG B   4       9.105   1.539  52.7190  0.00  0.00     0.000 C
ATOM     63   C  NAG B   4       8.786   0.902  54.0340  0.00  0.00     0.000 C
ENDBRANCH 49 61
BRANCH 48 64
ATOM     64  O4  BDP B   5       6.416   4.012  51.5630  0.00  0.00     0.000 O
BRANCH 64 68
ATOM     65  C1  BDP B   5       4.570   5.121  55.1310  0.00  0.00     0.000 C
ATOM     66  C2  BDP B   5       4.386   3.670  54.7080  0.00  0.00     0.000 C
ATOM     67  C3  BDP B   5       5.434   3.304  53.6650  0.00  0.00     0.000 C
ATOM     68  C4  BDP B   5       5.357   4.266  52.4850  0.00  0.00     0.000 C
ATOM     69  C5  BDP B   5       5.435   5.722  52.9250  0.00  0.00     0.000 C
ATOM     70  O5  BDP B   5       4.497   5.982  53.9840  0.00  0.00     0.000 O
ATOM     71   O  BDP B   5       4.467   2.818  55.8620  0.00  0.00     0.000 O
ATOM     73  HD  BDP B   5       4.544   2.350  56.5860  0.00  0.00     0.000 HD
ATOM     73   O  BDP B   5       5.231   1.965  53.1960  0.00  0.00     0.000 O
ATOM     75  HD  BDP B   5       5.308   1.497  53.9210  0.00  0.00     0.000 HD
BRANCH 69 75
ATOM     75   C  BDP B   5       5.110   6.594  51.7390  0.00  0.00     0.000 C
ATOM     76   O  BDP B   5       5.811   7.604  51.5260  0.00  0.00     0.000 OA
ATOM     77   O  BDP B   5       4.155   6.280  51.0040  0.00  0.00     0.000 OA
ENDBRANCH 69 75
BRANCH 65 78
ATOM     78  O3  NAG B   6       3.544   6.010  55.5800  0.00  0.00     0.000 O
BRANCH 78 81
ATOM     79  C1  NAG B   6       2.564   7.875  58.7270  0.00  0.00     0.000 C
ATOM     80  C2  NAG B   6       2.679   6.689  57.7550  0.00  0.00     0.000 C
ATOM     81  C3  NAG B   6       3.555   7.062  56.5700  0.00  0.00     0.000 C
ATOM     82  C4  NAG B   6       3.090   8.379  55.9400  0.00  0.00     0.000 C
ATOM     83  C5  NAG B   6       3.036   9.462  57.0110  0.00  0.00     0.000 C
ATOM     84  O5  NAG B   6       2.108   9.036  58.0100  0.00  0.00     0.000 O
BRANCH 80 87
ATOM     85   N  NAG B   6       2.041   5.407  58.0420  0.00  0.00     0.000 N
ATOM     87  HD  NAG B   6       1.899   4.579  57.8340  0.00  0.00     0.000 HD
ATOM     87   C  NAG B   6       2.710   4.295  58.3680  0.00  0.00     0.000 C
ATOM     88   C  NAG B   6       1.867   3.093  58.6580  0.00  0.00     0.000 C
ATOM     89   O  NAG B   6       3.932   4.247  58.4440  0.00  0.00     0.000 OA
ENDBRANCH 80 87
ATOM     90   O  NAG B   6       3.714  11.736  56.5460  0.00  0.00     0.000 O
ATOM     92  HD  NAG B   6       3.652  11.116  57.1470  0.00  0.00     0.000 HD
ATOM     92   O  NAG B   6       3.714  11.736  56.5460  0.00  0.00     0.000 O
ATOM     94  HD  NAG B   6       3.652  11.116  57.1470  0.00  0.00     0.000 HD
ENDBRANCH 78 81
ENDBRANCH 65 78
ENDBRANCH 64 68
ENDBRANCH 48 64
ENDBRANCH 47 50
ENDBRANCH 34 47
ENDBRANCH 33 37
ENDBRANCH 17 33
ENDBRANCH 16 19
ENDBRANCH 1 16
TORSDOF 16
ENDMDL
MODEL 28
REMARK VINA RESULT:      -3.7     15.687     20.629
ROOT
ATOM      1  C1  BDP B   1      18.537  35.712  18.8970  0.00  0.00     0.000 C
ATOM      2  C2  BDP B   1      19.232  37.035  18.6270  0.00  0.00     0.000 C
ATOM      3  C3  BDP B   1      20.367  37.291  19.5960  0.00  0.00     0.000 C
ATOM      4  C4  BDP B   1      20.801  36.060  20.3840  0.00  0.00     0.000 C
ATOM      5  C5  BDP B   1      19.622  35.285  20.9650  0.00  0.00     0.000 C
ATOM      6  O5  BDP B   1      18.386  35.604  20.3050  0.00  0.00     0.000 O
ATOM      7   O  BDP B   1      19.732  37.057  17.2860  0.00  0.00     0.000 O
ATOM      9  HD  BDP B   1      19.640  36.904  16.4380  0.00  0.00     0.000 HD
ATOM      9   O  BDP B   1      19.984  38.301  20.5430  0.00  0.00     0.000 O
ATOM     11  HD  BDP B   1      19.892  38.149  19.6950  0.00  0.00     0.000 HD
ATOM     11   O  BDP B   1      21.590  35.193  19.5600  0.00  0.00     0.000 O
ATOM     13  HD  BDP B   1      21.498  35.040  18.7130  0.00  0.00     0.000 HD
ENDROOT
BRANCH 5 13
ATOM     13   C  BDP B   1      19.528  35.643  22.4070  0.00  0.00     0.000 C
ATOM     14   O  BDP B   1      20.576  35.965  23.0040  0.00  0.00     0.000 OA
ATOM     15   O  BDP B   1      18.409  35.635  22.9640  0.00  0.00     0.000 OA
ENDBRANCH 5 13
BRANCH 1 16
ATOM     16  O3  NAG B   2      18.349  34.575  18.0570  0.00  0.00     0.000 O
BRANCH 16 19
ATOM     17  C1  NAG B   2      16.684  31.364  17.6440  0.00  0.00     0.000 C
ATOM     18  C2  NAG B   2      16.678  32.804  18.1570  0.00  0.00     0.000 C
ATOM     19  C3  NAG B   2      17.546  33.690  17.2750  0.00  0.00     0.000 C
ATOM     20  C4  NAG B   2      18.442  32.863  16.3480  0.00  0.00     0.000 C
ATOM     21  C5  NAG B   2      18.966  31.551  16.9480  0.00  0.00     0.000 C
ATOM     22  O5  NAG B   2      18.028  30.909  17.8190  0.00  0.00     0.000 O
ATOM     23   O  NAG B   2      17.721  32.591  15.1420  0.00  0.00     0.000 O
ATOM     25  HD  NAG B   2      16.969  32.436  15.5440  0.00  0.00     0.000 HD
ATOM     25   C  NAG B   2      20.269  31.793  17.7240  0.00  0.00     0.000 C
ATOM     26   O  NAG B   2      21.414  31.764  16.8620  0.00  0.00     0.000 O
ATOM     28  HD  NAG B   2      20.663  31.609  17.2630  0.00  0.00     0.000 HD
BRANCH 18 30
ATOM     28   N  NAG B   2      15.425  32.479  17.4770  0.00  0.00     0.000 N
ATOM     30  HD  NAG B   2      15.096  32.315  16.6930  0.00  0.00     0.000 HD
ATOM     30   C  NAG B   2      14.388  33.316  17.3370  0.00  0.00     0.000 C
ATOM     31   C  NAG B   2      13.207  32.743  16.6070  0.00  0.00     0.000 C
ATOM     32   O  NAG B   2      14.387  34.451  17.7540  0.00  0.00     0.000 OA
ENDBRANCH 18 30
BRANCH 17 33
ATOM     33  O4  BDP B   3      16.511  29.942  17.8290  0.00  0.00     0.000 O
BRANCH 33 37
ATOM     34  C1  BDP B   3      14.507  26.243  18.5680  0.00  0.00     0.000 C
ATOM     35  C2  BDP B   3      13.859  27.201  17.5750  0.00  0.00     0.000 C
ATOM     36  C3  BDP B   3      14.809  28.271  17.0490  0.00  0.00     0.000 C
ATOM     37  C4  BDP B   3      15.597  28.876  18.2200  0.00  0.00     0.000 C
ATOM     38  C5  BDP B   3      16.313  27.716  18.9380  0.00  0.00     0.000 C
ATOM     39  O5  BDP B   3      15.280  26.944  19.5500  0.00  0.00     0.000 O
ATOM     40   O  BDP B   3      13.326  26.389  16.5260  0.00  0.00     0.000 O
ATOM     42  HD  BDP B   3      12.701  26.305  17.1200  0.00  0.00     0.000 HD
ATOM     42   O  BDP B   3      14.003  29.247  16.3910  0.00  0.00     0.000 O
ATOM     44  HD  BDP B   3      13.378  29.163  16.9840  0.00  0.00     0.000 HD
BRANCH 38 44
ATOM     44   C  BDP B   3      17.304  28.146  19.9740  0.00  0.00     0.000 C
ATOM     45   O  BDP B   3      18.519  27.983  19.7250  0.00  0.00     0.000 OA
ATOM     46   O  BDP B   3      16.900  28.649  21.0450  0.00  0.00     0.000 OA
ENDBRANCH 38 44
BRANCH 34 47
ATOM     47  O3  NAG B   4      13.614  25.879  19.6180  0.00  0.00     0.000 O
BRANCH 47 50
ATOM     48  C1  NAG B   4      12.940  22.272  20.4450  0.00  0.00     0.000 C
ATOM     49  C2  NAG B   4      12.836  23.572  19.6670  0.00  0.00     0.000 C
ATOM     50  C3  NAG B   4      13.748  24.616  20.3020  0.00  0.00     0.000 C
ATOM     51  C4  NAG B   4      13.440  24.803  21.7790  0.00  0.00     0.000 C
ATOM     52  C5  NAG B   4      13.490  23.453  22.4950  0.00  0.00     0.000 C
ATOM     53  O5  NAG B   4      12.641  22.506  21.8350  0.00  0.00     0.000 O
ATOM     54   O  NAG B   4      14.393  25.709  22.3420  0.00  0.00     0.000 O
ATOM     56  HD  NAG B   4      13.712  25.577  22.8600  0.00  0.00     0.000 HD
ATOM     56   C  NAG B   4      13.065  23.583  23.9530  0.00  0.00     0.000 C
ATOM     57   O  NAG B   4      11.722  24.084  24.0050  0.00  0.00     0.000 O
ATOM     59  HD  NAG B   4      11.040  23.952  24.5230  0.00  0.00     0.000 HD
BRANCH 49 61
ATOM     59   N  NAG B   4      12.928  23.019  18.3150  0.00  0.00     0.000 N
ATOM     61  HD  NAG B   4      12.316  23.240  18.8870  0.00  0.00     0.000 HD
ATOM     61   O  NAG B   4      11.249  24.229  17.4110  0.00  0.00     0.000 OA
ATOM     62   C  NAG B   4      12.180  23.446  17.2910  0.00  0.00     0.000 C
ATOM     63   C  NAG B   4      12.562  22.916  15.9460  0.00  0.00     0.000 C
ENDBRANCH 49 61
BRANCH 48 64
ATOM     64  O4  BDP B   5      12.789  20.905  20.0730  0.00  0.00     0.000 O
BRANCH 64 68
ATOM     65  C1  BDP B   5       9.965  18.202  21.5210  0.00  0.00     0.000 C
ATOM     66  C2  BDP B   5      11.370  17.652  21.3130  0.00  0.00     0.000 C
ATOM     67  C3  BDP B   5      12.361  18.804  21.2070  0.00  0.00     0.000 C
ATOM     68  C4  BDP B   5      11.940  19.758  20.0950  0.00  0.00     0.000 C
ATOM     69  C5  BDP B   5      10.498  20.223  20.2510  0.00  0.00     0.000 C
ATOM     70  O5  BDP B   5       9.623  19.099  20.4520  0.00  0.00     0.000 O
ATOM     71   O  BDP B   5      11.703  16.762  22.3890  0.00  0.00     0.000 O
ATOM     73  HD  BDP B   5      11.861  16.252  23.0710  0.00  0.00     0.000 HD
ATOM     73   O  BDP B   5      13.678  18.311  20.9340  0.00  0.00     0.000 O
ATOM     75  HD  BDP B   5      13.835  17.800  21.6150  0.00  0.00     0.000 HD
BRANCH 69 75
ATOM     75   C  BDP B   5      10.098  20.955  18.9960  0.00  0.00     0.000 C
ATOM     76   O  BDP B   5      10.442  20.486  17.8920  0.00  0.00     0.000 OA
ATOM     77   O  BDP B   5       9.432  22.002  19.0940  0.00  0.00     0.000 OA
ENDBRANCH 69 75
BRANCH 65 78
ATOM     78  O3  NAG B   6       8.743  17.592  21.0970  0.00  0.00     0.000 O
BRANCH 78 81
ATOM     79  C1  NAG B   6       5.228  17.343  22.4800  0.00  0.00     0.000 C
ATOM     80  C2  NAG B   6       6.734  17.057  22.3670  0.00  0.00     0.000 C
ATOM     81  C3  NAG B   6       7.364  17.959  21.3180  0.00  0.00     0.000 C
ATOM     82  C4  NAG B   6       6.586  17.889  20.0000  0.00  0.00     0.000 C
ATOM     83  C5  NAG B   6       5.118  18.206  20.2600  0.00  0.00     0.000 C
ATOM     84  O5  NAG B   6       4.622  17.232  21.1800  0.00  0.00     0.000 O
BRANCH 80 87
ATOM     85   N  NAG B   6       7.201  17.098  23.7500  0.00  0.00     0.000 N
ATOM     87  HD  NAG B   6       7.324  16.702  24.5100  0.00  0.00     0.000 HD
ATOM     87   C  NAG B   6       8.238  16.388  24.2120  0.00  0.00     0.000 C
ATOM     88   C  NAG B   6       8.578  16.598  25.6530  0.00  0.00     0.000 C
ATOM     89   O  NAG B   6       8.888  15.621  23.5110  0.00  0.00     0.000 OA
ENDBRANCH 80 87
ATOM     90   O  NAG B   6       3.813  19.520  18.7060  0.00  0.00     0.000 O
ATOM     92  HD  NAG B   6       3.929  19.297  19.5350  0.00  0.00     0.000 HD
ATOM     92   O  NAG B   6       3.813  19.520  18.7060  0.00  0.00     0.000 O
ATOM     94  HD  NAG B   6       3.929  19.297  19.5350  0.00  0.00     0.000 HD
ENDBRANCH 78 81
ENDBRANCH 65 78
ENDBRANCH 64 68
ENDBRANCH 48 64
ENDBRANCH 47 50
ENDBRANCH 34 47
ENDBRANCH 33 37
ENDBRANCH 17 33
ENDBRANCH 16 19
ENDBRANCH 1 16
TORSDOF 16
ENDMDL
MODEL 29
REMARK VINA RESULT:      -3.5     14.902     19.874
ROOT
ATOM      1  C1  BDP B   1      19.644  34.962  18.0850  0.00  0.00     0.000 C
ATOM      2  C2  BDP B   1      20.292  36.163  17.4180  0.00  0.00     0.000 C
ATOM      3  C3  BDP B   1      21.574  36.575  18.1090  0.00  0.00     0.000 C
ATOM      4  C4  BDP B   1      22.127  35.528  19.0690  0.00  0.00     0.000 C
ATOM      5  C5  BDP B   1      21.058  34.950  19.9920  0.00  0.00     0.000 C
ATOM      6  O5  BDP B   1      19.730  35.170  19.4870  0.00  0.00     0.000 O
ATOM      7   O  BDP B   1      20.559  35.870  16.0420  0.00  0.00     0.000 O
ATOM      9  HD  BDP B   1      20.325  35.540  15.2760  0.00  0.00     0.000 HD
ATOM      9   O  BDP B   1      21.361  37.783  18.8560  0.00  0.00     0.000 O
ATOM     11  HD  BDP B   1      21.127  37.453  18.0900  0.00  0.00     0.000 HD
ATOM     11   O  BDP B   1      22.762  34.469  18.3420  0.00  0.00     0.000 O
ATOM     13  HD  BDP B   1      22.528  34.140  17.5760  0.00  0.00     0.000 HD
ENDROOT
BRANCH 5 13
ATOM     13   C  BDP B   1      21.210  35.618  21.3140  0.00  0.00     0.000 C
ATOM     14   O  BDP B   1      21.962  35.089  22.1580  0.00  0.00     0.000 OA
ATOM     15   O  BDP B   1      20.605  36.691  21.5260  0.00  0.00     0.000 OA
ENDBRANCH 5 13
BRANCH 1 16
ATOM     16  O3  NAG B   2      19.310  33.679  17.5600  0.00  0.00     0.000 O
BRANCH 16 19
ATOM     17  C1  NAG B   2      17.789  30.390  17.9170  0.00  0.00     0.000 C
ATOM     18  C2  NAG B   2      17.833  31.877  18.2720  0.00  0.00     0.000 C
ATOM     19  C3  NAG B   2      18.384  32.689  17.1100  0.00  0.00     0.000 C
ATOM     20  C4  NAG B   2      19.052  31.796  16.0600  0.00  0.00     0.000 C
ATOM     21  C5  NAG B   2      19.792  30.574  16.6200  0.00  0.00     0.000 C
ATOM     22  O5  NAG B   2      19.155  30.000  17.7680  0.00  0.00     0.000 O
ATOM     23   O  NAG B   2      18.056  31.373  15.1230  0.00  0.00     0.000 O
ATOM     25  HD  NAG B   2      17.447  31.238  15.7250  0.00  0.00     0.000 HD
ATOM     25   C  NAG B   2      21.236  30.939  16.9920  0.00  0.00     0.000 C
ATOM     26   O  NAG B   2      22.114  30.853  15.8610  0.00  0.00     0.000 O
ATOM     28  HD  NAG B   2      21.505  30.719  16.4620  0.00  0.00     0.000 HD
BRANCH 18 30
ATOM     28   N  NAG B   2      16.587  31.987  17.5160  0.00  0.00     0.000 N
ATOM     30  HD  NAG B   2      16.174  32.495  16.9480  0.00  0.00     0.000 HD
ATOM     30   C  NAG B   2      15.381  32.225  18.0520  0.00  0.00     0.000 C
ATOM     31   C  NAG B   2      14.251  32.282  17.0640  0.00  0.00     0.000 C
ATOM     32   O  NAG B   2      15.200  32.390  19.2360  0.00  0.00     0.000 OA
ENDBRANCH 18 30
BRANCH 17 33
ATOM     33  O4  BDP B   3      17.754  28.992  18.2760  0.00  0.00     0.000 O
BRANCH 33 37
ATOM     34  C1  BDP B   3      15.880  25.284  19.2640  0.00  0.00     0.000 C
ATOM     35  C2  BDP B   3      14.995  26.378  18.6810  0.00  0.00     0.000 C
ATOM     36  C3  BDP B   3      15.774  27.482  17.9730  0.00  0.00     0.000 C
ATOM     37  C4  BDP B   3      16.963  27.909  18.8470  0.00  0.00     0.000 C
ATOM     38  C5  BDP B   3      17.801  26.647  19.1280  0.00  0.00     0.000 C
ATOM     39  O5  BDP B   3      16.995  25.831  19.9780  0.00  0.00     0.000 O
ATOM     40   O  BDP B   3      14.072  25.723  17.8080  0.00  0.00     0.000 O
ATOM     42  HD  BDP B   3      13.690  25.580  18.5720  0.00  0.00     0.000 HD
ATOM     42   O  BDP B   3      14.859  28.556  17.7590  0.00  0.00     0.000 O
ATOM     44  HD  BDP B   3      14.478  28.412  18.5230  0.00  0.00     0.000 HD
BRANCH 38 44
ATOM     44   C  BDP B   3      19.120  26.913  19.7830  0.00  0.00     0.000 C
ATOM     45   O  BDP B   3      20.158  26.606  19.1560  0.00  0.00     0.000 OA
ATOM     46   O  BDP B   3      19.152  27.427  20.9230  0.00  0.00     0.000 OA
ENDBRANCH 38 44
BRANCH 34 47
ATOM     47  O3  NAG B   4      15.388  24.811  20.5170  0.00  0.00     0.000 O
BRANCH 47 50
ATOM     48  C1  NAG B   4      14.316  21.220  20.8470  0.00  0.00     0.000 C
ATOM     49  C2  NAG B   4      14.233  22.670  20.4030  0.00  0.00     0.000 C
ATOM     50  C3  NAG B   4      15.479  23.415  20.8700  0.00  0.00     0.000 C
ATOM     51  C4  NAG B   4      15.679  23.284  22.3720  0.00  0.00     0.000 C
ATOM     52  C5  NAG B   4      15.684  21.807  22.7680  0.00  0.00     0.000 C
ATOM     53  O5  NAG B   4      14.508  21.154  22.2740  0.00  0.00     0.000 O
ATOM     54   O  NAG B   4      16.914  23.908  22.7330  0.00  0.00     0.000 O
ATOM     56  HD  NAG B   4      16.411  23.741  23.4190  0.00  0.00     0.000 HD
ATOM     56   C  NAG B   4      15.757  21.640  24.2810  0.00  0.00     0.000 C
ATOM     57   O  NAG B   4      14.617  22.274  24.8770  0.00  0.00     0.000 O
ATOM     59  HD  NAG B   4      14.114  22.108  25.5620  0.00  0.00     0.000 HD
BRANCH 49 61
ATOM     59   N  NAG B   4      12.882  22.990  20.8650  0.00  0.00     0.000 N
ATOM     61  HD  NAG B   4      13.525  23.368  20.4240  0.00  0.00     0.000 HD
ATOM     61   O  NAG B   4      12.191  24.030  18.9820  0.00  0.00     0.000 OA
ATOM     62   C  NAG B   4      11.958  23.575  20.0920  0.00  0.00     0.000 C
ATOM     63   C  NAG B   4      10.576  23.627  20.6630  0.00  0.00     0.000 C
ENDBRANCH 49 61
BRANCH 48 64
ATOM     64  O4  BDP B   5      13.798  20.009  20.3050  0.00  0.00     0.000 O
BRANCH 64 68
ATOM     65  C1  BDP B   5      10.109  18.358  21.3200  0.00  0.00     0.000 C
ATOM     66  C2  BDP B   5      11.333  17.527  21.6810  0.00  0.00     0.000 C
ATOM     67  C3  BDP B   5      12.575  18.408  21.6560  0.00  0.00     0.000 C
ATOM     68  C4  BDP B   5      12.712  19.084  20.2960  0.00  0.00     0.000 C
ATOM     69  C5  BDP B   5      11.445  19.827  19.8940  0.00  0.00     0.000 C
ATOM     70  O5  BDP B   5      10.293  18.977  20.0370  0.00  0.00     0.000 O
ATOM     71   O  BDP B   5      11.140  16.918  22.9670  0.00  0.00     0.000 O
ATOM     73  HD  BDP B   5      10.981  16.592  23.7530  0.00  0.00     0.000 HD
ATOM     73   O  BDP B   5      13.749  17.630  21.9170  0.00  0.00     0.000 O
ATOM     75  HD  BDP B   5      13.590  17.304  22.7030  0.00  0.00     0.000 HD
BRANCH 69 75
ATOM     75   C  BDP B   5      11.581  20.250  18.4530  0.00  0.00     0.000 C
ATOM     76   O  BDP B   5      12.493  19.749  17.7640  0.00  0.00     0.000 OA
ATOM     77   O  BDP B   5      10.780  21.083  17.9910  0.00  0.00     0.000 OA
ENDBRANCH 69 75
BRANCH 65 78
ATOM     78  O3  NAG B   6       8.925  17.887  20.6700  0.00  0.00     0.000 O
BRANCH 78 81
ATOM     79  C1  NAG B   6       5.243  17.819  21.5460  0.00  0.00     0.000 C
ATOM     80  C2  NAG B   6       6.727  17.428  21.6170  0.00  0.00     0.000 C
ATOM     81  C3  NAG B   6       7.556  18.342  20.7290  0.00  0.00     0.000 C
ATOM     82  C4  NAG B   6       6.966  18.412  19.3160  0.00  0.00     0.000 C
ATOM     83  C5  NAG B   6       5.500  18.822  19.3990  0.00  0.00     0.000 C
ATOM     84  O5  NAG B   6       4.818  17.834  20.1720  0.00  0.00     0.000 O
BRANCH 80 87
ATOM     85   N  NAG B   6       7.191  16.347  22.4820  0.00  0.00     0.000 N
ATOM     87  HD  NAG B   6       7.841  15.886  22.8210  0.00  0.00     0.000 HD
ATOM     87   C  NAG B   6       7.912  16.534  23.5940  0.00  0.00     0.000 C
ATOM     88   C  NAG B   6       8.257  15.297  24.3600  0.00  0.00     0.000 C
ATOM     89   O  NAG B   6       8.262  17.642  23.9850  0.00  0.00     0.000 OA
ENDBRANCH 80 87
ATOM     90   O  NAG B   6       4.514  20.325  17.7810  0.00  0.00     0.000 O
ATOM     92  HD  NAG B   6       4.499  20.043  18.6000  0.00  0.00     0.000 HD
ATOM     92   O  NAG B   6       4.514  20.325  17.7810  0.00  0.00     0.000 O
ATOM     94  HD  NAG B   6       4.499  20.043  18.6000  0.00  0.00     0.000 HD
ENDBRANCH 78 81
ENDBRANCH 65 78
ENDBRANCH 64 68
ENDBRANCH 48 64
ENDBRANCH 47 50
ENDBRANCH 34 47
ENDBRANCH 33 37
ENDBRANCH 17 33
ENDBRANCH 16 19
ENDBRANCH 1 16
TORSDOF 16
ENDMDL
MODEL 30
REMARK VINA RESULT:      -3.4     22.257     25.759
ROOT
ATOM      1  C1  BDP B   1      21.581  15.613  54.0210  0.00  0.00     0.000 C
ATOM      2  C2  BDP B   1      22.690  16.646  53.9330  0.00  0.00     0.000 C
ATOM      3  C3  BDP B   1      23.758  16.428  54.9830  0.00  0.00     0.000 C
ATOM      4  C4  BDP B   1      23.698  15.061  55.6550  0.00  0.00     0.000 C
ATOM      5  C5  BDP B   1      22.286  14.676  56.0860  0.00  0.00     0.000 C
ATOM      6  O5  BDP B   1      21.282  15.442  55.3990  0.00  0.00     0.000 O
ATOM      7   O  BDP B   1      23.283  16.614  52.6300  0.00  0.00     0.000 O
ATOM      9  HD  BDP B   1      23.219  16.573  51.7670  0.00  0.00     0.000 HD
ATOM      9   O  BDP B   1      23.645  17.424  56.0110  0.00  0.00     0.000 O
ATOM     11  HD  BDP B   1      23.582  17.383  55.1480  0.00  0.00     0.000 HD
ATOM     11   O  BDP B   1      24.230  14.053  54.7860  0.00  0.00     0.000 O
ATOM     13  HD  BDP B   1      24.166  14.012  53.9230  0.00  0.00     0.000 HD
ENDROOT
BRANCH 5 13
ATOM     13   C  BDP B   1      22.190  14.922  57.5510  0.00  0.00     0.000 C
ATOM     14   O  BDP B   1      21.810  16.047  57.9360  0.00  0.00     0.000 OA
ATOM     15   O  BDP B   1      22.465  13.995  58.3430  0.00  0.00     0.000 OA
ENDBRANCH 5 13
BRANCH 1 16
ATOM     16  O3  NAG B   2      21.106  14.678  53.0540  0.00  0.00     0.000 O
BRANCH 16 19
ATOM     17  C1  NAG B   2      18.689  11.972  52.7490  0.00  0.00     0.000 C
ATOM     18  C2  NAG B   2      19.062  13.367  53.2530  0.00  0.00     0.000 C
ATOM     19  C3  NAG B   2      20.071  14.021  52.3210  0.00  0.00     0.000 C
ATOM     20  C4  NAG B   2      20.689  13.008  51.3530  0.00  0.00     0.000 C
ATOM     21  C5  NAG B   2      20.908  11.603  51.9320  0.00  0.00     0.000 C
ATOM     22  O5  NAG B   2      19.889  11.202  52.8550  0.00  0.00     0.000 O
ATOM     23   O  NAG B   2      19.860  12.928  50.1880  0.00  0.00     0.000 O
ATOM     25  HD  NAG B   2      19.116  12.958  50.6300  0.00  0.00     0.000 HD
ATOM     25   C  NAG B   2      22.269  11.515  52.6360  0.00  0.00     0.000 C
ATOM     26   O  NAG B   2      23.326  11.214  51.7140  0.00  0.00     0.000 O
ATOM     28  HD  NAG B   2      22.582  11.243  52.1560  0.00  0.00     0.000 HD
BRANCH 18 30
ATOM     28   N  NAG B   2      18.254  14.286  52.4520  0.00  0.00     0.000 N
ATOM     30  HD  NAG B   2      18.098  15.129  52.3300  0.00  0.00     0.000 HD
ATOM     30   C  NAG B   2      16.925  14.428  52.5530  0.00  0.00     0.000 C
ATOM     31   C  NAG B   2      16.323  15.432  51.6120  0.00  0.00     0.000 C
ATOM     32   O  NAG B   2      16.247  13.809  53.3400  0.00  0.00     0.000 OA
ENDBRANCH 18 30
BRANCH 17 33
ATOM     33  O4  BDP B   3      18.185  10.634  52.9510  0.00  0.00     0.000 O
BRANCH 33 37
ATOM     34  C1  BDP B   3      14.711   8.586  51.5450  0.00  0.00     0.000 C
ATOM     35  C2  BDP B   3      14.718   9.024  53.0050  0.00  0.00     0.000 C
ATOM     36  C3  BDP B   3      15.763  10.090  53.3170  0.00  0.00     0.000 C
ATOM     37  C4  BDP B   3      17.103   9.696  52.6780  0.00  0.00     0.000 C
ATOM     38  C5  BDP B   3      16.852   9.503  51.1700  0.00  0.00     0.000 C
ATOM     39  O5  BDP B   3      16.036   8.337  51.0610  0.00  0.00     0.000 O
ATOM     40   O  BDP B   3      13.391   9.465  53.2970  0.00  0.00     0.000 O
ATOM     42  HD  BDP B   3      13.289   8.608  53.3730  0.00  0.00     0.000 HD
ATOM     42   O  BDP B   3      15.855  10.169  54.7380  0.00  0.00     0.000 O
ATOM     44  HD  BDP B   3      15.754   9.312  54.8140  0.00  0.00     0.000 HD
BRANCH 38 44
ATOM     44   C  BDP B   3      18.094   9.330  50.3530  0.00  0.00     0.000 C
ATOM     45   O  BDP B   3      18.692   8.234  50.4210  0.00  0.00     0.000 OA
ATOM     46   O  BDP B   3      18.497  10.271  49.6340  0.00  0.00     0.000 OA
ENDBRANCH 38 44
BRANCH 34 47
ATOM     47  O3  NAG B   4      14.464   7.187  51.4080  0.00  0.00     0.000 O
BRANCH 47 50
ATOM     48  C1  NAG B   4      12.045   6.071  48.7520  0.00  0.00     0.000 C
ATOM     49  C2  NAG B   4      12.500   6.725  50.0460  0.00  0.00     0.000 C
ATOM     50  C3  NAG B   4      14.017   6.631  50.1550  0.00  0.00     0.000 C
ATOM     51  C4  NAG B   4      14.499   5.194  50.0370  0.00  0.00     0.000 C
ATOM     52  C5  NAG B   4      13.954   4.568  48.7530  0.00  0.00     0.000 C
ATOM     53  O5  NAG B   4      12.530   4.715  48.6910  0.00  0.00     0.000 O
ATOM     54   O  NAG B   4      15.929   5.181  50.0370  0.00  0.00     0.000 O
ATOM     56  HD  NAG B   4      15.588   4.395  50.1640  0.00  0.00     0.000 HD
ATOM     56   C  NAG B   4      14.313   3.089  48.6630  0.00  0.00     0.000 C
ATOM     57   O  NAG B   4      13.749   2.401  49.7880  0.00  0.00     0.000 O
ATOM     59  HD  NAG B   4      13.408   1.616  49.9150  0.00  0.00     0.000 HD
BRANCH 49 61
ATOM     59   N  NAG B   4      11.795   8.007  50.0030  0.00  0.00     0.000 N
ATOM     61  HD  NAG B   4      11.664   7.202  50.2960  0.00  0.00     0.000 HD
ATOM     61   O  NAG B   4      10.981   7.939  52.1090  0.00  0.00     0.000 OA
ATOM     62   C  NAG B   4      11.161   8.535  51.0570  0.00  0.00     0.000 C
ATOM     63   C  NAG B   4      10.685   9.943  50.8870  0.00  0.00     0.000 C
ENDBRANCH 49 61
BRANCH 48 64
ATOM     64  O4  BDP B   5      10.935   6.298  47.8890  0.00  0.00     0.000 O
BRANCH 64 68
ATOM     65  C1  BDP B   5       6.964   6.756  49.0710  0.00  0.00     0.000 C
ATOM     66  C2  BDP B   5       7.360   5.368  48.5870  0.00  0.00     0.000 C
ATOM     67  C3  BDP B   5       8.877   5.232  48.6060  0.00  0.00     0.000 C
ATOM     68  C4  BDP B   5       9.513   6.340  47.7730  0.00  0.00     0.000 C
ATOM     69  C5  BDP B   5       9.032   7.722  48.1940  0.00  0.00     0.000 C
ATOM     70  O5  BDP B   5       7.596   7.760  48.2600  0.00  0.00     0.000 O
ATOM     71   O  BDP B   5       6.728   4.373  49.4080  0.00  0.00     0.000 O
ATOM     73  HD  BDP B   5       6.340   3.816  49.9450  0.00  0.00     0.000 HD
ATOM     73   O  BDP B   5       9.275   3.959  48.0810  0.00  0.00     0.000 O
ATOM     75  HD  BDP B   5       8.886   3.402  48.6180  0.00  0.00     0.000 HD
BRANCH 69 75
ATOM     75   C  BDP B   5       9.515   8.722  47.1740  0.00  0.00     0.000 C
ATOM     76   O  BDP B   5       8.975   8.741  46.0500  0.00  0.00     0.000 OA
ATOM     77   O  BDP B   5      10.436   9.502  47.4830  0.00  0.00     0.000 OA
ENDBRANCH 69 75
BRANCH 65 78
ATOM     78  O3  NAG B   6       5.803   7.493  48.6780  0.00  0.00     0.000 O
BRANCH 78 81
ATOM     79  C1  NAG B   6       2.918   9.059  50.5620  0.00  0.00     0.000 C
ATOM     80  C2  NAG B   6       3.797   7.938  49.9860  0.00  0.00     0.000 C
ATOM     81  C3  NAG B   6       5.049   8.522  49.3540  0.00  0.00     0.000 C
ATOM     82  C4  NAG B   6       4.693   9.642  48.3700  0.00  0.00     0.000 C
ATOM     83  C5  NAG B   6       3.835  10.684  49.0780  0.00  0.00     0.000 C
ATOM     84  O5  NAG B   6       2.650  10.031  49.5350  0.00  0.00     0.000 O
BRANCH 80 87
ATOM     85   N  NAG B   6       4.073   6.992  51.0640  0.00  0.00     0.000 N
ATOM     87  HD  NAG B   6       3.803   6.365  51.5970  0.00  0.00     0.000 HD
ATOM     87   C  NAG B   6       4.057   5.662  50.9150  0.00  0.00     0.000 C
ATOM     88   C  NAG B   6       4.402   4.868  52.1350  0.00  0.00     0.000 C
ATOM     89   O  NAG B   6       3.793   5.111  49.8530  0.00  0.00     0.000 OA
ENDBRANCH 80 87
ATOM     90   O  NAG B   6       4.107  13.048  48.6490  0.00  0.00     0.000 O
ATOM     92  HD  NAG B   6       3.885  12.447  49.2300  0.00  0.00     0.000 HD
ATOM     92   O  NAG B   6       4.107  13.048  48.6490  0.00  0.00     0.000 O
ATOM     94  HD  NAG B   6       3.885  12.447  49.2300  0.00  0.00     0.000 HD
ENDBRANCH 78 81
ENDBRANCH 65 78
ENDBRANCH 64 68
ENDBRANCH 48 64
ENDBRANCH 47 50
ENDBRANCH 34 47
ENDBRANCH 33 37
ENDBRANCH 17 33
ENDBRANCH 16 19
ENDBRANCH 1 16
TORSDOF 16
ENDMDL
MODEL 31
REMARK VINA RESULT:      -3.4     16.331     22.914
ROOT
ATOM      1  C1  BDP B   1      19.173  36.772  15.3310  0.00  0.00     0.000 C
ATOM      2  C2  BDP B   1      19.050  37.156  13.8680  0.00  0.00     0.000 C
ATOM      3  C3  BDP B   1      20.402  37.291  13.1990  0.00  0.00     0.000 C
ATOM      4  C4  BDP B   1      21.553  36.687  13.9960  0.00  0.00     0.000 C
ATOM      5  C5  BDP B   1      21.523  37.082  15.4690  0.00  0.00     0.000 C
ATOM      6  O5  BDP B   1      20.227  37.551  15.8780  0.00  0.00     0.000 O
ATOM      7   O  BDP B   1      18.266  36.180  13.1730  0.00  0.00     0.000 O
ATOM      9  HD  BDP B   1      17.577  35.658  13.1180  0.00  0.00     0.000 HD
ATOM      9   O  BDP B   1      20.704  38.679  12.9810  0.00  0.00     0.000 O
ATOM     11  HD  BDP B   1      20.015  38.156  12.9270  0.00  0.00     0.000 HD
ATOM     11   O  BDP B   1      21.546  35.259  13.8780  0.00  0.00     0.000 O
ATOM     13  HD  BDP B   1      20.857  34.736  13.8240  0.00  0.00     0.000 HD
ENDROOT
BRANCH 5 13
ATOM     13   C  BDP B   1      22.530  38.163  15.6560  0.00  0.00     0.000 C
ATOM     14   O  BDP B   1      22.147  39.348  15.5610  0.00  0.00     0.000 OA
ATOM     15   O  BDP B   1      23.710  37.854  15.9250  0.00  0.00     0.000 OA
ENDBRANCH 5 13
BRANCH 1 16
ATOM     16  O3  NAG B   2      18.660  35.645  16.0400  0.00  0.00     0.000 O
BRANCH 16 19
ATOM     17  C1  NAG B   2      17.999  32.159  15.2270  0.00  0.00     0.000 C
ATOM     18  C2  NAG B   2      18.932  33.370  15.2130  0.00  0.00     0.000 C
ATOM     19  C3  NAG B   2      18.664  34.266  16.4130  0.00  0.00     0.000 C
ATOM     20  C4  NAG B   2      17.341  33.914  17.1000  0.00  0.00     0.000 C
ATOM     21  C5  NAG B   2      16.218  33.459  16.1580  0.00  0.00     0.000 C
ATOM     22  O5  NAG B   2      16.686  32.694  15.0410  0.00  0.00     0.000 O
ATOM     23   O  NAG B   2      17.594  32.899  18.0780  0.00  0.00     0.000 O
ATOM     25  HD  NAG B   2      18.147  32.457  17.5790  0.00  0.00     0.000 HD
ATOM     25   C  NAG B   2      15.433  34.668  15.6290  0.00  0.00     0.000 C
ATOM     26   O  NAG B   2      14.400  35.070  16.5390  0.00  0.00     0.000 O
ATOM     28  HD  NAG B   2      14.952  34.628  16.0400  0.00  0.00     0.000 HD
BRANCH 18 30
ATOM     28   N  NAG B   2      19.814  32.767  16.2110  0.00  0.00     0.000 N
ATOM     30  HD  NAG B   2      20.367  32.970  16.8460  0.00  0.00     0.000 HD
ATOM     30   C  NAG B   2      20.944  32.101  15.9350  0.00  0.00     0.000 C
ATOM     31   C  NAG B   2      21.671  31.565  17.1350  0.00  0.00     0.000 C
ATOM     32   O  NAG B   2      21.365  31.939  14.8130  0.00  0.00     0.000 OA
ENDBRANCH 18 30
BRANCH 17 33
ATOM     33  O4  BDP B   3      17.307  31.072  14.5740  0.00  0.00     0.000 O
BRANCH 33 37
ATOM     34  C1  BDP B   3      16.009  27.056  15.2290  0.00  0.00     0.000 C
ATOM     35  C2  BDP B   3      17.465  27.378  15.5450  0.00  0.00     0.000 C
ATOM     36  C3  BDP B   3      17.741  28.870  15.6960  0.00  0.00     0.000 C
ATOM     37  C4  BDP B   3      17.070  29.634  14.5450  0.00  0.00     0.000 C
ATOM     38  C5  BDP B   3      15.571  29.280  14.5730  0.00  0.00     0.000 C
ATOM     39  O5  BDP B   3      15.493  27.905  14.1970  0.00  0.00     0.000 O
ATOM     40   O  BDP B   3      17.788  26.645  16.7290  0.00  0.00     0.000 O
ATOM     42  HD  BDP B   3      17.873  26.022  16.1340  0.00  0.00     0.000 HD
ATOM     42   O  BDP B   3      19.159  29.027  15.6830  0.00  0.00     0.000 O
ATOM     44  HD  BDP B   3      19.244  28.404  15.0870  0.00  0.00     0.000 HD
BRANCH 38 44
ATOM     44   C  BDP B   3      14.723  30.105  13.6560  0.00  0.00     0.000 C
ATOM     45   O  BDP B   3      13.998  30.987  14.1660  0.00  0.00     0.000 OA
ATOM     46   O  BDP B   3      14.759  29.894  12.4240  0.00  0.00     0.000 OA
ENDBRANCH 38 44
BRANCH 34 47
ATOM     47  O3  NAG B   4      15.890  25.970  14.3110  0.00  0.00     0.000 O
BRANCH 47 50
ATOM     48  C1  NAG B   4      13.207  23.354  14.6320  0.00  0.00     0.000 C
ATOM     49  C2  NAG B   4      14.518  24.057  14.9340  0.00  0.00     0.000 C
ATOM     50  C3  NAG B   4      14.621  25.322  14.0890  0.00  0.00     0.000 C
ATOM     51  C4  NAG B   4      14.458  25.020  12.6080  0.00  0.00     0.000 C
ATOM     52  C5  NAG B   4      13.157  24.251  12.3750  0.00  0.00     0.000 C
ATOM     53  O5  NAG B   4      13.103  23.094  13.2190  0.00  0.00     0.000 O
ATOM     54   O  NAG B   4      14.454  26.250  11.8790  0.00  0.00     0.000 O
ATOM     56  HD  NAG B   4      14.559  25.560  11.3670  0.00  0.00     0.000 HD
ATOM     56   C  NAG B   4      13.021  23.822  10.9190  0.00  0.00     0.000 C
ATOM     57   O  NAG B   4      14.125  22.974  10.5760  0.00  0.00     0.000 O
ATOM     59  HD  NAG B   4      14.230  22.284  10.0640  0.00  0.00     0.000 HD
BRANCH 49 61
ATOM     59   N  NAG B   4      14.542  24.156  16.3940  0.00  0.00     0.000 N
ATOM     61  HD  NAG B   4      14.781  23.598  15.7760  0.00  0.00     0.000 HD
ATOM     61   O  NAG B   4      16.621  23.325  16.6890  0.00  0.00     0.000 OA
ATOM     62   C  NAG B   4      15.613  23.851  17.1360  0.00  0.00     0.000 C
ATOM     63   C  NAG B   4      15.522  24.217  18.5840  0.00  0.00     0.000 C
ENDBRANCH 49 61
BRANCH 48 64
ATOM     64  O4  BDP B   5      12.353  22.518  15.4090  0.00  0.00     0.000 O
BRANCH 64 68
ATOM     65  C1  BDP B   5       9.174  21.091  17.6960  0.00  0.00     0.000 C
ATOM     66  C2  BDP B   5       8.996  22.481  17.1000  0.00  0.00     0.000 C
ATOM     67  C3  BDP B   5      10.001  22.689  15.9740  0.00  0.00     0.000 C
ATOM     68  C4  BDP B   5      11.418  22.453  16.4840  0.00  0.00     0.000 C
ATOM     69  C5  BDP B   5      11.563  21.102  17.1730  0.00  0.00     0.000 C
ATOM     70  O5  BDP B   5      10.525  20.920  18.1520  0.00  0.00     0.000 O
ATOM     71   O  BDP B   5       7.645  22.640  16.6420  0.00  0.00     0.000 O
ATOM     73  HD  BDP B   5       6.825  22.675  16.3650  0.00  0.00     0.000 HD
ATOM     73   O  BDP B   5       9.902  24.019  15.4510  0.00  0.00     0.000 O
ATOM     75  HD  BDP B   5       9.082  24.054  15.1740  0.00  0.00     0.000 HD
BRANCH 69 75
ATOM     75   C  BDP B   5      12.909  21.059  17.8510  0.00  0.00     0.000 C
ATOM     76   O  BDP B   5      13.068  21.700  18.9090  0.00  0.00     0.000 OA
ATOM     77   O  BDP B   5      13.820  20.381  17.3400  0.00  0.00     0.000 OA
ENDBRANCH 69 75
BRANCH 65 78
ATOM     78  O3  NAG B   6       8.909  20.706  19.0470  0.00  0.00     0.000 O
BRANCH 78 81
ATOM     79  C1  NAG B   6       7.043  17.827  20.6480  0.00  0.00     0.000 C
ATOM     80  C2  NAG B   6       7.236  19.132  19.8590  0.00  0.00     0.000 C
ATOM     81  C3  NAG B   6       8.716  19.409  19.6520  0.00  0.00     0.000 C
ATOM     82  C4  NAG B   6       9.476  19.333  20.9800  0.00  0.00     0.000 C
ATOM     83  C5  NAG B   6       9.204  17.988  21.6430  0.00  0.00     0.000 C
ATOM     84  O5  NAG B   6       7.797  17.895  21.8720  0.00  0.00     0.000 O
BRANCH 80 87
ATOM     85   N  NAG B   6       6.421  18.990  18.6550  0.00  0.00     0.000 N
ATOM     87  HD  NAG B   6       5.645  19.009  18.2700  0.00  0.00     0.000 HD
ATOM     87   C  NAG B   6       5.750  19.997  18.0820  0.00  0.00     0.000 C
ATOM     88   C  NAG B   6       5.003  19.652  16.8340  0.00  0.00     0.000 C
ATOM     89   O  NAG B   6       5.749  21.139  18.5270  0.00  0.00     0.000 OA
ENDBRANCH 80 87
ATOM     90   O  NAG B   6      10.941  16.783  22.8190  0.00  0.00     0.000 O
ATOM     92  HD  NAG B   6      10.214  16.719  22.3520  0.00  0.00     0.000 HD
ATOM     92   O  NAG B   6      10.941  16.783  22.8190  0.00  0.00     0.000 O
ATOM     94  HD  NAG B   6      10.214  16.719  22.3520  0.00  0.00     0.000 HD
ENDBRANCH 78 81
ENDBRANCH 65 78
ENDBRANCH 64 68
ENDBRANCH 48 64
ENDBRANCH 47 50
ENDBRANCH 34 47
ENDBRANCH 33 37
ENDBRANCH 17 33
ENDBRANCH 16 19
ENDBRANCH 1 16
TORSDOF 16
ENDMDL
MODEL 32
REMARK VINA RESULT:      -3.3     19.944     24.302
ROOT
ATOM      1  C1  BDP B   1      22.301  12.368  52.6890  0.00  0.00     0.000 C
ATOM      2  C2  BDP B   1      22.531  13.612  53.5280  0.00  0.00     0.000 C
ATOM      3  C3  BDP B   1      23.970  14.079  53.4730  0.00  0.00     0.000 C
ATOM      4  C4  BDP B   1      24.784  13.450  52.3480  0.00  0.00     0.000 C
ATOM      5  C5  BDP B   1      24.596  11.939  52.2560  0.00  0.00     0.000 C
ATOM      6  O5  BDP B   1      23.401  11.500  52.9240  0.00  0.00     0.000 O
ATOM      7   O  BDP B   1      21.666  14.664  53.0850  0.00  0.00     0.000 O
ATOM      9  HD  BDP B   1      20.892  14.952  52.8260  0.00  0.00     0.000 HD
ATOM      9   O  BDP B   1      24.631  13.776  54.7120  0.00  0.00     0.000 O
ATOM     11  HD  BDP B   1      23.856  14.064  54.4520  0.00  0.00     0.000 HD
ATOM     11   O  BDP B   1      24.453  14.056  51.0930  0.00  0.00     0.000 O
ATOM     13  HD  BDP B   1      23.679  14.345  50.8330  0.00  0.00     0.000 HD
ENDROOT
BRANCH 5 13
ATOM     13   C  BDP B   1      25.786  11.307  52.8890  0.00  0.00     0.000 C
ATOM     14   O  BDP B   1      26.775  11.060  52.1690  0.00  0.00     0.000 OA
ATOM     15   O  BDP B   1      25.768  11.070  54.1160  0.00  0.00     0.000 OA
ENDBRANCH 5 13
BRANCH 1 16
ATOM     16  O3  NAG B   2      21.417  12.138  51.5940  0.00  0.00     0.000 O
BRANCH 16 19
ATOM     17  C1  NAG B   2      18.668  12.191  49.2070  0.00  0.00     0.000 C
ATOM     18  C2  NAG B   2      19.480  12.871  50.3100  0.00  0.00     0.000 C
ATOM     19  C3  NAG B   2      20.926  12.398  50.2780  0.00  0.00     0.000 C
ATOM     20  C4  NAG B   2      21.095  11.150  49.4070  0.00  0.00     0.000 C
ATOM     21  C5  NAG B   2      19.919  10.165  49.4450  0.00  0.00     0.000 C
ATOM     22  O5  NAG B   2      18.643  10.806  49.5600  0.00  0.00     0.000 O
ATOM     23   O  NAG B   2      21.338  11.565  48.0590  0.00  0.00     0.000 O
ATOM     25  HD  NAG B   2      20.757  12.208  48.0790  0.00  0.00     0.000 HD
ATOM     25   C  NAG B   2      20.077   9.176  50.6090  0.00  0.00     0.000 C
ATOM     26   O  NAG B   2      20.899   8.058  50.2470  0.00  0.00     0.000 O
ATOM     28  HD  NAG B   2      20.319   8.700  50.2670  0.00  0.00     0.000 HD
BRANCH 18 30
ATOM     28   N  NAG B   2      19.249  13.779  49.1870  0.00  0.00     0.000 N
ATOM     30  HD  NAG B   2      19.494  13.933  48.3710  0.00  0.00     0.000 HD
ATOM     30   C  NAG B   2      19.613  15.069  49.1550  0.00  0.00     0.000 C
ATOM     31   C  NAG B   2      19.253  15.796  47.8900  0.00  0.00     0.000 C
ATOM     32   O  NAG B   2      20.193  15.620  50.0610  0.00  0.00     0.000 OA
ENDBRANCH 18 30
BRANCH 17 33
ATOM     33  O4  BDP B   3      17.421  11.744  48.6310  0.00  0.00     0.000 O
BRANCH 33 37
ATOM     34  C1  BDP B   3      13.818   9.496  48.1730  0.00  0.00     0.000 C
ATOM     35  C2  BDP B   3      13.999  10.266  49.4760  0.00  0.00     0.000 C
ATOM     36  C3  BDP B   3      15.065  11.353  49.4010  0.00  0.00     0.000 C
ATOM     37  C4  BDP B   3      16.322  10.791  48.7180  0.00  0.00     0.000 C
ATOM     38  C5  BDP B   3      15.892  10.253  47.3400  0.00  0.00     0.000 C
ATOM     39  O5  BDP B   3      15.077   9.112  47.6080  0.00  0.00     0.000 O
ATOM     40   O  BDP B   3      12.713  10.792  49.8100  0.00  0.00     0.000 O
ATOM     42  HD  BDP B   3      12.627   9.980  50.0980  0.00  0.00     0.000 HD
ATOM     42   O  BDP B   3      15.327  11.763  50.7410  0.00  0.00     0.000 O
ATOM     44  HD  BDP B   3      15.242  10.951  51.0300  0.00  0.00     0.000 HD
BRANCH 38 44
ATOM     44   C  BDP B   3      17.028   9.866  46.4450  0.00  0.00     0.000 C
ATOM     45   O  BDP B   3      17.711   8.868  46.7650  0.00  0.00     0.000 OA
ATOM     46   O  BDP B   3      17.263  10.539  45.4180  0.00  0.00     0.000 OA
ENDBRANCH 38 44
BRANCH 34 47
ATOM     47  O3  NAG B   4      13.567   8.111  48.4010  0.00  0.00     0.000 O
BRANCH 47 50
ATOM     48  C1  NAG B   4      10.217   6.634  47.5390  0.00  0.00     0.000 C
ATOM     49  C2  NAG B   4      11.225   7.448  48.3310  0.00  0.00     0.000 C
ATOM     50  C3  NAG B   4      12.578   7.399  47.6300  0.00  0.00     0.000 C
ATOM     51  C4  NAG B   4      13.041   5.968  47.4080  0.00  0.00     0.000 C
ATOM     52  C5  NAG B   4      11.958   5.180  46.6710  0.00  0.00     0.000 C
ATOM     53  O5  NAG B   4      10.705   5.291  47.3570  0.00  0.00     0.000 O
ATOM     54   O  NAG B   4      14.256   5.983  46.6550  0.00  0.00     0.000 O
ATOM     56  HD  NAG B   4      14.097   5.212  47.0150  0.00  0.00     0.000 HD
ATOM     56   C  NAG B   4      12.335   3.709  46.5410  0.00  0.00     0.000 C
ATOM     57   O  NAG B   4      12.500   3.151  47.8520  0.00  0.00     0.000 O
ATOM     59  HD  NAG B   4      12.340   2.380  48.2120  0.00  0.00     0.000 HD
BRANCH 49 61
ATOM     59   N  NAG B   4      10.900   6.907  49.6510  0.00  0.00     0.000 N
ATOM     61  HD  NAG B   4      11.432   7.495  49.3030  0.00  0.00     0.000 HD
ATOM     61   O  NAG B   4      10.915   8.873  50.7630  0.00  0.00     0.000 OA
ATOM     62   C  NAG B   4      10.702   7.669  50.7320  0.00  0.00     0.000 C
ATOM     63   C  NAG B   4      10.171   6.959  51.9370  0.00  0.00     0.000 C
ENDBRANCH 49 61
BRANCH 48 64
ATOM     64  O4  BDP B   5       8.805   6.733  47.3760  0.00  0.00     0.000 O
BRANCH 64 68
ATOM     65  C1  BDP B   5       6.031   6.422  50.4710  0.00  0.00     0.000 C
ATOM     66  C2  BDP B   5       6.070   5.257  49.4910  0.00  0.00     0.000 C
ATOM     67  C3  BDP B   5       7.373   5.293  48.7030  0.00  0.00     0.000 C
ATOM     68  C4  BDP B   5       7.530   6.642  48.0100  0.00  0.00     0.000 C
ATOM     69  C5  BDP B   5       7.385   7.807  48.9800  0.00  0.00     0.000 C
ATOM     70  O5  BDP B   5       6.191   7.664  49.7680  0.00  0.00     0.000 O
ATOM     71   O  BDP B   5       5.915   4.021  50.2040  0.00  0.00     0.000 O
ATOM     73  HD  BDP B   5       5.839   3.304  50.6850  0.00  0.00     0.000 HD
ATOM     73   O  BDP B   5       7.396   4.251  47.7200  0.00  0.00     0.000 O
ATOM     75  HD  BDP B   5       7.320   3.535  48.2010  0.00  0.00     0.000 HD
BRANCH 69 75
ATOM     75   C  BDP B   5       7.310   9.083  48.1800  0.00  0.00     0.000 C
ATOM     76   O  BDP B   5       8.069  10.026  48.4830  0.00  0.00     0.000 OA
ATOM     77   O  BDP B   5       6.498   9.158  47.2390  0.00  0.00     0.000 OA
ENDBRANCH 69 75
BRANCH 65 78
ATOM     78  O3  NAG B   6       4.862   7.098  50.9400  0.00  0.00     0.000 O
BRANCH 78 81
ATOM     79  C1  NAG B   6       4.254   9.445  53.8480  0.00  0.00     0.000 C
ATOM     80  C2  NAG B   6       4.592   8.128  53.1320  0.00  0.00     0.000 C
ATOM     81  C3  NAG B   6       4.697   8.355  51.6330  0.00  0.00     0.000 C
ATOM     82  C4  NAG B   6       3.457   9.085  51.1040  0.00  0.00     0.000 C
ATOM     83  C5  NAG B   6       3.253  10.372  51.8930  0.00  0.00     0.000 C
ATOM     84  O5  NAG B   6       3.069  10.015  53.2640  0.00  0.00     0.000 O
BRANCH 80 87
ATOM     85   N  NAG B   6       5.824   7.595  53.7080  0.00  0.00     0.000 N
ATOM     87  HD  NAG B   6       6.242   7.225  54.3700  0.00  0.00     0.000 HD
ATOM     87   C  NAG B   6       6.011   6.306  54.0160  0.00  0.00     0.000 C
ATOM     88   C  NAG B   6       7.358   5.958  54.5650  0.00  0.00     0.000 C
ATOM     89   O  NAG B   6       5.151   5.448  53.8520  0.00  0.00     0.000 OA
ENDBRANCH 80 87
ATOM     90   O  NAG B   6       2.511  12.409  50.8200  0.00  0.00     0.000 O
ATOM     92  HD  NAG B   6       2.976  12.068  51.4660  0.00  0.00     0.000 HD
ATOM     92   O  NAG B   6       2.511  12.409  50.8200  0.00  0.00     0.000 O
ATOM     94  HD  NAG B   6       2.976  12.068  51.4660  0.00  0.00     0.000 HD
ENDBRANCH 78 81
ENDBRANCH 65 78
ENDBRANCH 64 68
ENDBRANCH 48 64
ENDBRANCH 47 50
ENDBRANCH 34 47
ENDBRANCH 33 37
ENDBRANCH 17 33
ENDBRANCH 16 19
ENDBRANCH 1 16
TORSDOF 16
ENDMDL
MODEL 33
REMARK VINA RESULT:      -3.0     10.935     20.490
ROOT
ATOM      1  C1  BDP B   1      21.809  11.726  51.2370  0.00  0.00     0.000 C
ATOM      2  C2  BDP B   1      22.345  13.077  50.7990  0.00  0.00     0.000 C
ATOM      3  C3  BDP B   1      23.829  13.215  51.0640  0.00  0.00     0.000 C
ATOM      4  C4  BDP B   1      24.531  11.896  51.3680  0.00  0.00     0.000 C
ATOM      5  C5  BDP B   1      23.774  11.044  52.3820  0.00  0.00     0.000 C
ATOM      6  O5  BDP B   1      22.396  11.436  52.4970  0.00  0.00     0.000 O
ATOM      7   O  BDP B   1      22.085  13.276  49.4050  0.00  0.00     0.000 O
ATOM      9  HD  BDP B   1      21.562  13.233  48.7160  0.00  0.00     0.000 HD
ATOM      9   O  BDP B   1      24.049  14.092  52.1800  0.00  0.00     0.000 O
ATOM     11  HD  BDP B   1      23.525  14.049  51.4910  0.00  0.00     0.000 HD
ATOM     11   O  BDP B   1      24.732  11.148  50.1620  0.00  0.00     0.000 O
ATOM     13  HD  BDP B   1      24.209  11.105  49.4730  0.00  0.00     0.000 HD
ENDROOT
BRANCH 5 13
ATOM     13   C  BDP B   1      24.456  11.213  53.6950  0.00  0.00     0.000 C
ATOM     14   O  BDP B   1      25.387  10.432  53.9800  0.00  0.00     0.000 OA
ATOM     15   O  BDP B   1      24.096  12.140  54.4520  0.00  0.00     0.000 OA
ENDBRANCH 5 13
BRANCH 1 16
ATOM     16  O3  NAG B   2      21.148  10.705  50.4920  0.00  0.00     0.000 O
BRANCH 16 19
ATOM     17  C1  NAG B   2      20.242   9.086  47.3590  0.00  0.00     0.000 C
ATOM     18  C2  NAG B   2      21.221   9.920  48.1870  0.00  0.00     0.000 C
ATOM     19  C3  NAG B   2      21.131   9.545  49.6590  0.00  0.00     0.000 C
ATOM     20  C4  NAG B   2      19.881   8.713  49.9570  0.00  0.00     0.000 C
ATOM     21  C5  NAG B   2      18.639   9.085  49.1360  0.00  0.00     0.000 C
ATOM     22  O5  NAG B   2      18.943   9.491  47.7970  0.00  0.00     0.000 O
ATOM     23   O  NAG B   2      20.197   7.331  49.7590  0.00  0.00     0.000 O
ATOM     25  HD  NAG B   2      20.669   7.469  49.0460  0.00  0.00     0.000 HD
ATOM     25   C  NAG B   2      17.854  10.212  49.8230  0.00  0.00     0.000 C
ATOM     26   O  NAG B   2      16.950   9.703  50.8130  0.00  0.00     0.000 O
ATOM     28  HD  NAG B   2      17.422   9.841  50.1000  0.00  0.00     0.000 HD
BRANCH 18 30
ATOM     28   N  NAG B   2      21.915   8.857  47.4600  0.00  0.00     0.000 N
ATOM     30  HD  NAG B   2      22.036   8.000  47.4540  0.00  0.00     0.000 HD
ATOM     30   C  NAG B   2      23.243   8.679  47.4440  0.00  0.00     0.000 C
ATOM     31   C  NAG B   2      23.715   7.520  46.6120  0.00  0.00     0.000 C
ATOM     32   O  NAG B   2      24.017   9.382  48.0510  0.00  0.00     0.000 OA
ENDBRANCH 18 30
BRANCH 17 33
ATOM     33  O4  BDP B   3      19.433   8.860  46.1850  0.00  0.00     0.000 O
BRANCH 33 37
ATOM     34  C1  BDP B   3      16.092   9.096  43.5340  0.00  0.00     0.000 C
ATOM     35  C2  BDP B   3      16.966  10.338  43.6670  0.00  0.00     0.000 C
ATOM     36  C3  BDP B   3      18.337  10.059  44.2720  0.00  0.00     0.000 C
ATOM     37  C4  BDP B   3      18.178   9.157  45.5060  0.00  0.00     0.000 C
ATOM     38  C5  BDP B   3      17.435   7.886  45.0510  0.00  0.00     0.000 C
ATOM     39  O5  BDP B   3      16.110   8.308  44.7300  0.00  0.00     0.000 O
ATOM     40   O  BDP B   3      17.057  10.904  42.3570  0.00  0.00     0.000 O
ATOM     42  HD  BDP B   3      16.285  11.208  42.6030  0.00  0.00     0.000 HD
ATOM     42   O  BDP B   3      18.902  11.325  44.6080  0.00  0.00     0.000 O
ATOM     44  HD  BDP B   3      18.129  11.629  44.8540  0.00  0.00     0.000 HD
BRANCH 38 44
ATOM     44   C  BDP B   3      17.386   6.798  46.0770  0.00  0.00     0.000 C
ATOM     45   O  BDP B   3      18.067   5.769  45.8720  0.00  0.00     0.000 OA
ATOM     46   O  BDP B   3      16.676   6.941  47.0970  0.00  0.00     0.000 OA
ENDBRANCH 38 44
BRANCH 34 47
ATOM     47  O3  NAG B   4      14.721   9.376  43.8110  0.00  0.00     0.000 O
BRANCH 47 50
ATOM     48  C1  NAG B   4      12.238   7.717  41.5250  0.00  0.00     0.000 C
ATOM     49  C2  NAG B   4      13.383   8.634  41.9170  0.00  0.00     0.000 C
ATOM     50  C3  NAG B   4      13.681   8.464  43.4030  0.00  0.00     0.000 C
ATOM     51  C4  NAG B   4      12.441   8.696  44.2520  0.00  0.00     0.000 C
ATOM     52  C5  NAG B   4      11.304   7.798  43.7660  0.00  0.00     0.000 C
ATOM     53  O5  NAG B   4      11.092   7.976  42.3600  0.00  0.00     0.000 O
ATOM     54   O  NAG B   4      12.755   8.418  45.6190  0.00  0.00     0.000 O
ATOM     56  HD  NAG B   4      12.006   8.843  45.5290  0.00  0.00     0.000 HD
ATOM     56   C  NAG B   4      10.008   8.092  44.5130  0.00  0.00     0.000 C
ATOM     57   O  NAG B   4       9.642   9.461  44.2920  0.00  0.00     0.000 O
ATOM     59  HD  NAG B   4       8.893   9.886  44.2020  0.00  0.00     0.000 HD
BRANCH 49 61
ATOM     59   N  NAG B   4      12.952   9.952  41.4510  0.00  0.00     0.000 N
ATOM     61  HD  NAG B   4      13.659   9.580  41.7860  0.00  0.00     0.000 HD
ATOM     61   O  NAG B   4      14.854  10.488  40.3560  0.00  0.00     0.000 OA
ATOM     62   C  NAG B   4      13.694  10.731  40.6530  0.00  0.00     0.000 C
ATOM     63   C  NAG B   4      13.005  11.941  40.1080  0.00  0.00     0.000 C
ENDBRANCH 49 61
BRANCH 48 64
ATOM     64  O4  BDP B   5      11.893   7.063  40.3070  0.00  0.00     0.000 O
BRANCH 64 68
ATOM     65  C1  BDP B   5      11.671   7.961  36.2430  0.00  0.00     0.000 C
ATOM     66  C2  BDP B   5      10.788   8.797  37.1600  0.00  0.00     0.000 C
ATOM     67  C3  BDP B   5      11.276   8.669  38.5970  0.00  0.00     0.000 C
ATOM     68  C4  BDP B   5      11.316   7.201  39.0090  0.00  0.00     0.000 C
ATOM     69  C5  BDP B   5      12.114   6.351  38.0290  0.00  0.00     0.000 C
ATOM     70  O5  BDP B   5      11.679   6.592  36.6800  0.00  0.00     0.000 O
ATOM     71   O  BDP B   5      10.791  10.163  36.7180  0.00  0.00     0.000 O
ATOM     73  HD  BDP B   5      10.844  10.975  36.4220  0.00  0.00     0.000 HD
ATOM     73   O  BDP B   5      10.412   9.386  39.4870  0.00  0.00     0.000 O
ATOM     75  HD  BDP B   5      10.465  10.198  39.1910  0.00  0.00     0.000 HD
BRANCH 69 75
ATOM     75   C  BDP B   5      11.898   4.900  38.3760  0.00  0.00     0.000 C
ATOM     76   O  BDP B   5      10.741   4.510  38.6310  0.00  0.00     0.000 OA
ATOM     77   O  BDP B   5      12.878   4.132  38.3940  0.00  0.00     0.000 OA
ENDBRANCH 69 75
BRANCH 65 78
ATOM     78  O3  NAG B   6      11.271   7.332  35.0220  0.00  0.00     0.000 O
BRANCH 78 81
ATOM     79  C1  NAG B   6      13.153   7.084  31.7470  0.00  0.00     0.000 C
ATOM     80  C2  NAG B   6      12.477   7.762  32.9490  0.00  0.00     0.000 C
ATOM     81  C3  NAG B   6      12.041   6.719  33.9660  0.00  0.00     0.000 C
ATOM     82  C4  NAG B   6      11.221   5.612  33.2950  0.00  0.00     0.000 C
ATOM     83  C5  NAG B   6      12.016   5.025  32.1340  0.00  0.00     0.000 C
ATOM     84  O5  NAG B   6      12.274   6.081  31.2080  0.00  0.00     0.000 O
BRANCH 80 87
ATOM     85   N  NAG B   6      12.234   9.181  33.1940  0.00  0.00     0.000 N
ATOM     87  HD  NAG B   6      12.065   9.827  33.7450  0.00  0.00     0.000 HD
ATOM     87   C  NAG B   6      13.055   9.970  33.8980  0.00  0.00     0.000 C
ATOM     88   C  NAG B   6      12.643  11.404  34.0030  0.00  0.00     0.000 C
ATOM     89   O  NAG B   6      14.088   9.567  34.4170  0.00  0.00     0.000 OA
ENDBRANCH 80 87
ATOM     90   O  NAG B   6      11.984   2.655  31.6510  0.00  0.00     0.000 O
ATOM     92  HD  NAG B   6      12.446   3.387  31.6190  0.00  0.00     0.000 HD
ATOM     92   O  NAG B   6      11.984   2.655  31.6510  0.00  0.00     0.000 O
ATOM     94  HD  NAG B   6      12.446   3.387  31.6190  0.00  0.00     0.000 HD
ENDBRANCH 78 81
ENDBRANCH 65 78
ENDBRANCH 64 68
ENDBRANCH 48 64
ENDBRANCH 47 50
ENDBRANCH 34 47
ENDBRANCH 33 37
ENDBRANCH 17 33
ENDBRANCH 16 19
ENDBRANCH 1 16
TORSDOF 16
ENDMDL
MODEL 34
REMARK VINA RESULT:      -2.9     12.492     18.257
ROOT
ATOM      1  C1  BDP B   1       9.248  29.411  27.0970  0.00  0.00     0.000 C
ATOM      2  C2  BDP B   1       7.733  29.481  27.0290  0.00  0.00     0.000 C
ATOM      3  C3  BDP B   1       7.212  30.869  27.3310  0.00  0.00     0.000 C
ATOM      4  C4  BDP B   1       8.279  31.957  27.2880  0.00  0.00     0.000 C
ATOM      5  C5  BDP B   1       9.548  31.569  28.0410  0.00  0.00     0.000 C
ATOM      6  O5  BDP B   1       9.645  30.149  28.2440  0.00  0.00     0.000 O
ATOM      7   O  BDP B   1       7.285  29.071  25.7320  0.00  0.00     0.000 O
ATOM      9  HD  BDP B   1       7.315  28.536  25.0520  0.00  0.00     0.000 HD
ATOM      9   O  BDP B   1       6.616  30.895  28.6380  0.00  0.00     0.000 O
ATOM     11  HD  BDP B   1       6.647  30.360  27.9580  0.00  0.00     0.000 HD
ATOM     11   O  BDP B   1       8.603  32.285  25.9310  0.00  0.00     0.000 O
ATOM     13  HD  BDP B   1       8.634  31.749  25.2510  0.00  0.00     0.000 HD
ENDROOT
BRANCH 5 13
ATOM     13   C  BDP B   1       9.508  32.263  29.3580  0.00  0.00     0.000 C
ATOM     14   O  BDP B   1       8.539  33.012  29.6000  0.00  0.00     0.000 OA
ATOM     15   O  BDP B   1      10.424  32.055  30.1820  0.00  0.00     0.000 OA
ENDBRANCH 5 13
BRANCH 1 16
ATOM     16  O3  NAG B   2      10.204  29.036  26.1080  0.00  0.00     0.000 O
BRANCH 16 19
ATOM     17  C1  NAG B   2      13.279  27.173  26.6860  0.00  0.00     0.000 C
ATOM     18  C2  NAG B   2      11.751  27.237  26.6640  0.00  0.00     0.000 C
ATOM     19  C3  NAG B   2      11.272  28.227  25.6120  0.00  0.00     0.000 C
ATOM     20  C4  NAG B   2      12.411  29.122  25.1150  0.00  0.00     0.000 C
ATOM     21  C5  NAG B   2      13.449  29.505  26.1780  0.00  0.00     0.000 C
ATOM     22  O5  NAG B   2      13.702  28.464  27.1290  0.00  0.00     0.000 O
ATOM     23   O  NAG B   2      13.057  28.468  24.0190  0.00  0.00     0.000 O
ATOM     25  HD  NAG B   2      13.028  27.681  24.3790  0.00  0.00     0.000 HD
ATOM     25   C  NAG B   2      13.008  30.765  26.9370  0.00  0.00     0.000 C
ATOM     26   O  NAG B   2      13.389  31.963  26.2460  0.00  0.00     0.000 O
ATOM     28  HD  NAG B   2      13.360  31.176  26.6060  0.00  0.00     0.000 HD
BRANCH 18 30
ATOM     28   N  NAG B   2      11.331  26.387  25.5520  0.00  0.00     0.000 N
ATOM     30  HD  NAG B   2      10.625  26.095  25.1440  0.00  0.00     0.000 HD
ATOM     30   C  NAG B   2      11.459  25.053  25.5140  0.00  0.00     0.000 C
ATOM     31   C  NAG B   2      10.961  24.405  24.2530  0.00  0.00     0.000 C
ATOM     32   O  NAG B   2      11.931  24.403  26.4180  0.00  0.00     0.000 OA
ENDBRANCH 18 30
BRANCH 17 33
ATOM     33  O4  BDP B   3      14.536  26.884  27.3360  0.00  0.00     0.000 O
BRANCH 33 37
ATOM     34  C1  BDP B   3      16.142  23.363  29.1440  0.00  0.00     0.000 C
ATOM     35  C2  BDP B   3      15.667  24.471  30.0760  0.00  0.00     0.000 C
ATOM     36  C3  BDP B   3      14.741  25.480  29.4050  0.00  0.00     0.000 C
ATOM     37  C4  BDP B   3      15.329  25.888  28.0460  0.00  0.00     0.000 C
ATOM     38  C5  BDP B   3      15.529  24.597  27.2280  0.00  0.00     0.000 C
ATOM     39  O5  BDP B   3      16.579  23.885  27.8830  0.00  0.00     0.000 O
ATOM     40   O  BDP B   3      15.044  23.820  31.1860  0.00  0.00     0.000 O
ATOM     42  HD  BDP B   3      15.877  23.748  31.4120  0.00  0.00     0.000 HD
ATOM     42   O  BDP B   3      14.635  26.591  30.2930  0.00  0.00     0.000 O
ATOM     44  HD  BDP B   3      15.468  26.519  30.5190  0.00  0.00     0.000 HD
BRANCH 38 44
ATOM     44   C  BDP B   3      15.890  24.823  25.7930  0.00  0.00     0.000 C
ATOM     45   O  BDP B   3      15.020  24.584  24.9270  0.00  0.00     0.000 OA
ATOM     46   O  BDP B   3      17.032  25.239  25.5000  0.00  0.00     0.000 OA
ENDBRANCH 38 44
BRANCH 34 47
ATOM     47  O3  NAG B   4      17.498  22.999  29.3940  0.00  0.00     0.000 O
BRANCH 47 50
ATOM     48  C1  NAG B   4      18.472  19.781  27.7080  0.00  0.00     0.000 C
ATOM     49  C2  NAG B   4      17.664  20.701  28.6060  0.00  0.00     0.000 C
ATOM     50  C3  NAG B   4      18.208  22.121  28.4970  0.00  0.00     0.000 C
ATOM     51  C4  NAG B   4      19.696  22.175  28.8070  0.00  0.00     0.000 C
ATOM     52  C5  NAG B   4      20.447  21.179  27.9220  0.00  0.00     0.000 C
ATOM     53  O5  NAG B   4      19.871  19.872  28.0410  0.00  0.00     0.000 O
ATOM     54   O  NAG B   4      20.170  23.506  28.5830  0.00  0.00     0.000 O
ATOM     56  HD  NAG B   4      20.734  23.021  29.0270  0.00  0.00     0.000 HD
ATOM     56   C  NAG B   4      21.924  21.116  28.2910  0.00  0.00     0.000 C
ATOM     57   O  NAG B   4      22.047  20.702  29.6590  0.00  0.00     0.000 O
ATOM     59  HD  NAG B   4      22.612  20.217  30.1020  0.00  0.00     0.000 HD
BRANCH 49 61
ATOM     59   N  NAG B   4      17.646  19.775  29.7390  0.00  0.00     0.000 N
ATOM     61  HD  NAG B   4      17.357  20.567  29.5430  0.00  0.00     0.000 HD
ATOM     61   O  NAG B   4      15.496  20.120  30.3390  0.00  0.00     0.000 OA
ATOM     62   C  NAG B   4      16.549  19.510  30.4580  0.00  0.00     0.000 C
ATOM     63   C  NAG B   4      16.671  18.383  31.4330  0.00  0.00     0.000 C
ENDBRANCH 49 61
BRANCH 48 64
ATOM     64  O4  BDP B   5      18.151  18.582  27.0080  0.00  0.00     0.000 O
BRANCH 64 68
ATOM     65  C1  BDP B   5      15.230  18.251  24.0540  0.00  0.00     0.000 C
ATOM     66  C2  BDP B   5      14.887  17.633  25.4020  0.00  0.00     0.000 C
ATOM     67  C3  BDP B   5      15.818  18.189  26.4720  0.00  0.00     0.000 C
ATOM     68  C4  BDP B   5      17.272  17.952  26.0770  0.00  0.00     0.000 C
ATOM     69  C5  BDP B   5      17.581  18.481  24.6830  0.00  0.00     0.000 C
ATOM     70  O5  BDP B   5      16.609  18.007  23.7350  0.00  0.00     0.000 O
ATOM     71   O  BDP B   5      13.509  17.888  25.7130  0.00  0.00     0.000 O
ATOM     73  HD  BDP B   5      12.679  18.087  25.8610  0.00  0.00     0.000 HD
ATOM     73   O  BDP B   5      15.564  17.562  27.7350  0.00  0.00     0.000 O
ATOM     75  HD  BDP B   5      14.734  17.761  27.8830  0.00  0.00     0.000 HD
BRANCH 69 75
ATOM     75   C  BDP B   5      18.951  17.993  24.2850  0.00  0.00     0.000 C
ATOM     76   O  BDP B   5      19.120  16.772  24.0890  0.00  0.00     0.000 OA
ATOM     77   O  BDP B   5      19.873  18.820  24.1590  0.00  0.00     0.000 OA
ENDBRANCH 69 75
BRANCH 65 78
ATOM     78  O3  NAG B   6      15.060  17.640  22.7720  0.00  0.00     0.000 O
BRANCH 78 81
ATOM     79  C1  NAG B   6      13.500  18.803  19.5240  0.00  0.00     0.000 C
ATOM     80  C2  NAG B   6      13.556  18.358  20.9940  0.00  0.00     0.000 C
ATOM     81  C3  NAG B   6      15.000  18.204  21.4430  0.00  0.00     0.000 C
ATOM     82  C4  NAG B   6      15.785  17.323  20.4650  0.00  0.00     0.000 C
ATOM     83  C5  NAG B   6      15.652  17.888  19.0560  0.00  0.00     0.000 C
ATOM     84  O5  NAG B   6      14.264  17.887  18.7190  0.00  0.00     0.000 O
BRANCH 80 87
ATOM     85   N  NAG B   6      12.758  19.322  21.7460  0.00  0.00     0.000 N
ATOM     87  HD  NAG B   6      11.984  19.628  21.9860  0.00  0.00     0.000 HD
ATOM     87   C  NAG B   6      11.968  18.998  22.7770  0.00  0.00     0.000 C
ATOM     88   C  NAG B   6      11.261  20.140  23.4360  0.00  0.00     0.000 C
ATOM     89   O  NAG B   6      11.830  17.849  23.1790  0.00  0.00     0.000 OA
ENDBRANCH 80 87
ATOM     90   O  NAG B   6      17.513  17.887  17.5120  0.00  0.00     0.000 O
ATOM     92  HD  NAG B   6      16.788  18.291  17.7600  0.00  0.00     0.000 HD
ATOM     92   O  NAG B   6      17.513  17.887  17.5120  0.00  0.00     0.000 O
ATOM     94  HD  NAG B   6      16.788  18.291  17.7600  0.00  0.00     0.000 HD
ENDBRANCH 78 81
ENDBRANCH 65 78
ENDBRANCH 64 68
ENDBRANCH 48 64
ENDBRANCH 47 50
ENDBRANCH 34 47
ENDBRANCH 33 37
ENDBRANCH 17 33
ENDBRANCH 16 19
ENDBRANCH 1 16
TORSDOF 16
ENDMDL
MODEL 35
REMARK VINA RESULT:      -2.9     21.573     25.778
ROOT
ATOM      1  C1  BDP B   1      22.714  13.204  52.8330  0.00  0.00     0.000 C
ATOM      2  C2  BDP B   1      23.557  14.300  52.2050  0.00  0.00     0.000 C
ATOM      3  C3  BDP B   1      24.626  14.808  53.1480  0.00  0.00     0.000 C
ATOM      4  C4  BDP B   1      24.870  13.907  54.3530  0.00  0.00     0.000 C
ATOM      5  C5  BDP B   1      23.577  13.463  55.0290  0.00  0.00     0.000 C
ATOM      6  O5  BDP B   1      22.437  13.607  54.1660  0.00  0.00     0.000 O
ATOM      7   O  BDP B   1      24.165  13.818  51.0020  0.00  0.00     0.000 O
ATOM      9  HD  BDP B   1      24.129  13.383  50.2540  0.00  0.00     0.000 HD
ATOM      9   O  BDP B   1      24.268  16.108  53.6410  0.00  0.00     0.000 O
ATOM     11  HD  BDP B   1      24.232  15.674  52.8920  0.00  0.00     0.000 HD
ATOM     11   O  BDP B   1      25.636  12.758  53.9710  0.00  0.00     0.000 O
ATOM     13  HD  BDP B   1      25.600  12.323  53.2230  0.00  0.00     0.000 HD
ENDROOT
BRANCH 5 13
ATOM     13   C  BDP B   1      23.400  14.310  56.2410  0.00  0.00     0.000 C
ATOM     14   O  BDP B   1      24.421  14.683  56.8540  0.00  0.00     0.000 OA
ATOM     15   O  BDP B   1      22.245  14.639  56.5880  0.00  0.00     0.000 OA
ENDBRANCH 5 13
BRANCH 1 16
ATOM     16  O3  NAG B   2      22.485  11.859  52.4180  0.00  0.00     0.000 O
BRANCH 16 19
ATOM     17  C1  NAG B   2      21.147   8.961  50.6660  0.00  0.00     0.000 C
ATOM     18  C2  NAG B   2      21.422  10.464  50.7260  0.00  0.00     0.000 C
ATOM     19  C3  NAG B   2      22.675  10.747  51.5420  0.00  0.00     0.000 C
ATOM     20  C4  NAG B   2      23.114   9.522  52.3500  0.00  0.00     0.000 C
ATOM     21  C5  NAG B   2      21.969   8.655  52.8920  0.00  0.00     0.000 C
ATOM     22  O5  NAG B   2      20.843   8.581  52.0100  0.00  0.00     0.000 O
ATOM     23   O  NAG B   2      23.981   8.727  51.5350  0.00  0.00     0.000 O
ATOM     25  HD  NAG B   2      23.514   8.832  50.8130  0.00  0.00     0.000 HD
ATOM     25   C  NAG B   2      21.491   9.179  54.2540  0.00  0.00     0.000 C
ATOM     26   O  NAG B   2      22.286   8.664  55.3310  0.00  0.00     0.000 O
ATOM     28  HD  NAG B   2      21.820   8.769  54.6090  0.00  0.00     0.000 HD
BRANCH 18 30
ATOM     28   N  NAG B   2      22.125   9.961  49.5470  0.00  0.00     0.000 N
ATOM     30  HD  NAG B   2      22.917   9.766  49.2550  0.00  0.00     0.000 HD
ATOM     30   C  NAG B   2      22.259  10.625  48.3910  0.00  0.00     0.000 C
ATOM     31   C  NAG B   2      23.017   9.889  47.3230  0.00  0.00     0.000 C
ATOM     32   O  NAG B   2      21.816  11.735  48.2050  0.00  0.00     0.000 OA
ENDBRANCH 18 30
BRANCH 17 33
ATOM     33  O4  BDP B   3      20.268   7.831  50.4790  0.00  0.00     0.000 O
BRANCH 33 37
ATOM     34  C1  BDP B   3      16.685   5.537  50.8480  0.00  0.00     0.000 C
ATOM     35  C2  BDP B   3      16.554   7.052  50.9380  0.00  0.00     0.000 C
ATOM     36  C3  BDP B   3      17.761   7.803  50.3870  0.00  0.00     0.000 C
ATOM     37  C4  BDP B   3      19.051   7.160  50.9190  0.00  0.00     0.000 C
ATOM     38  C5  BDP B   3      19.018   5.672  50.5210  0.00  0.00     0.000 C
ATOM     39  O5  BDP B   3      17.969   5.089  51.2960  0.00  0.00     0.000 O
ATOM     40   O  BDP B   3      15.347   7.391  50.2530  0.00  0.00     0.000 O
ATOM     42  HD  BDP B   3      15.026   7.143  51.0180  0.00  0.00     0.000 HD
ATOM     42   O  BDP B   3      17.629   9.159  50.8110  0.00  0.00     0.000 O
ATOM     44  HD  BDP B   3      17.308   8.911  51.5770  0.00  0.00     0.000 HD
BRANCH 38 44
ATOM     44   C  BDP B   3      20.298   4.937  50.7670  0.00  0.00     0.000 C
ATOM     45   O  BDP B   3      20.908   4.475  49.7770  0.00  0.00     0.000 OA
ATOM     46   O  BDP B   3      20.720   4.803  51.9370  0.00  0.00     0.000 OA
ENDBRANCH 38 44
BRANCH 34 47
ATOM     47  O3  NAG B   4      16.127   4.884  51.9870  0.00  0.00     0.000 O
BRANCH 47 50
ATOM     48  C1  NAG B   4      13.036   2.770  51.6330  0.00  0.00     0.000 C
ATOM     49  C2  NAG B   4      13.859   4.045  51.7120  0.00  0.00     0.000 C
ATOM     50  C3  NAG B   4      15.335   3.688  51.8430  0.00  0.00     0.000 C
ATOM     51  C4  NAG B   4      15.584   2.768  53.0280  0.00  0.00     0.000 C
ATOM     52  C5  NAG B   4      14.680   1.539  52.9310  0.00  0.00     0.000 C
ATOM     53  O5  NAG B   4      13.312   1.937  52.7760  0.00  0.00     0.000 O
ATOM     54   O  NAG B   4      16.961   2.382  53.0360  0.00  0.00     0.000 O
ATOM     56  HD  NAG B   4      16.560   2.200  53.7810  0.00  0.00     0.000 HD
ATOM     56   C  NAG B   4      14.812   0.655  54.1660  0.00  0.00     0.000 C
ATOM     57   O  NAG B   4      14.439   1.412  55.3250  0.00  0.00     0.000 O
ATOM     59  HD  NAG B   4      14.038   1.230  56.0700  0.00  0.00     0.000 HD
BRANCH 49 61
ATOM     59   N  NAG B   4      12.950   4.709  52.6470  0.00  0.00     0.000 N
ATOM     61  HD  NAG B   4      13.698   4.872  52.2410  0.00  0.00     0.000 HD
ATOM     61   O  NAG B   4      13.030   6.756  51.6950  0.00  0.00     0.000 OA
ATOM     62   C  NAG B   4      12.558   5.982  52.5150  0.00  0.00     0.000 C
ATOM     63   C  NAG B   4      11.466   6.422  53.4380  0.00  0.00     0.000 C
ENDBRANCH 49 61
BRANCH 48 64
ATOM     64  O4  BDP B   5      11.796   2.454  51.0090  0.00  0.00     0.000 O
BRANCH 64 68
ATOM     65  C1  BDP B   5       8.245   4.593  51.4440  0.00  0.00     0.000 C
ATOM     66  C2  BDP B   5       8.360   3.316  52.2670  0.00  0.00     0.000 C
ATOM     67  C3  BDP B   5       9.819   2.887  52.3460  0.00  0.00     0.000 C
ATOM     68  C4  BDP B   5      10.397   2.729  50.9440  0.00  0.00     0.000 C
ATOM     69  C5  BDP B   5      10.185   3.974  50.0920  0.00  0.00     0.000 C
ATOM     70  O5  BDP B   5       8.810   4.391  50.1390  0.00  0.00     0.000 O
ATOM     71   O  BDP B   5       7.798   3.530  53.5700  0.00  0.00     0.000 O
ATOM     73  HD  BDP B   5       7.465   3.719  54.3470  0.00  0.00     0.000 HD
ATOM     73   O  BDP B   5       9.941   1.646  53.0500  0.00  0.00     0.000 O
ATOM     75  HD  BDP B   5       9.609   1.834  53.8280  0.00  0.00     0.000 HD
BRANCH 69 75
ATOM     75   C  BDP B   5      10.563   3.643  48.6700  0.00  0.00     0.000 C
ATOM     76   O  BDP B   5       9.654   3.421  47.8450  0.00  0.00     0.000 OA
ATOM     77   O  BDP B   5      11.767   3.606  48.3590  0.00  0.00     0.000 OA
ENDBRANCH 69 75
BRANCH 65 78
ATOM     78  O3  NAG B   6       7.125   4.993  50.6500  0.00  0.00     0.000 O
BRANCH 78 81
ATOM     79  C1  NAG B   6       4.552   7.765  50.4910  0.00  0.00     0.000 C
ATOM     80  C2  NAG B   6       5.190   6.443  50.9470  0.00  0.00     0.000 C
ATOM     81  C3  NAG B   6       6.581   6.297  50.3520  0.00  0.00     0.000 C
ATOM     82  C4  NAG B   6       6.552   6.517  48.8350  0.00  0.00     0.000 C
ATOM     83  C5  NAG B   6       5.907   7.865  48.5320  0.00  0.00     0.000 C
ATOM     84  O5  NAG B   6       4.578   7.836  49.0540  0.00  0.00     0.000 O
BRANCH 80 87
ATOM     85   N  NAG B   6       4.507   5.534  51.8630  0.00  0.00     0.000 N
ATOM     87  HD  NAG B   6       4.513   4.818  52.3500  0.00  0.00     0.000 HD
ATOM     87   C  NAG B   6       4.868   5.344  53.1380  0.00  0.00     0.000 C
ATOM     88   C  NAG B   6       4.016   4.395  53.9190  0.00  0.00     0.000 C
ATOM     89   O  NAG B   6       5.823   5.913  53.6540  0.00  0.00     0.000 OA
ENDBRANCH 80 87
ATOM     90   O  NAG B   6       6.734   9.292  46.7630  0.00  0.00     0.000 O
ATOM     92  HD  NAG B   6       6.344   9.261  47.5360  0.00  0.00     0.000 HD
ATOM     92   O  NAG B   6       6.734   9.292  46.7630  0.00  0.00     0.000 O
ATOM     94  HD  NAG B   6       6.344   9.261  47.5360  0.00  0.00     0.000 HD
ENDBRANCH 78 81
ENDBRANCH 65 78
ENDBRANCH 64 68
ENDBRANCH 48 64
ENDBRANCH 47 50
ENDBRANCH 34 47
ENDBRANCH 33 37
ENDBRANCH 17 33
ENDBRANCH 16 19
ENDBRANCH 1 16
TORSDOF 16
ENDMDL
MODEL 36
REMARK VINA RESULT:      -2.7     24.416     28.048
ROOT
ATOM      1  C1  BDP B   1      22.420  15.757  56.0470  0.00  0.00     0.000 C
ATOM      2  C2  BDP B   1      23.587  16.621  55.6030  0.00  0.00     0.000 C
ATOM      3  C3  BDP B   1      24.694  16.657  56.6350  0.00  0.00     0.000 C
ATOM      4  C4  BDP B   1      24.582  15.576  57.7040  0.00  0.00     0.000 C
ATOM      5  C5  BDP B   1      23.174  15.458  58.2790  0.00  0.00     0.000 C
ATOM      6  O5  BDP B   1      22.186  16.048  57.4170  0.00  0.00     0.000 O
ATOM      7   O  BDP B   1      24.104  16.138  54.3590  0.00  0.00     0.000 O
ATOM      9  HD  BDP B   1      23.991  15.835  53.5550  0.00  0.00     0.000 HD
ATOM      9   O  BDP B   1      24.703  17.930  57.3000  0.00  0.00     0.000 O
ATOM     11  HD  BDP B   1      24.590  17.627  56.4970  0.00  0.00     0.000 HD
ATOM     11   O  BDP B   1      24.999  14.309  57.1800  0.00  0.00     0.000 O
ATOM     13  HD  BDP B   1      24.886  14.007  56.3770  0.00  0.00     0.000 HD
ENDROOT
BRANCH 5 13
ATOM     13   C  BDP B   1      23.174  16.154  59.5940  0.00  0.00     0.000 C
ATOM     14   O  BDP B   1      22.788  17.341  59.6330  0.00  0.00     0.000 OA
ATOM     15   O  BDP B   1      23.532  15.527  60.6140  0.00  0.00     0.000 OA
ENDBRANCH 5 13
BRANCH 1 16
ATOM     16  O3  NAG B   2      21.832  14.609  55.4390  0.00  0.00     0.000 O
BRANCH 16 19
ATOM     17  C1  NAG B   2      19.676  11.677  55.3320  0.00  0.00     0.000 C
ATOM     18  C2  NAG B   2      20.005  13.062  55.8900  0.00  0.00     0.000 C
ATOM     19  C3  NAG B   2      20.741  13.896  54.8530  0.00  0.00     0.000 C
ATOM     20  C4  NAG B   2      21.250  13.037  53.6910  0.00  0.00     0.000 C
ATOM     21  C5  NAG B   2      21.715  11.627  54.0790  0.00  0.00     0.000 C
ATOM     22  O5  NAG B   2      20.942  11.043  55.1340  0.00  0.00     0.000 O
ATOM     23   O  NAG B   2      20.219  12.954  52.7020  0.00  0.00     0.000 O
ATOM     25  HD  NAG B   2      19.577  12.865  53.2780  0.00  0.00     0.000 HD
ATOM     25   C  NAG B   2      23.190  11.640  54.5020  0.00  0.00     0.000 C
ATOM     26   O  NAG B   2      24.068  11.533  53.3720  0.00  0.00     0.000 O
ATOM     28  HD  NAG B   2      23.426  11.444  53.9470  0.00  0.00     0.000 HD
BRANCH 18 30
ATOM     28   N  NAG B   2      18.574  12.930  55.6160  0.00  0.00     0.000 N
ATOM     30  HD  NAG B   2      18.011  12.801  54.9710  0.00  0.00     0.000 HD
ATOM     30   C  NAG B   2      17.679  13.923  55.7130  0.00  0.00     0.000 C
ATOM     31   C  NAG B   2      16.265  13.533  55.3890  0.00  0.00     0.000 C
ATOM     32   O  NAG B   2      17.970  15.053  56.0290  0.00  0.00     0.000 OA
ENDBRANCH 18 30
BRANCH 17 33
ATOM     33  O4  BDP B   3      19.354  10.278  55.4940  0.00  0.00     0.000 O
BRANCH 33 37
ATOM     34  C1  BDP B   3      16.121   7.727  54.3590  0.00  0.00     0.000 C
ATOM     35  C2  BDP B   3      15.904   8.633  55.5660  0.00  0.00     0.000 C
ATOM     36  C3  BDP B   3      16.898   9.785  55.6520  0.00  0.00     0.000 C
ATOM     37  C4  BDP B   3      18.318   9.257  55.3960  0.00  0.00     0.000 C
ATOM     38  C5  BDP B   3      18.305   8.556  54.0240  0.00  0.00     0.000 C
ATOM     39  O5  BDP B   3      17.503   7.387  54.1960  0.00  0.00     0.000 O
ATOM     40   O  BDP B   3      14.552   9.089  55.4850  0.00  0.00     0.000 O
ATOM     42  HD  BDP B   3      14.430   8.305  55.8320  0.00  0.00     0.000 HD
ATOM     42   O  BDP B   3      16.767  10.344  56.9580  0.00  0.00     0.000 O
ATOM     44  HD  BDP B   3      16.645   9.560  57.3040  0.00  0.00     0.000 HD
BRANCH 38 44
ATOM     44   C  BDP B   3      19.658   8.171  53.5130  0.00  0.00     0.000 C
ATOM     45   O  BDP B   3      20.233   7.199  54.0510  0.00  0.00     0.000 OA
ATOM     46   O  BDP B   3      20.173   8.821  52.5770  0.00  0.00     0.000 OA
ENDBRANCH 38 44
BRANCH 34 47
ATOM     47  O3  NAG B   4      15.883   6.356  54.6710  0.00  0.00     0.000 O
BRANCH 47 50
ATOM     48  C1  NAG B   4      13.786   4.276  52.3420  0.00  0.00     0.000 C
ATOM     49  C2  NAG B   4      14.083   5.338  53.3860  0.00  0.00     0.000 C
ATOM     50  C3  NAG B   4      15.586   5.400  53.6330  0.00  0.00     0.000 C
ATOM     51  C4  NAG B   4      16.146   4.040  54.0200  0.00  0.00     0.000 C
ATOM     52  C5  NAG B   4      15.756   3.000  52.9700  0.00  0.00     0.000 C
ATOM     53  O5  NAG B   4      14.339   3.012  52.7570  0.00  0.00     0.000 O
ATOM     54   O  NAG B   4      17.568   4.136  54.1320  0.00  0.00     0.000 O
ATOM     56  HD  NAG B   4      17.255   3.408  54.4800  0.00  0.00     0.000 HD
ATOM     56   C  NAG B   4      16.193   1.601  53.3870  0.00  0.00     0.000 C
ATOM     57   O  NAG B   4      15.558   1.263  54.6280  0.00  0.00     0.000 O
ATOM     59  HD  NAG B   4      15.245   0.535  54.9760  0.00  0.00     0.000 HD
BRANCH 49 61
ATOM     59   N  NAG B   4      13.240   6.413  52.8600  0.00  0.00     0.000 N
ATOM     61  HD  NAG B   4      13.185   5.763  53.4310  0.00  0.00     0.000 HD
ATOM     61   O  NAG B   4      12.318   7.024  54.8290  0.00  0.00     0.000 OA
ATOM     62   C  NAG B   4      12.490   7.207  53.6330  0.00  0.00     0.000 C
ATOM     63   C  NAG B   4      11.867   8.379  52.9440  0.00  0.00     0.000 C
ENDBRANCH 49 61
BRANCH 48 64
ATOM     64  O4  BDP B   5      12.754   4.133  51.3710  0.00  0.00     0.000 O
BRANCH 64 68
ATOM     65  C1  BDP B   5       8.651   3.766  52.0090  0.00  0.00     0.000 C
ATOM     66  C2  BDP B   5       9.445   2.467  52.0100  0.00  0.00     0.000 C
ATOM     67  C3  BDP B   5      10.926   2.771  52.2000  0.00  0.00     0.000 C
ATOM     68  C4  BDP B   5      11.403   3.742  51.1260  0.00  0.00     0.000 C
ATOM     69  C5  BDP B   5      10.540   4.995  51.0600  0.00  0.00     0.000 C
ATOM     70  O5  BDP B   5       9.146   4.646  50.9870  0.00  0.00     0.000 O
ATOM     71   O  BDP B   5       8.946   1.598  53.0390  0.00  0.00     0.000 O
ATOM     73  HD  BDP B   5       8.621   1.122  53.6850  0.00  0.00     0.000 HD
ATOM     73   O  BDP B   5      11.700   1.568  52.1260  0.00  0.00     0.000 O
ATOM     75  HD  BDP B   5      11.374   1.092  52.7730  0.00  0.00     0.000 HD
BRANCH 69 75
ATOM     75   C  BDP B   5      10.928   5.773  49.8280  0.00  0.00     0.000 C
ATOM     76   O  BDP B   5      11.053   5.163  48.7480  0.00  0.00     0.000 OA
ATOM     77   O  BDP B   5      11.109   7.002  49.9230  0.00  0.00     0.000 OA
ENDBRANCH 69 75
BRANCH 65 78
ATOM     78  O3  NAG B   6       7.428   4.013  51.3110  0.00  0.00     0.000 O
BRANCH 78 81
ATOM     79  C1  NAG B   6       4.516   6.422  51.5260  0.00  0.00     0.000 C
ATOM     80  C2  NAG B   6       5.382   5.205  51.8870  0.00  0.00     0.000 C
ATOM     81  C3  NAG B   6       6.679   5.228  51.0940  0.00  0.00     0.000 C
ATOM     82  C4  NAG B   6       6.401   5.411  49.5980  0.00  0.00     0.000 C
ATOM     83  C5  NAG B   6       5.547   6.656  49.3900  0.00  0.00     0.000 C
ATOM     84  O5  NAG B   6       4.324   6.466  50.1010  0.00  0.00     0.000 O
BRANCH 80 87
ATOM     85   N  NAG B   6       5.613   5.209  53.3290  0.00  0.00     0.000 N
ATOM     87  HD  NAG B   6       5.313   5.108  54.1350  0.00  0.00     0.000 HD
ATOM     87   C  NAG B   6       5.529   4.120  54.1030  0.00  0.00     0.000 C
ATOM     88   C  NAG B   6       5.837   4.330  55.5520  0.00  0.00     0.000 C
ATOM     89   O  NAG B   6       5.236   3.012  53.6700  0.00  0.00     0.000 OA
ENDBRANCH 80 87
ATOM     90   O  NAG B   6       5.913   8.141  47.5160  0.00  0.00     0.000 O
ATOM     92  HD  NAG B   6       5.647   8.076  48.3370  0.00  0.00     0.000 HD
ATOM     92   O  NAG B   6       5.913   8.141  47.5160  0.00  0.00     0.000 O
ATOM     94  HD  NAG B   6       5.647   8.076  48.3370  0.00  0.00     0.000 HD
ENDBRANCH 78 81
ENDBRANCH 65 78
ENDBRANCH 64 68
ENDBRANCH 48 64
ENDBRANCH 47 50
ENDBRANCH 34 47
ENDBRANCH 33 37
ENDBRANCH 17 33
ENDBRANCH 16 19
ENDBRANCH 1 16
TORSDOF 16
ENDMDL
MODEL 37
REMARK VINA RESULT:      -2.4     21.014     26.882
ROOT
ATOM      1  C1  BDP B   1      24.467  15.516  53.4360  0.00  0.00     0.000 C
ATOM      2  C2  BDP B   1      25.298  16.455  52.5790  0.00  0.00     0.000 C
ATOM      3  C3  BDP B   1      26.029  17.488  53.4100  0.00  0.00     0.000 C
ATOM      4  C4  BDP B   1      26.074  17.168  54.9000  0.00  0.00     0.000 C
ATOM      5  C5  BDP B   1      24.718  16.743  55.4530  0.00  0.00     0.000 C
ATOM      6  O5  BDP B   1      23.819  16.314  54.4160  0.00  0.00     0.000 O
ATOM      7   O  BDP B   1      26.241  15.703  51.8080  0.00  0.00     0.000 O
ATOM      9  HD  BDP B   1      26.446  15.026  51.3080  0.00  0.00     0.000 HD
ATOM      9   O  BDP B   1      25.403  18.771  53.2570  0.00  0.00     0.000 O
ATOM     11  HD  BDP B   1      25.607  18.094  52.7580  0.00  0.00     0.000 HD
ATOM     11   O  BDP B   1      27.045  16.149  55.1630  0.00  0.00     0.000 O
ATOM     13  HD  BDP B   1      27.250  15.472  54.6630  0.00  0.00     0.000 HD
ENDROOT
BRANCH 5 13
ATOM     13   C  BDP B   1      24.142  17.919  56.1620  0.00  0.00     0.000 C
ATOM     14   O  BDP B   1      24.399  18.060  57.3750  0.00  0.00     0.000 OA
ATOM     15   O  BDP B   1      23.447  18.735  55.5190  0.00  0.00     0.000 OA
ENDBRANCH 5 13
BRANCH 1 16
ATOM     16  O3  NAG B   2      24.515  14.097  53.5700  0.00  0.00     0.000 O
BRANCH 16 19
ATOM     17  C1  NAG B   2      21.625  11.882  53.6100  0.00  0.00     0.000 C
ATOM     18  C2  NAG B   2      22.556  12.835  52.8590  0.00  0.00     0.000 C
ATOM     19  C3  NAG B   2      23.958  12.787  53.4470  0.00  0.00     0.000 C
ATOM     20  C4  NAG B   2      23.979  12.086  54.8080  0.00  0.00     0.000 C
ATOM     21  C5  NAG B   2      22.740  12.323  55.6820  0.00  0.00     0.000 C
ATOM     22  O5  NAG B   2      21.524  12.421  54.9300  0.00  0.00     0.000 O
ATOM     23   O  NAG B   2      24.162  10.683  54.5940  0.00  0.00     0.000 O
ATOM     25  HD  NAG B   2      23.632  10.647  53.9100  0.00  0.00     0.000 HD
ATOM     25   C  NAG B   2      22.903  13.599  56.5190  0.00  0.00     0.000 C
ATOM     26   O  NAG B   2      23.617  13.348  57.7370  0.00  0.00     0.000 O
ATOM     28  HD  NAG B   2      23.087  13.312  57.0530  0.00  0.00     0.000 HD
BRANCH 18 30
ATOM     28   N  NAG B   2      22.365  11.593  52.1100  0.00  0.00     0.000 N
ATOM     30  HD  NAG B   2      22.624  10.768  52.0790  0.00  0.00     0.000 HD
ATOM     30   C  NAG B   2      22.770  11.387  50.8490  0.00  0.00     0.000 C
ATOM     31   C  NAG B   2      22.447  10.028  50.2960  0.00  0.00     0.000 C
ATOM     32   O  NAG B   2      23.358  12.216  50.1940  0.00  0.00     0.000 OA
ENDBRANCH 18 30
BRANCH 17 33
ATOM     33  O4  BDP B   3      20.315  11.442  54.0270  0.00  0.00     0.000 O
BRANCH 33 37
ATOM     34  C1  BDP B   3      17.999   7.874  53.6470  0.00  0.00     0.000 C
ATOM     35  C2  BDP B   3      18.101   8.772  52.4210  0.00  0.00     0.000 C
ATOM     36  C3  BDP B   3      19.252   9.770  52.4880  0.00  0.00     0.000 C
ATOM     37  C4  BDP B   3      19.270  10.438  53.8710  0.00  0.00     0.000 C
ATOM     38  C5  BDP B   3      19.367   9.314  54.9210  0.00  0.00     0.000 C
ATOM     39  O5  BDP B   3      18.119   8.623  54.8620  0.00  0.00     0.000 O
ATOM     40   O  BDP B   3      18.206   7.900  51.2940  0.00  0.00     0.000 O
ATOM     42  HD  BDP B   3      17.350   7.880  51.4240  0.00  0.00     0.000 HD
ATOM     42   O  BDP B   3      19.035  10.717  51.4440  0.00  0.00     0.000 O
ATOM     44  HD  BDP B   3      18.179  10.698  51.5740  0.00  0.00     0.000 HD
BRANCH 38 44
ATOM     44   C  BDP B   3      19.617   9.791  56.3170  0.00  0.00     0.000 C
ATOM     45   O  BDP B   3      20.738   9.563  56.8220  0.00  0.00     0.000 OA
ATOM     46   O  BDP B   3      18.713  10.395  56.9350  0.00  0.00     0.000 OA
ENDBRANCH 38 44
BRANCH 34 47
ATOM     47  O3  NAG B   4      16.643   7.618  54.0100  0.00  0.00     0.000 O
BRANCH 47 50
ATOM     48  C1  NAG B   4      15.404   4.067  54.0770  0.00  0.00     0.000 C
ATOM     49  C2  NAG B   4      15.879   5.372  53.4630  0.00  0.00     0.000 C
ATOM     50  C3  NAG B   4      16.252   6.348  54.5720  0.00  0.00     0.000 C
ATOM     51  C4  NAG B   4      15.102   6.556  55.5440  0.00  0.00     0.000 C
ATOM     52  C5  NAG B   4      14.621   5.206  56.0750  0.00  0.00     0.000 C
ATOM     53  O5  NAG B   4      14.318   4.321  54.9890  0.00  0.00     0.000 O
ATOM     54   O  NAG B   4      15.544   7.392  56.6170  0.00  0.00     0.000 O
ATOM     56  HD  NAG B   4      14.683   7.308  56.5930  0.00  0.00     0.000 HD
ATOM     56   C  NAG B   4      13.387   5.365  56.9560  0.00  0.00     0.000 C
ATOM     57   O  NAG B   4      12.335   5.959  56.1850  0.00  0.00     0.000 O
ATOM     59  HD  NAG B   4      11.473   5.876  56.1600  0.00  0.00     0.000 HD
BRANCH 49 61
ATOM     59   N  NAG B   4      14.805   5.456  52.4730  0.00  0.00     0.000 N
ATOM     61  HD  NAG B   4      15.501   5.910  52.7170  0.00  0.00     0.000 HD
ATOM     61   O  NAG B   4      16.083   6.140  50.7410  0.00  0.00     0.000 OA
ATOM     62   C  NAG B   4      15.010   5.761  51.1860  0.00  0.00     0.000 C
ATOM     63   C  NAG B   4      13.829   5.588  50.2840  0.00  0.00     0.000 C
ENDBRANCH 49 61
BRANCH 48 64
ATOM     64  O4  BDP B   5      15.443   2.715  53.6320  0.00  0.00     0.000 O
BRANCH 64 68
ATOM     65  C1  BDP B   5      14.946   1.518  49.6700  0.00  0.00     0.000 C
ATOM     66  C2  BDP B   5      13.922   0.983  50.6620  0.00  0.00     0.000 C
ATOM     67  C3  BDP B   5      13.958   1.816  51.9370  0.00  0.00     0.000 C
ATOM     68  C4  BDP B   5      15.370   1.833  52.5120  0.00  0.00     0.000 C
ATOM     69  C5  BDP B   5      16.405   2.269  51.4830  0.00  0.00     0.000 C
ATOM     70  O5  BDP B   5      16.254   1.520  50.2640  0.00  0.00     0.000 O
ATOM     71   O  BDP B   5      12.618   0.990  50.0600  0.00  0.00     0.000 O
ATOM     73  HD  BDP B   5      11.853   1.035  49.6570  0.00  0.00     0.000 HD
ATOM     73   O  BDP B   5      13.057   1.282  52.9130  0.00  0.00     0.000 O
ATOM     75  HD  BDP B   5      12.291   1.327  52.5100  0.00  0.00     0.000 HD
BRANCH 69 75
ATOM     75   C  BDP B   5      17.777   2.024  52.0570  0.00  0.00     0.000 C
ATOM     76   O  BDP B   5      18.114   0.854  52.3280  0.00  0.00     0.000 OA
ATOM     77   O  BDP B   5      18.536   2.994  52.2420  0.00  0.00     0.000 OA
ENDBRANCH 69 75
BRANCH 65 78
ATOM     78  O3  NAG B   6      15.645   0.759  48.6800  0.00  0.00     0.000 O
BRANCH 78 81
ATOM     79  C1  NAG B   6      16.221   1.141  44.9570  0.00  0.00     0.000 C
ATOM     80  C2  NAG B   6      15.443   0.865  46.2540  0.00  0.00     0.000 C
ATOM     81  C3  NAG B   6      16.314   1.160  47.4640  0.00  0.00     0.000 C
ATOM     82  C4  NAG B   6      17.665   0.446  47.3510  0.00  0.00     0.000 C
ATOM     83  C5  NAG B   6      18.326   0.820  46.0290  0.00  0.00     0.000 C
ATOM     84  O5  NAG B   6      17.456   0.403  44.9770  0.00  0.00     0.000 O
BRANCH 80 87
ATOM     85   N  NAG B   6      14.202   1.629  46.1490  0.00  0.00     0.000 N
ATOM     87  HD  NAG B   6      13.404   1.719  45.8250  0.00  0.00     0.000 HD
ATOM     87   C  NAG B   6      13.018   1.201  46.6030  0.00  0.00     0.000 C
ATOM     88   C  NAG B   6      11.875   2.149  46.4290  0.00  0.00     0.000 C
ATOM     89   O  NAG B   6      12.863   0.111  47.1430  0.00  0.00     0.000 OA
ENDBRANCH 80 87
ATOM     90   O  NAG B   6      20.710   1.194  45.8690  0.00  0.00     0.000 O
ATOM     92  HD  NAG B   6      19.930   1.401  45.5560  0.00  0.00     0.000 HD
ATOM     92   O  NAG B   6      20.710   1.194  45.8690  0.00  0.00     0.000 O
ATOM     94  HD  NAG B   6      19.930   1.401  45.5560  0.00  0.00     0.000 HD
ENDBRANCH 78 81
ENDBRANCH 65 78
ENDBRANCH 64 68
ENDBRANCH 48 64
ENDBRANCH 47 50
ENDBRANCH 34 47
ENDBRANCH 33 37
ENDBRANCH 17 33
ENDBRANCH 16 19
ENDBRANCH 1 16
TORSDOF 16
ENDMDL
MODEL 38
REMARK VINA RESULT:      -2.3     22.104     26.823
ROOT
ATOM      1  C1  BDP B   1      22.762  13.262  52.8470  0.00  0.00     0.000 C
ATOM      2  C2  BDP B   1      23.624  14.314  52.1710  0.00  0.00     0.000 C
ATOM      3  C3  BDP B   1      24.730  14.812  53.0760  0.00  0.00     0.000 C
ATOM      4  C4  BDP B   1      24.972  13.937  54.3000  0.00  0.00     0.000 C
ATOM      5  C5  BDP B   1      23.681  13.553  55.0160  0.00  0.00     0.000 C
ATOM      6  O5  BDP B   1      22.527  13.710  54.1740  0.00  0.00     0.000 O
ATOM      7   O  BDP B   1      24.190  13.780  50.9690  0.00  0.00     0.000 O
ATOM      9  HD  BDP B   1      24.123  13.327  50.2340  0.00  0.00     0.000 HD
ATOM      9   O  BDP B   1      24.424  16.137  53.5400  0.00  0.00     0.000 O
ATOM     11  HD  BDP B   1      24.357  15.683  52.8050  0.00  0.00     0.000 HD
ATOM     11   O  BDP B   1      25.693  12.754  53.9340  0.00  0.00     0.000 O
ATOM     13  HD  BDP B   1      25.626  12.301  53.1990  0.00  0.00     0.000 HD
ENDROOT
BRANCH 5 13
ATOM     13   C  BDP B   1      23.558  14.437  56.2070  0.00  0.00     0.000 C
ATOM     14   O  BDP B   1      24.475  15.254  56.4330  0.00  0.00     0.000 OA
ATOM     15   O  BDP B   1      22.537  14.354  56.9230  0.00  0.00     0.000 OA
ENDBRANCH 5 13
BRANCH 1 16
ATOM     16  O3  NAG B   2      22.481  11.915  52.4750  0.00  0.00     0.000 O
BRANCH 16 19
ATOM     17  C1  NAG B   2      20.988   9.000  50.8840  0.00  0.00     0.000 C
ATOM     18  C2  NAG B   2      21.284  10.500  50.8930  0.00  0.00     0.000 C
ATOM     19  C3  NAG B   2      22.595  10.782  51.6120  0.00  0.00     0.000 C
ATOM     20  C4  NAG B   2      23.075   9.569  52.4130  0.00  0.00     0.000 C
ATOM     21  C5  NAG B   2      21.962   8.728  53.0530  0.00  0.00     0.000 C
ATOM     22  O5  NAG B   2      20.775   8.652  52.2540  0.00  0.00     0.000 O
ATOM     23   O  NAG B   2      23.873   8.745  51.5560  0.00  0.00     0.000 O
ATOM     25  HD  NAG B   2      23.358   8.842  50.8670  0.00  0.00     0.000 HD
ATOM     25   C  NAG B   2      21.587   9.288  54.4330  0.00  0.00     0.000 C
ATOM     26   O  NAG B   2      22.451   8.784  55.4630  0.00  0.00     0.000 O
ATOM     28  HD  NAG B   2      21.936   8.881  54.7730  0.00  0.00     0.000 HD
BRANCH 18 30
ATOM     28   N  NAG B   2      22.260  10.582  49.8070  0.00  0.00     0.000 N
ATOM     30  HD  NAG B   2      22.831  11.121  49.4410  0.00  0.00     0.000 HD
ATOM     30   C  NAG B   2      21.956  10.601  48.5010  0.00  0.00     0.000 C
ATOM     31   C  NAG B   2      23.139  10.680  47.5780  0.00  0.00     0.000 C
ATOM     32   O  NAG B   2      20.823  10.564  48.0800  0.00  0.00     0.000 OA
ENDBRANCH 18 30
BRANCH 17 33
ATOM     33  O4  BDP B   3      20.085   7.877  50.7850  0.00  0.00     0.000 O
BRANCH 33 37
ATOM     34  C1  BDP B   3      16.947   5.174  51.8290  0.00  0.00     0.000 C
ATOM     35  C2  BDP B   3      16.551   6.608  51.5000  0.00  0.00     0.000 C
ATOM     36  C3  BDP B   3      17.625   7.381  50.7440  0.00  0.00     0.000 C
ATOM     37  C4  BDP B   3      18.989   7.148  51.4110  0.00  0.00     0.000 C
ATOM     38  C5  BDP B   3      19.230   5.626  51.4400  0.00  0.00     0.000 C
ATOM     39  O5  BDP B   3      18.275   5.102  52.3620  0.00  0.00     0.000 O
ATOM     40   O  BDP B   3      15.326   6.527  50.7670  0.00  0.00     0.000 O
ATOM     42  HD  BDP B   3      15.028   6.445  51.5760  0.00  0.00     0.000 HD
ATOM     42   O  BDP B   3      17.244   8.755  50.7810  0.00  0.00     0.000 O
ATOM     44  HD  BDP B   3      16.946   8.673  51.5900  0.00  0.00     0.000 HD
BRANCH 38 44
ATOM     44   C  BDP B   3      20.610   5.226  51.8580  0.00  0.00     0.000 C
ATOM     45   O  BDP B   3      20.746   4.665  52.9680  0.00  0.00     0.000 OA
ATOM     46   O  BDP B   3      21.578   5.460  51.1010  0.00  0.00     0.000 OA
ENDBRANCH 38 44
BRANCH 34 47
ATOM     47  O3  NAG B   4      16.475   4.770  53.1120  0.00  0.00     0.000 O
BRANCH 47 50
ATOM     48  C1  NAG B   4      13.970   2.000  53.5630  0.00  0.00     0.000 C
ATOM     49  C2  NAG B   4      14.466   3.402  53.2540  0.00  0.00     0.000 C
ATOM     50  C3  NAG B   4      15.987   3.431  53.3370  0.00  0.00     0.000 C
ATOM     51  C4  NAG B   4      16.484   2.929  54.6830  0.00  0.00     0.000 C
ATOM     52  C5  NAG B   4      15.898   1.547  54.9700  0.00  0.00     0.000 C
ATOM     53  O5  NAG B   4      14.470   1.574  54.8450  0.00  0.00     0.000 O
ATOM     54   O  NAG B   4      17.913   2.877  54.6620  0.00  0.00     0.000 O
ATOM     56  HD  NAG B   4      17.588   2.809  55.4620  0.00  0.00     0.000 HD
ATOM     56   C  NAG B   4      16.274   1.065  56.3670  0.00  0.00     0.000 C
ATOM     57   O  NAG B   4      15.764   1.993  57.3340  0.00  0.00     0.000 O
ATOM     59  HD  NAG B   4      15.439   1.924  58.1340  0.00  0.00     0.000 HD
BRANCH 49 61
ATOM     59   N  NAG B   4      13.532   4.125  54.1180  0.00  0.00     0.000 N
ATOM     61  HD  NAG B   4      14.169   4.301  53.5590  0.00  0.00     0.000 HD
ATOM     61   O  NAG B   4      13.012   5.760  52.6490  0.00  0.00     0.000 OA
ATOM     62   C  NAG B   4      12.833   5.194  53.7180  0.00  0.00     0.000 C
ATOM     63   C  NAG B   4      11.775   5.667  54.6630  0.00  0.00     0.000 C
ENDBRANCH 49 61
BRANCH 48 64
ATOM     64  O4  BDP B   5      12.824   1.263  53.1480  0.00  0.00     0.000 O
BRANCH 64 68
ATOM     65  C1  BDP B   5       8.888   2.180  54.1690  0.00  0.00     0.000 C
ATOM     66  C2  BDP B   5       9.506   0.992  54.8930  0.00  0.00     0.000 C
ATOM     67  C3  BDP B   5      11.022   1.039  54.7560  0.00  0.00     0.000 C
ATOM     68  C4  BDP B   5      11.414   1.089  53.2840  0.00  0.00     0.000 C
ATOM     69  C5  BDP B   5      10.711   2.218  52.5400  0.00  0.00     0.000 C
ATOM     70  O5  BDP B   5       9.295   2.184  52.7910  0.00  0.00     0.000 O
ATOM     71   O  BDP B   5       9.097   1.001  56.2700  0.00  0.00     0.000 O
ATOM     73  HD  BDP B   5       8.837   1.065  57.0930  0.00  0.00     0.000 HD
ATOM     73   O  BDP B   5      11.618  -0.112  55.3650  0.00  0.00     0.000 O
ATOM     75  HD  BDP B   5      11.358  -0.048  56.1880  0.00  0.00     0.000 HD
BRANCH 69 75
ATOM     75   C  BDP B   5      10.965   2.042  51.0640  0.00  0.00     0.000 C
ATOM     76   O  BDP B   5      11.619   2.916  50.4600  0.00  0.00     0.000 OA
ATOM     77   O  BDP B   5      10.519   1.030  50.4920  0.00  0.00     0.000 OA
ENDBRANCH 69 75
BRANCH 65 78
ATOM     78  O3  NAG B   6       7.598   2.222  53.5520  0.00  0.00     0.000 O
BRANCH 78 81
ATOM     79  C1  NAG B   6       4.223   3.891  53.9490  0.00  0.00     0.000 C
ATOM     80  C2  NAG B   6       5.325   2.843  54.1720  0.00  0.00     0.000 C
ATOM     81  C3  NAG B   6       6.608   3.270  53.4770  0.00  0.00     0.000 C
ATOM     82  C4  NAG B   6       6.340   3.633  52.0120  0.00  0.00     0.000 C
ATOM     83  C5  NAG B   6       5.240   4.686  51.9440  0.00  0.00     0.000 C
ATOM     84  O5  NAG B   6       4.068   4.127  52.5380  0.00  0.00     0.000 O
BRANCH 80 87
ATOM     85   N  NAG B   6       5.136   1.636  54.9730  0.00  0.00     0.000 N
ATOM     87  HD  NAG B   6       5.465   0.934  55.3570  0.00  0.00     0.000 HD
ATOM     87   C  NAG B   6       5.642   1.465  56.2000  0.00  0.00     0.000 C
ATOM     88   C  NAG B   6       5.303   0.170  56.8660  0.00  0.00     0.000 C
ATOM     89   O  NAG B   6       6.330   2.308  56.7630  0.00  0.00     0.000 OA
ENDBRANCH 80 87
ATOM     90   O  NAG B   6       5.325   6.502  50.3490  0.00  0.00     0.000 O
ATOM     92  HD  NAG B   6       5.056   6.248  51.1320  0.00  0.00     0.000 HD
ATOM     92   O  NAG B   6       5.325   6.502  50.3490  0.00  0.00     0.000 O
ATOM     94  HD  NAG B   6       5.056   6.248  51.1320  0.00  0.00     0.000 HD
ENDBRANCH 78 81
ENDBRANCH 65 78
ENDBRANCH 64 68
ENDBRANCH 48 64
ENDBRANCH 47 50
ENDBRANCH 34 47
ENDBRANCH 33 37
ENDBRANCH 17 33
ENDBRANCH 16 19
ENDBRANCH 1 16
TORSDOF 16
ENDMDL
MODEL 39
REMARK VINA RESULT:      -2.3     24.495     28.245
ROOT
ATOM      1  C1  BDP B   1      23.553  13.683  52.6480  0.00  0.00     0.000 C
ATOM      2  C2  BDP B   1      24.272  13.789  51.3150  0.00  0.00     0.000 C
ATOM      3  C3  BDP B   1      25.693  14.289  51.4720  0.00  0.00     0.000 C
ATOM      4  C4  BDP B   1      26.214  14.240  52.9040  0.00  0.00     0.000 C
ATOM      5  C5  BDP B   1      25.220  14.805  53.9140  0.00  0.00     0.000 C
ATOM      6  O5  BDP B   1      23.881  14.848  53.3910  0.00  0.00     0.000 O
ATOM      7   O  BDP B   1      24.280  12.514  50.6630  0.00  0.00     0.000 O
ATOM      9  HD  BDP B   1      23.885  11.783  50.4190  0.00  0.00     0.000 HD
ATOM      9   O  BDP B   1      25.786  15.649  51.0200  0.00  0.00     0.000 O
ATOM     11  HD  BDP B   1      25.391  14.918  50.7760  0.00  0.00     0.000 HD
ATOM     11   O  BDP B   1      26.559  12.897  53.2640  0.00  0.00     0.000 O
ATOM     13  HD  BDP B   1      26.164  12.166  53.0210  0.00  0.00     0.000 HD
ENDROOT
BRANCH 5 13
ATOM     13   C  BDP B   1      25.671  16.182  54.2540  0.00  0.00     0.000 C
ATOM     14   O  BDP B   1      24.964  16.859  55.0290  0.00  0.00     0.000 OA
ATOM     15   O  BDP B   1      26.746  16.605  53.7770  0.00  0.00     0.000 OA
ENDBRANCH 5 13
BRANCH 1 16
ATOM     16  O3  NAG B   2      22.948  12.561  53.2880  0.00  0.00     0.000 O
BRANCH 16 19
ATOM     17  C1  NAG B   2      19.412  12.251  54.0970  0.00  0.00     0.000 C
ATOM     18  C2  NAG B   2      20.536  12.304  53.0620  0.00  0.00     0.000 C
ATOM     19  C3  NAG B   2      21.828  11.750  53.6450  0.00  0.00     0.000 C
ATOM     20  C4  NAG B   2      21.751  11.618  55.1690  0.00  0.00     0.000 C
ATOM     21  C5  NAG B   2      20.942  12.713  55.8780  0.00  0.00     0.000 C
ATOM     22  O5  NAG B   2      19.808  13.160  55.1270  0.00  0.00     0.000 O
ATOM     23   O  NAG B   2      21.208  10.332  55.4860  0.00  0.00     0.000 O
ATOM     25  HD  NAG B   2      20.615  10.348  54.8560  0.00  0.00     0.000 HD
ATOM     25   C  NAG B   2      21.831  13.925  56.1910  0.00  0.00     0.000 C
ATOM     26   O  NAG B   2      22.540  13.758  57.4270  0.00  0.00     0.000 O
ATOM     28  HD  NAG B   2      21.947  13.775  56.7970  0.00  0.00     0.000 HD
BRANCH 18 30
ATOM     28   N  NAG B   2      19.599  11.220  52.7710  0.00  0.00     0.000 N
ATOM     30  HD  NAG B   2      19.334  10.449  53.0630  0.00  0.00     0.000 HD
ATOM     30   C  NAG B   2      19.689  10.386  51.7250  0.00  0.00     0.000 C
ATOM     31   C  NAG B   2      18.596   9.360  51.6390  0.00  0.00     0.000 C
ATOM     32   O  NAG B   2      20.579  10.437  50.9080  0.00  0.00     0.000 OA
ENDBRANCH 18 30
BRANCH 17 33
ATOM     33  O4  BDP B   3      18.144  12.692  54.6290  0.00  0.00     0.000 O
BRANCH 33 37
ATOM     34  C1  BDP B   3      14.426  10.704  55.3110  0.00  0.00     0.000 C
ATOM     35  C2  BDP B   3      14.452  11.783  54.2350  0.00  0.00     0.000 C
ATOM     36  C3  BDP B   3      15.856  12.138  53.7590  0.00  0.00     0.000 C
ATOM     37  C4  BDP B   3      16.780  12.312  54.9740  0.00  0.00     0.000 C
ATOM     38  C5  BDP B   3      16.717  11.005  55.7880  0.00  0.00     0.000 C
ATOM     39  O5  BDP B   3      15.398  10.952  56.3320  0.00  0.00     0.000 O
ATOM     40   O  BDP B   3      13.624  11.308  53.1720  0.00  0.00     0.000 O
ATOM     42  HD  BDP B   3      13.021  11.615  53.7120  0.00  0.00     0.000 HD
ATOM     42   O  BDP B   3      15.741  13.342  53.0030  0.00  0.00     0.000 O
ATOM     44  HD  BDP B   3      15.137  13.649  53.5430  0.00  0.00     0.000 HD
BRANCH 38 44
ATOM     44   C  BDP B   3      17.725  10.913  56.8910  0.00  0.00     0.000 C
ATOM     45   O  BDP B   3      17.604  11.694  57.8600  0.00  0.00     0.000 OA
ATOM     46   O  BDP B   3      18.648  10.073  56.8160  0.00  0.00     0.000 OA
ENDBRANCH 38 44
BRANCH 34 47
ATOM     47  O3  NAG B   4      13.421  10.952  56.2920  0.00  0.00     0.000 O
BRANCH 47 50
ATOM     48  C1  NAG B   4      11.494   7.922  57.4150  0.00  0.00     0.000 C
ATOM     49  C2  NAG B   4      12.008   8.975  56.4480  0.00  0.00     0.000 C
ATOM     50  C3  NAG B   4      12.972   9.904  57.1760  0.00  0.00     0.000 C
ATOM     51  C4  NAG B   4      12.331  10.521  58.4090  0.00  0.00     0.000 C
ATOM     52  C5  NAG B   4      11.771   9.419  59.3090  0.00  0.00     0.000 C
ATOM     53  O5  NAG B   4      10.900   8.559  58.5630  0.00  0.00     0.000 O
ATOM     54   O  NAG B   4      13.312  11.293  59.1070  0.00  0.00     0.000 O
ATOM     56  HD  NAG B   4      12.505  11.456  59.3770  0.00  0.00     0.000 HD
ATOM     56   C  NAG B   4      11.011  10.004  60.4940  0.00  0.00     0.000 C
ATOM     57   O  NAG B   4       9.922  10.798  60.0040  0.00  0.00     0.000 O
ATOM     59  HD  NAG B   4       9.116  10.961  60.2740  0.00  0.00     0.000 HD
BRANCH 49 61
ATOM     59   N  NAG B   4      10.734   9.407  55.8730  0.00  0.00     0.000 N
ATOM     61  HD  NAG B   4      11.580   9.563  55.7700  0.00  0.00     0.000 HD
ATOM     61   O  NAG B   4      11.394   9.395  53.7120  0.00  0.00     0.000 OA
ATOM     62   C  NAG B   4      10.516   9.508  54.5560  0.00  0.00     0.000 C
ATOM     63   C  NAG B   4       9.097   9.755  54.1520  0.00  0.00     0.000 C
ENDBRANCH 49 61
BRANCH 48 64
ATOM     64  O4  BDP B   5      11.053   6.579  57.2420  0.00  0.00     0.000 O
BRANCH 64 68
ATOM     65  C1  BDP B   5       7.461   5.492  55.4290  0.00  0.00     0.000 C
ATOM     66  C2  BDP B   5       7.611   5.107  56.8950  0.00  0.00     0.000 C
ATOM     67  C3  BDP B   5       8.736   5.919  57.5250  0.00  0.00     0.000 C
ATOM     68  C4  BDP B   5      10.027   5.725  56.7380  0.00  0.00     0.000 C
ATOM     69  C5  BDP B   5       9.844   6.010  55.2530  0.00  0.00     0.000 C
ATOM     70  O5  BDP B   5       8.705   5.298  54.7380  0.00  0.00     0.000 O
ATOM     71   O  BDP B   5       6.364   5.310  57.5770  0.00  0.00     0.000 O
ATOM     73  HD  BDP B   5       5.596   5.470  57.9440  0.00  0.00     0.000 HD
ATOM     73   O  BDP B   5       8.946   5.518  58.8840  0.00  0.00     0.000 O
ATOM     75  HD  BDP B   5       8.177   5.677  59.2500  0.00  0.00     0.000 HD
BRANCH 69 75
ATOM     75   C  BDP B   5      11.087   5.562  54.5280  0.00  0.00     0.000 C
ATOM     76   O  BDP B   5      11.769   6.415  53.9250  0.00  0.00     0.000 OA
ATOM     77   O  BDP B   5      11.400   4.358  54.5540  0.00  0.00     0.000 OA
ENDBRANCH 69 75
BRANCH 65 78
ATOM     78  O3  NAG B   6       7.002   4.644  54.3730  0.00  0.00     0.000 O
BRANCH 78 81
ATOM     79  C1  NAG B   6       4.199   4.789  51.8320  0.00  0.00     0.000 C
ATOM     80  C2  NAG B   6       4.862   4.622  53.2080  0.00  0.00     0.000 C
ATOM     81  C3  NAG B   6       6.344   4.945  53.1220  0.00  0.00     0.000 C
ATOM     82  C4  NAG B   6       7.007   4.166  51.9820  0.00  0.00     0.000 C
ATOM     83  C5  NAG B   6       6.258   4.435  50.6820  0.00  0.00     0.000 C
ATOM     84  O5  NAG B   6       4.910   3.998  50.8620  0.00  0.00     0.000 O
BRANCH 80 87
ATOM     85   N  NAG B   6       4.260   4.223  54.4780  0.00  0.00     0.000 N
ATOM     87  HD  NAG B   6       4.289   4.194  55.3430  0.00  0.00     0.000 HD
ATOM     87   C  NAG B   6       3.815   5.086  55.4000  0.00  0.00     0.000 C
ATOM     88   C  NAG B   6       3.200   4.474  56.6180  0.00  0.00     0.000 C
ATOM     89   O  NAG B   6       3.883   6.302  55.2660  0.00  0.00     0.000 OA
ENDBRANCH 80 87
ATOM     90   O  NAG B   6       7.424   4.690  48.5790  0.00  0.00     0.000 O
ATOM     92  HD  NAG B   6       6.730   4.915  49.0450  0.00  0.00     0.000 HD
ATOM     92   O  NAG B   6       7.424   4.690  48.5790  0.00  0.00     0.000 O
ATOM     94  HD  NAG B   6       6.730   4.915  49.0450  0.00  0.00     0.000 HD
ENDBRANCH 78 81
ENDBRANCH 65 78
ENDBRANCH 64 68
ENDBRANCH 48 64
ENDBRANCH 47 50
ENDBRANCH 34 47
ENDBRANCH 33 37
ENDBRANCH 17 33
ENDBRANCH 16 19
ENDBRANCH 1 16
TORSDOF 16
ENDMDL
MODEL 40
REMARK VINA RESULT:      -2.1     24.557     28.660
ROOT
ATOM      1  C1  BDP B   1      23.362  13.551  52.6800  0.00  0.00     0.000 C
ATOM      2  C2  BDP B   1      24.452  13.512  51.6230  0.00  0.00     0.000 C
ATOM      3  C3  BDP B   1      25.680  14.292  52.0410  0.00  0.00     0.000 C
ATOM      4  C4  BDP B   1      25.719  14.641  53.5250  0.00  0.00     0.000 C
ATOM      5  C5  BDP B   1      24.396  15.205  54.0340  0.00  0.00     0.000 C
ATOM      6  O5  BDP B   1      23.299  14.885  53.1610  0.00  0.00     0.000 O
ATOM      7   O  BDP B   1      24.815  12.154  51.3490  0.00  0.00     0.000 O
ATOM      9  HD  BDP B   1      24.605  11.327  51.1990  0.00  0.00     0.000 HD
ATOM      9   O  BDP B   1      25.754  15.521  51.3020  0.00  0.00     0.000 O
ATOM     11  HD  BDP B   1      25.545  14.694  51.1520  0.00  0.00     0.000 HD
ATOM     11   O  BDP B   1      26.084  13.492  54.2990  0.00  0.00     0.000 O
ATOM     13  HD  BDP B   1      25.875  12.665  54.1490  0.00  0.00     0.000 HD
ENDROOT
BRANCH 5 13
ATOM     13   C  BDP B   1      24.553  16.683  54.1230  0.00  0.00     0.000 C
ATOM     14   O  BDP B   1      23.802  17.398  53.4270  0.00  0.00     0.000 OA
ATOM     15   O  BDP B   1      25.404  17.158  54.9040  0.00  0.00     0.000 OA
ENDBRANCH 5 13
BRANCH 1 16
ATOM     16  O3  NAG B   2      22.719  12.493  53.3890  0.00  0.00     0.000 O
BRANCH 16 19
ATOM     17  C1  NAG B   2      19.489  11.439  54.6960  0.00  0.00     0.000 C
ATOM     18  C2  NAG B   2      20.324  12.103  53.6000  0.00  0.00     0.000 C
ATOM     19  C3  NAG B   2      21.714  11.489  53.5410  0.00  0.00     0.000 C
ATOM     20  C4  NAG B   2      22.014  10.642  54.7800  0.00  0.00     0.000 C
ATOM     21  C5  NAG B   2      21.414  11.170  56.0910  0.00  0.00     0.000 C
ATOM     22  O5  NAG B   2      20.134  11.788  55.9220  0.00  0.00     0.000 O
ATOM     23   O  NAG B   2      21.556   9.307  54.5400  0.00  0.00     0.000 O
ATOM     25  HD  NAG B   2      20.826   9.554  54.1450  0.00  0.00     0.000 HD
ATOM     25   C  NAG B   2      22.363  12.180  56.7520  0.00  0.00     0.000 C
ATOM     26   O  NAG B   2      23.354  11.528  57.5600  0.00  0.00     0.000 O
ATOM     28  HD  NAG B   2      22.623  11.775  57.1650  0.00  0.00     0.000 HD
BRANCH 18 30
ATOM     28   N  NAG B   2      19.155  11.522  52.9420  0.00  0.00     0.000 N
ATOM     30  HD  NAG B   2      18.607  10.853  52.9870  0.00  0.00     0.000 HD
ATOM     30   C  NAG B   2      19.158  10.968  51.7210  0.00  0.00     0.000 C
ATOM     31   C  NAG B   2      17.825  10.449  51.2590  0.00  0.00     0.000 C
ATOM     32   O  NAG B   2      20.148  10.877  51.0330  0.00  0.00     0.000 OA
ENDBRANCH 18 30
BRANCH 17 33
ATOM     33  O4  BDP B   3      18.394  11.428  55.6380  0.00  0.00     0.000 O
BRANCH 33 37
ATOM     34  C1  BDP B   3      15.058   8.822  56.2020  0.00  0.00     0.000 C
ATOM     35  C2  BDP B   3      14.782  10.180  55.5690  0.00  0.00     0.000 C
ATOM     36  C3  BDP B   3      16.029  10.863  55.0190  0.00  0.00     0.000 C
ATOM     37  C4  BDP B   3      17.162  10.769  56.0520  0.00  0.00     0.000 C
ATOM     38  C5  BDP B   3      17.367   9.276  56.3720  0.00  0.00     0.000 C
ATOM     39  O5  BDP B   3      16.194   8.867  57.0740  0.00  0.00     0.000 O
ATOM     40   O  BDP B   3      13.797   9.957  54.5580  0.00  0.00     0.000 O
ATOM     42  HD  BDP B   3      13.292   9.987  55.2610  0.00  0.00     0.000 HD
ATOM     42   O  BDP B   3      15.670  12.216  54.7470  0.00  0.00     0.000 O
ATOM     44  HD  BDP B   3      15.165  12.246  55.4500  0.00  0.00     0.000 HD
BRANCH 38 44
ATOM     44   C  BDP B   3      18.581   8.980  57.1970  0.00  0.00     0.000 C
ATOM     45   O  BDP B   3      18.608   9.410  58.3710  0.00  0.00     0.000 OA
ATOM     46   O  BDP B   3      19.522   8.324  56.7000  0.00  0.00     0.000 OA
ENDBRANCH 38 44
BRANCH 34 47
ATOM     47  O3  NAG B   4      14.255   8.599  57.3600  0.00  0.00     0.000 O
BRANCH 47 50
ATOM     48  C1  NAG B   4      12.441   5.314  57.6160  0.00  0.00     0.000 C
ATOM     49  C2  NAG B   4      12.769   6.692  57.0700  0.00  0.00     0.000 C
ATOM     50  C3  NAG B   4      13.968   7.262  57.8190  0.00  0.00     0.000 C
ATOM     51  C4  NAG B   4      13.732   7.281  59.3210  0.00  0.00     0.000 C
ATOM     52  C5  NAG B   4      13.338   5.884  59.8010  0.00  0.00     0.000 C
ATOM     53  O5  NAG B   4      12.230   5.388  59.0400  0.00  0.00     0.000 O
ATOM     54   O  NAG B   4      14.926   7.721  59.9740  0.00  0.00     0.000 O
ATOM     56  HD  NAG B   4      14.236   7.728  60.4980  0.00  0.00     0.000 HD
ATOM     56   C  NAG B   4      12.972   5.891  61.2810  0.00  0.00     0.000 C
ATOM     57   O  NAG B   4      11.865   6.778  61.4850  0.00  0.00     0.000 O
ATOM     59  HD  NAG B   4      11.176   6.785  62.0090  0.00  0.00     0.000 HD
BRANCH 49 61
ATOM     59   N  NAG B   4      11.390   7.180  57.0500  0.00  0.00     0.000 N
ATOM     61  HD  NAG B   4      12.182   7.464  56.8480  0.00  0.00     0.000 HD
ATOM     61   O  NAG B   4      11.491   8.202  55.0390  0.00  0.00     0.000 OA
ATOM     62   C  NAG B   4      10.850   7.826  56.0100  0.00  0.00     0.000 C
ATOM     63   C  NAG B   4       9.374   8.056  56.0860  0.00  0.00     0.000 C
ENDBRANCH 49 61
BRANCH 48 64
ATOM     64  O4  BDP B   5      11.856   4.154  57.0340  0.00  0.00     0.000 O
BRANCH 64 68
ATOM     65  C1  BDP B   5       7.886   3.860  55.7990  0.00  0.00     0.000 C
ATOM     66  C2  BDP B   5       8.255   3.073  57.0490  0.00  0.00     0.000 C
ATOM     67  C3  BDP B   5       9.567   3.599  57.6160  0.00  0.00     0.000 C
ATOM     68  C4  BDP B   5      10.658   3.545  56.5520  0.00  0.00     0.000 C
ATOM     69  C5  BDP B   5      10.241   4.245  55.2650  0.00  0.00     0.000 C
ATOM     70  O5  BDP B   5       8.948   3.783  54.8350  0.00  0.00     0.000 O
ATOM     71   O  BDP B   5       7.189   3.162  58.0070  0.00  0.00     0.000 O
ATOM     73  HD  BDP B   5       6.527   3.264  58.5550  0.00  0.00     0.000 HD
ATOM     73   O  BDP B   5       9.973   2.821  58.7490  0.00  0.00     0.000 O
ATOM     75  HD  BDP B   5       9.311   2.923  59.2970  0.00  0.00     0.000 HD
BRANCH 69 75
ATOM     75   C  BDP B   5      11.265   3.934  54.2040  0.00  0.00     0.000 C
ATOM     76   O  BDP B   5      12.320   4.600  54.1750  0.00  0.00     0.000 OA
ATOM     77   O  BDP B   5      11.032   3.022  53.3900  0.00  0.00     0.000 OA
ENDBRANCH 69 75
BRANCH 65 78
ATOM     78  O3  NAG B   6       7.140   3.375  54.6790  0.00  0.00     0.000 O
BRANCH 78 81
ATOM     79  C1  NAG B   6       4.242   4.508  52.5220  0.00  0.00     0.000 C
ATOM     80  C2  NAG B   6       4.954   3.910  53.7470  0.00  0.00     0.000 C
ATOM     81  C3  NAG B   6       6.459   4.067  53.6100  0.00  0.00     0.000 C
ATOM     82  C4  NAG B   6       6.942   3.541  52.2550  0.00  0.00     0.000 C
ATOM     83  C5  NAG B   6       6.163   4.226  51.1380  0.00  0.00     0.000 C
ATOM     84  O5  NAG B   6       4.781   3.920  51.3240  0.00  0.00     0.000 O
BRANCH 80 87
ATOM     85   N  NAG B   6       4.329   3.280  54.9070  0.00  0.00     0.000 N
ATOM     87  HD  NAG B   6       4.382   2.995  55.7230  0.00  0.00     0.000 HD
ATOM     87   C  NAG B   6       4.108   3.905  56.0700  0.00  0.00     0.000 C
ATOM     88   C  NAG B   6       3.423   3.092  57.1230  0.00  0.00     0.000 C
ATOM     89   O  NAG B   6       4.425   5.071  56.2740  0.00  0.00     0.000 OA
ENDBRANCH 80 87
ATOM     90   O  NAG B   6       7.231   4.884  49.0700  0.00  0.00     0.000 O
ATOM     92  HD  NAG B   6       6.602   5.059  49.6390  0.00  0.00     0.000 HD
ATOM     92   O  NAG B   6       7.231   4.884  49.0700  0.00  0.00     0.000 O
ATOM     94  HD  NAG B   6       6.602   5.059  49.6390  0.00  0.00     0.000 HD
ENDBRANCH 78 81
ENDBRANCH 65 78
ENDBRANCH 64 68
ENDBRANCH 48 64
ENDBRANCH 47 50
ENDBRANCH 34 47
ENDBRANCH 33 37
ENDBRANCH 17 33
ENDBRANCH 16 19
ENDBRANCH 1 16
TORSDOF 16
ENDMDL
MODEL 41
REMARK VINA RESULT:      -2.1     15.892     25.217
ROOT
ATOM      1  C1  BDP B   1      19.812  37.727  14.0760  0.00  0.00     0.000 C
ATOM      2  C2  BDP B   1      19.700  38.344  12.6940  0.00  0.00     0.000 C
ATOM      3  C3  BDP B   1      21.053  38.694  12.1140  0.00  0.00     0.000 C
ATOM      4  C4  BDP B   1      22.227  38.053  12.8450  0.00  0.00     0.000 C
ATOM      5  C5  BDP B   1      22.124  38.188  14.3610  0.00  0.00     0.000 C
ATOM      6  O5  BDP B   1      20.783  38.480  14.7890  0.00  0.00     0.000 O
ATOM      7   O  BDP B   1      19.018  37.444  11.8130  0.00  0.00     0.000 O
ATOM      9  HD  BDP B   1      18.376  36.887  11.6440  0.00  0.00     0.000 HD
ATOM      9   O  BDP B   1      21.246  40.117  12.1450  0.00  0.00     0.000 O
ATOM     11  HD  BDP B   1      20.605  39.560  11.9750  0.00  0.00     0.000 HD
ATOM     11   O  BDP B   1      22.341  36.669  12.4900  0.00  0.00     0.000 O
ATOM     13  HD  BDP B   1      21.700  36.112  12.3200  0.00  0.00     0.000 HD
ENDROOT
BRANCH 5 13
ATOM     13   C  BDP B   1      23.033  39.295  14.7680  0.00  0.00     0.000 C
ATOM     14   O  BDP B   1      23.760  39.811  13.8950  0.00  0.00     0.000 OA
ATOM     15   O  BDP B   1      23.020  39.687  15.9550  0.00  0.00     0.000 OA
ENDBRANCH 5 13
BRANCH 1 16
ATOM     16  O3  NAG B   2      19.375  36.460  14.5650  0.00  0.00     0.000 O
BRANCH 16 19
ATOM     17  C1  NAG B   2      19.035  33.143  13.1040  0.00  0.00     0.000 C
ATOM     18  C2  NAG B   2      19.867  34.398  13.3640  0.00  0.00     0.000 C
ATOM     19  C3  NAG B   2      19.470  35.040  14.6850  0.00  0.00     0.000 C
ATOM     20  C4  NAG B   2      18.149  34.476  15.2150  0.00  0.00     0.000 C
ATOM     21  C5  NAG B   2      17.112  34.124  14.1380  0.00  0.00     0.000 C
ATOM     22  O5  NAG B   2      17.694  33.610  12.9350  0.00  0.00     0.000 O
ATOM     23   O  NAG B   2      18.433  33.321  16.0100  0.00  0.00     0.000 O
ATOM     25  HD  NAG B   2      19.043  33.017  15.4760  0.00  0.00     0.000 HD
ATOM     25   C  NAG B   2      16.260  35.351  13.7860  0.00  0.00     0.000 C
ATOM     26   O  NAG B   2      15.154  35.507  14.6860  0.00  0.00     0.000 O
ATOM     28  HD  NAG B   2      15.764  35.203  14.1520  0.00  0.00     0.000 HD
BRANCH 18 30
ATOM     28   N  NAG B   2      20.622  33.196  13.7140  0.00  0.00     0.000 N
ATOM     30  HD  NAG B   2      20.722  32.611  14.3450  0.00  0.00     0.000 HD
ATOM     30   C  NAG B   2      21.937  33.163  13.9730  0.00  0.00     0.000 C
ATOM     31   C  NAG B   2      22.483  31.801  14.2970  0.00  0.00     0.000 C
ATOM     32   O  NAG B   2      22.644  34.143  13.9570  0.00  0.00     0.000 OA
ENDBRANCH 18 30
BRANCH 17 33
ATOM     33  O4  BDP B   3      18.465  32.147  12.2270  0.00  0.00     0.000 O
BRANCH 33 37
ATOM     34  C1  BDP B   3      18.951  27.967  11.4950  0.00  0.00     0.000 C
ATOM     35  C2  BDP B   3      20.085  28.887  11.0600  0.00  0.00     0.000 C
ATOM     36  C3  BDP B   3      20.042  30.263  11.7150  0.00  0.00     0.000 C
ATOM     37  C4  BDP B   3      18.608  30.813  11.6580  0.00  0.00     0.000 C
ATOM     38  C5  BDP B   3      17.693  29.777  12.3390  0.00  0.00     0.000 C
ATOM     39  O5  BDP B   3      17.687  28.641  11.4740  0.00  0.00     0.000 O
ATOM     40   O  BDP B   3      21.299  28.189  11.3470  0.00  0.00     0.000 O
ATOM     42  HD  BDP B   3      21.079  27.816  10.5960  0.00  0.00     0.000 HD
ATOM     42   O  BDP B   3      20.956  31.089  10.9970  0.00  0.00     0.000 O
ATOM     44  HD  BDP B   3      20.737  30.716  10.2460  0.00  0.00     0.000 HD
BRANCH 38 44
ATOM     44   C  BDP B   3      16.291  30.246  12.5690  0.00  0.00     0.000 C
ATOM     45   O  BDP B   3      15.965  30.570  13.7330  0.00  0.00     0.000 OA
ATOM     46   O  BDP B   3      15.492  30.302  11.6090  0.00  0.00     0.000 OA
ENDBRANCH 38 44
BRANCH 34 47
ATOM     47  O3  NAG B   4      18.472  27.164  10.4180  0.00  0.00     0.000 O
BRANCH 47 50
ATOM     48  C1  NAG B   4      18.190  23.440  10.8670  0.00  0.00     0.000 C
ATOM     49  C2  NAG B   4      18.882  24.778  10.6760  0.00  0.00     0.000 C
ATOM     50  C3  NAG B   4      17.841  25.891  10.6660  0.00  0.00     0.000 C
ATOM     51  C4  NAG B   4      16.768  25.643   9.6170  0.00  0.00     0.000 C
ATOM     52  C5  NAG B   4      16.157  24.256   9.8170  0.00  0.00     0.000 C
ATOM     53  O5  NAG B   4      17.184  23.258   9.8510  0.00  0.00     0.000 O
ATOM     54   O  NAG B   4      15.766  26.657   9.7280  0.00  0.00     0.000 O
ATOM     56  HD  NAG B   4      15.705  26.207   8.9900  0.00  0.00     0.000 HD
ATOM     56   C  NAG B   4      15.166  23.923   8.7080  0.00  0.00     0.000 C
ATOM     57   O  NAG B   4      15.848  23.950   7.4470  0.00  0.00     0.000 O
ATOM     59  HD  NAG B   4      15.787  23.500   6.7090  0.00  0.00     0.000 HD
BRANCH 49 61
ATOM     59   N  NAG B   4      19.975  24.571  11.6270  0.00  0.00     0.000 N
ATOM     61  HD  NAG B   4      19.824  24.473  10.7800  0.00  0.00     0.000 HD
ATOM     61   O  NAG B   4      21.631  25.376  10.3180  0.00  0.00     0.000 OA
ATOM     62   C  NAG B   4      21.237  24.954  11.3960  0.00  0.00     0.000 C
ATOM     63   C  NAG B   4      22.167  24.856  12.5630  0.00  0.00     0.000 C
ENDBRANCH 49 61
BRANCH 48 64
ATOM     64  O4  BDP B   5      18.600  22.211  11.4600  0.00  0.00     0.000 O
BRANCH 64 68
ATOM     65  C1  BDP B   5      19.088  18.862  13.8920  0.00  0.00     0.000 C
ATOM     66  C2  BDP B   5      18.290  18.647  12.6130  0.00  0.00     0.000 C
ATOM     67  C3  BDP B   5      18.554  19.793  11.6460  0.00  0.00     0.000 C
ATOM     68  C4  BDP B   5      18.235  21.127  12.3120  0.00  0.00     0.000 C
ATOM     69  C5  BDP B   5      18.955  21.291  13.6440  0.00  0.00     0.000 C
ATOM     70  O5  BDP B   5      18.756  20.133  14.4740  0.00  0.00     0.000 O
ATOM     71   O  BDP B   5      18.635  17.377  12.0380  0.00  0.00     0.000 O
ATOM     73  HD  BDP B   5      18.893  16.613  11.7240  0.00  0.00     0.000 HD
ATOM     73   O  BDP B   5      17.754  19.651  10.4660  0.00  0.00     0.000 O
ATOM     75  HD  BDP B   5      18.012  18.886  10.1520  0.00  0.00     0.000 HD
BRANCH 69 75
ATOM     75   C  BDP B   5      18.399  22.508  14.3370  0.00  0.00     0.000 C
ATOM     76   O  BDP B   5      17.248  22.452  14.8170  0.00  0.00     0.000 OA
ATOM     77   O  BDP B   5      19.102  23.533  14.4150  0.00  0.00     0.000 OA
ENDBRANCH 69 75
BRANCH 65 78
ATOM     78  O3  NAG B   6      18.725  18.422  15.2040  0.00  0.00     0.000 O
BRANCH 78 81
ATOM     79  C1  NAG B   6      20.826  16.981  18.0040  0.00  0.00     0.000 C
ATOM     80  C2  NAG B   6      20.176  17.064  16.6140  0.00  0.00     0.000 C
ATOM     81  C3  NAG B   6      19.465  18.397  16.4440  0.00  0.00     0.000 C
ATOM     82  C4  NAG B   6      18.522  18.667  17.6210  0.00  0.00     0.000 C
ATOM     83  C5  NAG B   6      19.301  18.564  18.9280  0.00  0.00     0.000 C
ATOM     84  O5  NAG B   6      19.832  17.241  19.0110  0.00  0.00     0.000 O
BRANCH 80 87
ATOM     85   N  NAG B   6      21.238  16.770  15.6550  0.00  0.00     0.000 N
ATOM     87  HD  NAG B   6      21.747  16.195  15.2560  0.00  0.00     0.000 HD
ATOM     87   C  NAG B   6      21.056  16.074  14.5270  0.00  0.00     0.000 C
ATOM     88   C  NAG B   6      22.266  15.912  13.6620  0.00  0.00     0.000 C
ATOM     89   O  NAG B   6      19.973  15.604  14.1980  0.00  0.00     0.000 OA
ENDBRANCH 80 87
ATOM     90   O  NAG B   6      18.882  20.072  20.7710  0.00  0.00     0.000 O
ATOM     92  HD  NAG B   6      19.471  19.585  20.3630  0.00  0.00     0.000 HD
ATOM     92   O  NAG B   6      18.882  20.072  20.7710  0.00  0.00     0.000 O
ATOM     94  HD  NAG B   6      19.471  19.585  20.3630  0.00  0.00     0.000 HD
ENDBRANCH 78 81
ENDBRANCH 65 78
ENDBRANCH 64 68
ENDBRANCH 48 64
ENDBRANCH 47 50
ENDBRANCH 34 47
ENDBRANCH 33 37
ENDBRANCH 17 33
ENDBRANCH 16 19
ENDBRANCH 1 16
TORSDOF 16
ENDMDL
MODEL 42
REMARK VINA RESULT:      -2.0     13.115     21.593
ROOT
ATOM      1  C1  BDP B   1      39.980  22.109  18.5570  0.00  0.00     0.000 C
ATOM      2  C2  BDP B   1      41.141  21.823  19.4930  0.00  0.00     0.000 C
ATOM      3  C3  BDP B   1      41.879  23.085  19.8870  0.00  0.00     0.000 C
ATOM      4  C4  BDP B   1      41.122  24.371  19.5750  0.00  0.00     0.000 C
ATOM      5  C5  BDP B   1      40.537  24.384  18.1660  0.00  0.00     0.000 C
ATOM      6  O5  BDP B   1      40.436  23.062  17.6090  0.00  0.00     0.000 O
ATOM      7   O  BDP B   1      40.667  21.156  20.6670  0.00  0.00     0.000 O
ATOM      9  HD  BDP B   1      40.176  20.557  21.0550  0.00  0.00     0.000 HD
ATOM      9   O  BDP B   1      43.143  23.146  19.2080  0.00  0.00     0.000 O
ATOM     11  HD  BDP B   1      42.651  22.548  19.5950  0.00  0.00     0.000 HD
ATOM     11   O  BDP B   1      40.079  24.582  20.5340  0.00  0.00     0.000 O
ATOM     13  HD  BDP B   1      39.588  23.983  20.9210  0.00  0.00     0.000 HD
ENDROOT
BRANCH 5 13
ATOM     13   C  BDP B   1      41.437  25.217  17.3220  0.00  0.00     0.000 C
ATOM     14   O  BDP B   1      42.376  24.651  16.7250  0.00  0.00     0.000 OA
ATOM     15   O  BDP B   1      41.211  26.442  17.2180  0.00  0.00     0.000 OA
ENDBRANCH 5 13
BRANCH 1 16
ATOM     16  O3  NAG B   2      38.587  21.834  18.6970  0.00  0.00     0.000 O
BRANCH 16 19
ATOM     17  C1  NAG B   2      36.974  18.773  17.5650  0.00  0.00     0.000 C
ATOM     18  C2  NAG B   2      37.875  19.508  18.5570  0.00  0.00     0.000 C
ATOM     19  C3  NAG B   2      37.454  20.964  18.6860  0.00  0.00     0.000 C
ATOM     20  C4  NAG B   2      36.497  21.379  17.5650  0.00  0.00     0.000 C
ATOM     21  C5  NAG B   2      36.770  20.729  16.2010  0.00  0.00     0.000 C
ATOM     22  O5  NAG B   2      37.239  19.379  16.2980  0.00  0.00     0.000 O
ATOM     23   O  NAG B   2      35.158  21.090  17.9800  0.00  0.00     0.000 O
ATOM     25  HD  NAG B   2      35.360  20.331  18.3450  0.00  0.00     0.000 HD
ATOM     25   C  NAG B   2      37.796  21.549  15.4070  0.00  0.00     0.000 C
ATOM     26   O  NAG B   2      37.175  22.620  14.6830  0.00  0.00     0.000 O
ATOM     28  HD  NAG B   2      37.377  21.861  15.0480  0.00  0.00     0.000 HD
BRANCH 18 30
ATOM     28   N  NAG B   2      36.924  18.639  19.2490  0.00  0.00     0.000 N
ATOM     30  HD  NAG B   2      36.082  18.557  19.4320  0.00  0.00     0.000 HD
ATOM     30   C  NAG B   2      36.857  18.478  20.5780  0.00  0.00     0.000 C
ATOM     31   C  NAG B   2      35.798  17.520  21.0460  0.00  0.00     0.000 C
ATOM     32   O  NAG B   2      37.578  19.057  21.3570  0.00  0.00     0.000 OA
ENDBRANCH 18 30
BRANCH 17 33
ATOM     33  O4  BDP B   3      36.703  17.696  16.6410  0.00  0.00     0.000 O
BRANCH 33 37
ATOM     34  C1  BDP B   3      33.701  14.662  16.5080  0.00  0.00     0.000 C
ATOM     35  C2  BDP B   3      35.123  14.221  16.8340  0.00  0.00     0.000 C
ATOM     36  C3  BDP B   3      36.030  15.364  17.2760  0.00  0.00     0.000 C
ATOM     37  C4  BDP B   3      35.848  16.559  16.3280  0.00  0.00     0.000 C
ATOM     38  C5  BDP B   3      34.351  16.923  16.3340  0.00  0.00     0.000 C
ATOM     39  O5  BDP B   3      33.686  15.837  15.6890  0.00  0.00     0.000 O
ATOM     40   O  BDP B   3      35.007  13.205  17.8320  0.00  0.00     0.000 O
ATOM     42  HD  BDP B   3      34.841  12.741  17.1190  0.00  0.00     0.000 HD
ATOM     42   O  BDP B   3      37.365  14.862  17.2470  0.00  0.00     0.000 O
ATOM     44  HD  BDP B   3      37.198  14.398  16.5340  0.00  0.00     0.000 HD
BRANCH 38 44
ATOM     44   C  BDP B   3      34.023  18.205  15.6340  0.00  0.00     0.000 C
ATOM     45   O  BDP B   3      33.581  19.151  16.3220  0.00  0.00     0.000 OA
ATOM     46   O  BDP B   3      34.196  18.297  14.3990  0.00  0.00     0.000 OA
ENDBRANCH 38 44
BRANCH 34 47
ATOM     47  O3  NAG B   4      33.164  13.952  15.3930  0.00  0.00     0.000 O
BRANCH 47 50
ATOM     48  C1  NAG B   4      29.834  12.221  15.6530  0.00  0.00     0.000 C
ATOM     49  C2  NAG B   4      31.321  12.436  15.8770  0.00  0.00     0.000 C
ATOM     50  C3  NAG B   4      31.742  13.760  15.2500  0.00  0.00     0.000 C
ATOM     51  C4  NAG B   4      31.366  13.826  13.7780  0.00  0.00     0.000 C
ATOM     52  C5  NAG B   4      29.875  13.533  13.6090  0.00  0.00     0.000 C
ATOM     53  O5  NAG B   4      29.534  12.296  14.2460  0.00  0.00     0.000 O
ATOM     54   O  NAG B   4      31.686  15.125  13.2730  0.00  0.00     0.000 O
ATOM     56  HD  NAG B   4      31.525  14.553  12.6430  0.00  0.00     0.000 HD
ATOM     56   C  NAG B   4      29.488  13.467  12.1360  0.00  0.00     0.000 C
ATOM     57   O  NAG B   4      30.238  12.423  11.5010  0.00  0.00     0.000 O
ATOM     59  HD  NAG B   4      30.077  11.851  10.8710  0.00  0.00     0.000 HD
BRANCH 49 61
ATOM     59   N  NAG B   4      31.366  12.051  17.2880  0.00  0.00     0.000 N
ATOM     61  HD  NAG B   4      31.484  11.688  16.5110  0.00  0.00     0.000 HD
ATOM     61   O  NAG B   4      33.231  10.783  17.1650  0.00  0.00     0.000 OA
ATOM     62   C  NAG B   4      32.353  11.322  17.8220  0.00  0.00     0.000 C
ATOM     63   C  NAG B   4      32.341  11.211  19.3140  0.00  0.00     0.000 C
ENDBRANCH 49 61
BRANCH 48 64
ATOM     64  O4  BDP B   5      28.832  11.531  16.3930  0.00  0.00     0.000 O
BRANCH 64 68
ATOM     65  C1  BDP B   5      25.051  13.044  17.2780  0.00  0.00     0.000 C
ATOM     66  C2  BDP B   5      26.035  12.988  18.4380  0.00  0.00     0.000 C
ATOM     67  C3  BDP B   5      27.452  12.837  17.9020  0.00  0.00     0.000 C
ATOM     68  C4  BDP B   5      27.544  11.609  17.0030  0.00  0.00     0.000 C
ATOM     69  C5  BDP B   5      26.488  11.619  15.9050  0.00  0.00     0.000 C
ATOM     70  O5  BDP B   5      25.185  11.870  16.4610  0.00  0.00     0.000 O
ATOM     71   O  BDP B   5      25.896  14.168  19.2450  0.00  0.00     0.000 O
ATOM     73  HD  BDP B   5      25.786  14.906  19.6840  0.00  0.00     0.000 HD
ATOM     73   O  BDP B   5      28.387  12.704  18.9790  0.00  0.00     0.000 O
ATOM     75  HD  BDP B   5      28.277  13.442  19.4180  0.00  0.00     0.000 HD
BRANCH 69 75
ATOM     75   C  BDP B   5      26.495  10.272  15.2280  0.00  0.00     0.000 C
ATOM     76   O  BDP B   5      26.156   9.268  15.8860  0.00  0.00     0.000 OA
ATOM     77   O  BDP B   5      26.834  10.201  14.0320  0.00  0.00     0.000 OA
ENDBRANCH 69 75
BRANCH 65 78
ATOM     78  O3  NAG B   6      23.691  12.600  17.2960  0.00  0.00     0.000 O
BRANCH 78 81
ATOM     79  C1  NAG B   6      20.144  13.889  17.0010  0.00  0.00     0.000 C
ATOM     80  C2  NAG B   6      21.458  13.491  17.6910  0.00  0.00     0.000 C
ATOM     81  C3  NAG B   6      22.507  13.121  16.6540  0.00  0.00     0.000 C
ATOM     82  C4  NAG B   6      21.954  12.092  15.6620  0.00  0.00     0.000 C
ATOM     83  C5  NAG B   6      20.664  12.624  15.0480  0.00  0.00     0.000 C
ATOM     84  O5  NAG B   6      19.734  12.835  16.1110  0.00  0.00     0.000 O
BRANCH 80 87
ATOM     85   N  NAG B   6      21.821  14.597  18.5730  0.00  0.00     0.000 N
ATOM     87  HD  NAG B   6      21.699  15.040  19.3060  0.00  0.00     0.000 HD
ATOM     87   C  NAG B   6      22.352  14.440  19.7920  0.00  0.00     0.000 C
ATOM     88   C  NAG B   6      22.685  15.702  20.5210  0.00  0.00     0.000 C
ATOM     89   O  NAG B   6      22.571  13.341  20.2890  0.00  0.00     0.000 OA
ENDBRANCH 80 87
ATOM     90   O  NAG B   6      20.134  12.269  12.7150  0.00  0.00     0.000 O
ATOM     92  HD  NAG B   6      20.043  12.793  13.3990  0.00  0.00     0.000 HD
ATOM     92   O  NAG B   6      20.134  12.269  12.7150  0.00  0.00     0.000 O
ATOM     94  HD  NAG B   6      20.043  12.793  13.3990  0.00  0.00     0.000 HD
ENDBRANCH 78 81
ENDBRANCH 65 78
ENDBRANCH 64 68
ENDBRANCH 48 64
ENDBRANCH 47 50
ENDBRANCH 34 47
ENDBRANCH 33 37
ENDBRANCH 17 33
ENDBRANCH 16 19
ENDBRANCH 1 16
TORSDOF 16
ENDMDL
MODEL 43
REMARK VINA RESULT:      -1.9     17.231     26.609
ROOT
ATOM      1  C1  BDP B   1      20.119  38.811  14.0980  0.00  0.00     0.000 C
ATOM      2  C2  BDP B   1      19.365  39.496  12.9720  0.00  0.00     0.000 C
ATOM      3  C3  BDP B   1      20.283  39.914  11.8430  0.00  0.00     0.000 C
ATOM      4  C4  BDP B   1      21.663  39.268  11.8930  0.00  0.00     0.000 C
ATOM      5  C5  BDP B   1      22.290  39.321  13.2820  0.00  0.00     0.000 C
ATOM      6  O5  BDP B   1      21.312  39.553  14.3100  0.00  0.00     0.000 O
ATOM      7   O  BDP B   1      18.347  38.625  12.4670  0.00  0.00     0.000 O
ATOM      9  HD  BDP B   1      17.702  38.061  12.5880  0.00  0.00     0.000 HD
ATOM      9   O  BDP B   1      20.468  41.338  11.8630  0.00  0.00     0.000 O
ATOM     11  HD  BDP B   1      19.822  40.774  11.9840  0.00  0.00     0.000 HD
ATOM     11   O  BDP B   1      21.595  37.909  11.4450  0.00  0.00     0.000 O
ATOM     13  HD  BDP B   1      20.949  37.344  11.5660  0.00  0.00     0.000 HD
ENDROOT
BRANCH 5 13
ATOM     13   C  BDP B   1      23.284  40.430  13.2760  0.00  0.00     0.000 C
ATOM     14   O  BDP B   1      23.511  41.011  12.1940  0.00  0.00     0.000 OA
ATOM     15   O  BDP B   1      23.835  40.759  14.3480  0.00  0.00     0.000 OA
ENDBRANCH 5 13
BRANCH 1 16
ATOM     16  O3  NAG B   2      19.965  37.509  14.6590  0.00  0.00     0.000 O
BRANCH 16 19
ATOM     17  C1  NAG B   2      18.736  34.437  13.1410  0.00  0.00     0.000 C
ATOM     18  C2  NAG B   2      19.722  35.605  13.1590  0.00  0.00     0.000 C
ATOM     19  C3  NAG B   2      19.960  36.083  14.5840  0.00  0.00     0.000 C
ATOM     20  C4  NAG B   2      18.918  35.518  15.5530  0.00  0.00     0.000 C
ATOM     21  C5  NAG B   2      17.505  35.363  14.9730  0.00  0.00     0.000 C
ATOM     22  O5  NAG B   2      17.495  34.987  13.5910  0.00  0.00     0.000 O
ATOM     23   O  NAG B   2      19.385  34.254  16.0370  0.00  0.00     0.000 O
ATOM     25  HD  NAG B   2      19.693  33.995  15.2700  0.00  0.00     0.000 HD
ATOM     25   C  NAG B   2      16.709  36.666  15.1320  0.00  0.00     0.000 C
ATOM     26   O  NAG B   2      16.084  36.753  16.4210  0.00  0.00     0.000 O
ATOM     28  HD  NAG B   2      16.392  36.494  15.6540  0.00  0.00     0.000 HD
BRANCH 18 30
ATOM     28   N  NAG B   2      20.445  34.336  13.0920  0.00  0.00     0.000 N
ATOM     30  HD  NAG B   2      20.766  33.705  13.5910  0.00  0.00     0.000 HD
ATOM     30   C  NAG B   2      21.728  34.201  12.7260  0.00  0.00     0.000 C
ATOM     31   C  NAG B   2      22.240  32.788  12.7260  0.00  0.00     0.000 C
ATOM     32   O  NAG B   2      22.435  35.133  12.4220  0.00  0.00     0.000 OA
ENDBRANCH 18 30
BRANCH 17 33
ATOM     33  O4  BDP B   3      17.764  33.596  12.4820  0.00  0.00     0.000 O
BRANCH 33 37
ATOM     34  C1  BDP B   3      17.348  29.430  11.6380  0.00  0.00     0.000 C
ATOM     35  C2  BDP B   3      18.344  30.216  10.7930  0.00  0.00     0.000 C
ATOM     36  C3  BDP B   3      18.746  31.551  11.4090  0.00  0.00     0.000 C
ATOM     37  C4  BDP B   3      17.492  32.284  11.9080  0.00  0.00     0.000 C
ATOM     38  C5  BDP B   3      16.774  31.343  12.8950  0.00  0.00     0.000 C
ATOM     39  O5  BDP B   3      16.279  30.261  12.1050  0.00  0.00     0.000 O
ATOM     40   O  BDP B   3      19.465  29.353  10.5910  0.00  0.00     0.000 O
ATOM     42  HD  BDP B   3      18.925  29.050   9.9860  0.00  0.00     0.000 HD
ATOM     42   O  BDP B   3      19.419  32.287  10.3880  0.00  0.00     0.000 O
ATOM     44  HD  BDP B   3      18.880  31.983   9.7830  0.00  0.00     0.000 HD
BRANCH 38 44
ATOM     44   C  BDP B   3      15.647  31.978  13.6480  0.00  0.00     0.000 C
ATOM     45   O  BDP B   3      14.600  32.244  13.0190  0.00  0.00     0.000 OA
ATOM     46   O  BDP B   3      15.779  32.223  14.8670  0.00  0.00     0.000 OA
ENDBRANCH 38 44
BRANCH 34 47
ATOM     47  O3  NAG B   4      16.386  28.749  10.8340  0.00  0.00     0.000 O
BRANCH 47 50
ATOM     48  C1  NAG B   4      16.275  24.990  10.7860  0.00  0.00     0.000 C
ATOM     49  C2  NAG B   4      16.803  26.378  10.4710  0.00  0.00     0.000 C
ATOM     50  C3  NAG B   4      15.941  27.420  11.1740  0.00  0.00     0.000 C
ATOM     51  C4  NAG B   4      14.473  27.268  10.8120  0.00  0.00     0.000 C
ATOM     52  C5  NAG B   4      14.016  25.835  11.0840  0.00  0.00     0.000 C
ATOM     53  O5  NAG B   4      14.882  24.901  10.4260  0.00  0.00     0.000 O
ATOM     54   O  NAG B   4      13.704  28.197  11.5810  0.00  0.00     0.000 O
ATOM     56  HD  NAG B   4      13.255  27.856  10.9240  0.00  0.00     0.000 HD
ATOM     56   C  NAG B   4      12.583  25.611  10.6160  0.00  0.00     0.000 C
ATOM     57   O  NAG B   4      12.508  25.860   9.2050  0.00  0.00     0.000 O
ATOM     59  HD  NAG B   4      12.059  25.519   8.5480  0.00  0.00     0.000 HD
BRANCH 49 61
ATOM     59   N  NAG B   4      16.948  26.203   9.0250  0.00  0.00     0.000 N
ATOM     61  HD  NAG B   4      17.096  26.810   9.6240  0.00  0.00     0.000 HD
ATOM     61   O  NAG B   4      18.977  27.176   8.8350  0.00  0.00     0.000 OA
ATOM     62   C  NAG B   4      18.048  26.549   8.3470  0.00  0.00     0.000 C
ATOM     63   C  NAG B   4      18.098  26.099   6.9210  0.00  0.00     0.000 C
ENDBRANCH 49 61
BRANCH 48 64
ATOM     64  O4  BDP B   5      16.899  23.713  10.8830  0.00  0.00     0.000 O
BRANCH 64 68
ATOM     65  C1  BDP B   5      17.957  19.735  11.5380  0.00  0.00     0.000 C
ATOM     66  C2  BDP B   5      16.712  19.964  10.6910  0.00  0.00     0.000 C
ATOM     67  C3  BDP B   5      16.694  21.400  10.1830  0.00  0.00     0.000 C
ATOM     68  C4  BDP B   5      16.786  22.371  11.3550  0.00  0.00     0.000 C
ATOM     69  C5  BDP B   5      17.976  22.072  12.2580  0.00  0.00     0.000 C
ATOM     70  O5  BDP B   5      17.999  20.680  12.6190  0.00  0.00     0.000 O
ATOM     71   O  BDP B   5      16.684  19.019   9.6100  0.00  0.00     0.000 O
ATOM     73  HD  BDP B   5      16.727  18.441   8.9670  0.00  0.00     0.000 HD
ATOM     73   O  BDP B   5      15.492  21.658   9.4480  0.00  0.00     0.000 O
ATOM     75  HD  BDP B   5      15.534  21.080   8.8050  0.00  0.00     0.000 HD
BRANCH 69 75
ATOM     75   C  BDP B   5      17.849  22.913  13.5030  0.00  0.00     0.000 C
ATOM     76   O  BDP B   5      16.799  22.839  14.1720  0.00  0.00     0.000 OA
ATOM     77   O  BDP B   5      18.795  23.653  13.8290  0.00  0.00     0.000 OA
ENDBRANCH 69 75
BRANCH 65 78
ATOM     78  O3  NAG B   6      18.085  18.822  12.6310  0.00  0.00     0.000 O
BRANCH 78 81
ATOM     79  C1  NAG B   6      20.249  15.838  13.4940  0.00  0.00     0.000 C
ATOM     80  C2  NAG B   6      19.122  16.624  12.8050  0.00  0.00     0.000 C
ATOM     81  C3  NAG B   6      19.225  18.102  13.1470  0.00  0.00     0.000 C
ATOM     82  C4  NAG B   6      19.330  18.305  14.6620  0.00  0.00     0.000 C
ATOM     83  C5  NAG B   6      20.491  17.481  15.2050  0.00  0.00     0.000 C
ATOM     84  O5  NAG B   6      20.225  16.110  14.9070  0.00  0.00     0.000 O
BRANCH 80 87
ATOM     85   N  NAG B   6      19.198  16.235  11.4000  0.00  0.00     0.000 N
ATOM     87  HD  NAG B   6      19.019  15.669  10.7690  0.00  0.00     0.000 HD
ATOM     87   C  NAG B   6      18.135  16.128  10.5940  0.00  0.00     0.000 C
ATOM     88   C  NAG B   6      18.430  15.750   9.1770  0.00  0.00     0.000 C
ATOM     89   O  NAG B   6      16.987  16.336  10.9700  0.00  0.00     0.000 OA
ENDBRANCH 80 87
ATOM     90   O  NAG B   6      21.932  18.325  16.9540  0.00  0.00     0.000 O
ATOM     92  HD  NAG B   6      21.875  17.816  16.2560  0.00  0.00     0.000 HD
ATOM     92   O  NAG B   6      21.932  18.325  16.9540  0.00  0.00     0.000 O
ATOM     94  HD  NAG B   6      21.875  17.816  16.2560  0.00  0.00     0.000 HD
ENDBRANCH 78 81
ENDBRANCH 65 78
ENDBRANCH 64 68
ENDBRANCH 48 64
ENDBRANCH 47 50
ENDBRANCH 34 47
ENDBRANCH 33 37
ENDBRANCH 17 33
ENDBRANCH 16 19
ENDBRANCH 1 16
TORSDOF 16
ENDMDL
MODEL 44
REMARK VINA RESULT:      -1.8     14.081     22.405
ROOT
ATOM      1  C1  BDP B   1      41.681  22.855  18.0670  0.00  0.00     0.000 C
ATOM      2  C2  BDP B   1      43.008  22.123  17.9850  0.00  0.00     0.000 C
ATOM      3  C3  BDP B   1      44.185  23.049  18.2070  0.00  0.00     0.000 C
ATOM      4  C4  BDP B   1      43.808  24.399  18.8050  0.00  0.00     0.000 C
ATOM      5  C5  BDP B   1      42.610  25.039  18.1100  0.00  0.00     0.000 C
ATOM      6  O5  BDP B   1      41.839  24.080  17.3670  0.00  0.00     0.000 O
ATOM      7   O  BDP B   1      43.040  21.064  18.9480  0.00  0.00     0.000 O
ATOM      9  HD  BDP B   1      42.669  20.395  19.3540  0.00  0.00     0.000 HD
ATOM      9   O  BDP B   1      44.857  23.295  16.9620  0.00  0.00     0.000 O
ATOM     11  HD  BDP B   1      44.486  22.627  17.3690  0.00  0.00     0.000 HD
ATOM     11   O  BDP B   1      43.540  24.268  20.2070  0.00  0.00     0.000 O
ATOM     13  HD  BDP B   1      43.169  23.600  20.6140  0.00  0.00     0.000 HD
ENDROOT
BRANCH 5 13
ATOM     13   C  BDP B   1      43.141  26.080  17.1870  0.00  0.00     0.000 C
ATOM     14   O  BDP B   1      42.330  26.697  16.4660  0.00  0.00     0.000 OA
ATOM     15   O  BDP B   1      44.367  26.320  17.1820  0.00  0.00     0.000 OA
ENDBRANCH 5 13
BRANCH 1 16
ATOM     16  O3  NAG B   2      40.560  22.649  18.9240  0.00  0.00     0.000 O
BRANCH 16 19
ATOM     17  C1  NAG B   2      38.087  20.047  19.5330  0.00  0.00     0.000 C
ATOM     18  C2  NAG B   2      39.537  20.469  19.3000  0.00  0.00     0.000 C
ATOM     19  C3  NAG B   2      39.779  21.873  19.8350  0.00  0.00     0.000 C
ATOM     20  C4  NAG B   2      38.466  22.598  20.1380  0.00  0.00     0.000 C
ATOM     21  C5  NAG B   2      37.310  22.283  19.1780  0.00  0.00     0.000 C
ATOM     22  O5  NAG B   2      37.305  20.925  18.7200  0.00  0.00     0.000 O
ATOM     23   O  NAG B   2      38.077  22.293  21.4810  0.00  0.00     0.000 O
ATOM     25  HD  NAG B   2      38.303  21.459  21.4310  0.00  0.00     0.000 HD
ATOM     25   C  NAG B   2      37.353  23.212  17.9560  0.00  0.00     0.000 C
ATOM     26   O  NAG B   2      36.693  24.459  18.2140  0.00  0.00     0.000 O
ATOM     28  HD  NAG B   2      36.919  23.625  18.1640  0.00  0.00     0.000 HD
BRANCH 18 30
ATOM     28   N  NAG B   2      39.433  19.524  20.4110  0.00  0.00     0.000 N
ATOM     30  HD  NAG B   2      39.157  19.460  21.2290  0.00  0.00     0.000 HD
ATOM     30   C  NAG B   2      40.472  19.040  21.1070  0.00  0.00     0.000 C
ATOM     31   C  NAG B   2      40.106  18.074  22.1980  0.00  0.00     0.000 C
ATOM     32   O  NAG B   2      41.620  19.352  20.8930  0.00  0.00     0.000 OA
ENDBRANCH 18 30
BRANCH 17 33
ATOM     33  O4  BDP B   3      36.926  19.243  19.2300  0.00  0.00     0.000 O
BRANCH 33 37
ATOM     34  C1  BDP B   3      33.649  17.646  17.0040  0.00  0.00     0.000 C
ATOM     35  C2  BDP B   3      35.043  17.478  16.4110  0.00  0.00     0.000 C
ATOM     36  C3  BDP B   3      36.166  17.677  17.4220  0.00  0.00     0.000 C
ATOM     37  C4  BDP B   3      35.887  18.938  18.2540  0.00  0.00     0.000 C
ATOM     38  C5  BDP B   3      34.500  18.763  18.9010  0.00  0.00     0.000 C
ATOM     39  O5  BDP B   3      33.563  18.817  17.8250  0.00  0.00     0.000 O
ATOM     40   O  BDP B   3      35.071  16.176  15.8210  0.00  0.00     0.000 O
ATOM     42  HD  BDP B   3      34.669  16.621  15.1960  0.00  0.00     0.000 HD
ATOM     42   O  BDP B   3      37.375  17.791  16.6750  0.00  0.00     0.000 O
ATOM     44  HD  BDP B   3      36.973  18.236  16.0500  0.00  0.00     0.000 HD
BRANCH 38 44
ATOM     44   C  BDP B   3      34.158  19.800  19.9240  0.00  0.00     0.000 C
ATOM     45   O  BDP B   3      34.023  19.430  21.1110  0.00  0.00     0.000 OA
ATOM     46   O  BDP B   3      34.016  20.992  19.5720  0.00  0.00     0.000 OA
ENDBRANCH 38 44
BRANCH 34 47
ATOM     47  O3  NAG B   4      32.757  18.291  16.0970  0.00  0.00     0.000 O
BRANCH 47 50
ATOM     48  C1  NAG B   4      29.275  16.892  15.8370  0.00  0.00     0.000 C
ATOM     49  C2  NAG B   4      30.787  16.918  15.6960  0.00  0.00     0.000 C
ATOM     50  C3  NAG B   4      31.329  18.217  16.2810  0.00  0.00     0.000 C
ATOM     51  C4  NAG B   4      30.671  19.433  15.6480  0.00  0.00     0.000 C
ATOM     52  C5  NAG B   4      29.150  19.317  15.7590  0.00  0.00     0.000 C
ATOM     53  O5  NAG B   4      28.705  18.064  15.2240  0.00  0.00     0.000 O
ATOM     54   O  NAG B   4      31.137  20.612  16.3100  0.00  0.00     0.000 O
ATOM     56  HD  NAG B   4      30.731  20.785  15.5650  0.00  0.00     0.000 HD
ATOM     56   C  NAG B   4      28.454  20.456  15.0240  0.00  0.00     0.000 C
ATOM     57   O  NAG B   4      28.820  20.413  13.6390  0.00  0.00     0.000 O
ATOM     59  HD  NAG B   4      28.415  20.587  12.8940  0.00  0.00     0.000 HD
BRANCH 49 61
ATOM     59   N  NAG B   4      31.016  15.533  16.1120  0.00  0.00     0.000 N
ATOM     61  HD  NAG B   4      30.916  15.984  15.3790  0.00  0.00     0.000 HD
ATOM     61   O  NAG B   4      32.544  15.023  14.5290  0.00  0.00     0.000 OA
ATOM     62   C  NAG B   4      31.924  14.732  15.5410  0.00  0.00     0.000 C
ATOM     63   C  NAG B   4      32.165  13.430  16.2360  0.00  0.00     0.000 C
ENDBRANCH 49 61
BRANCH 48 64
ATOM     64  O4  BDP B   5      28.333  15.833  15.9820  0.00  0.00     0.000 O
BRANCH 64 68
ATOM     65  C1  BDP B   5      25.079  13.236  15.7860  0.00  0.00     0.000 C
ATOM     66  C2  BDP B   5      26.178  13.007  14.7570  0.00  0.00     0.000 C
ATOM     67  C3  BDP B   5      27.453  13.711  15.2040  0.00  0.00     0.000 C
ATOM     68  C4  BDP B   5      27.179  15.192  15.4410  0.00  0.00     0.000 C
ATOM     69  C5  BDP B   5      26.009  15.415  16.3900  0.00  0.00     0.000 C
ATOM     70  O5  BDP B   5      24.867  14.644  15.9770  0.00  0.00     0.000 O
ATOM     71   O  BDP B   5      26.385  11.597  14.5790  0.00  0.00     0.000 O
ATOM     73  HD  BDP B   5      26.483  10.739  14.5250  0.00  0.00     0.000 HD
ATOM     73   O  BDP B   5      28.478  13.573  14.2120  0.00  0.00     0.000 O
ATOM     75  HD  BDP B   5      28.575  12.714  14.1580  0.00  0.00     0.000 HD
BRANCH 69 75
ATOM     75   C  BDP B   5      25.659  16.881  16.3740  0.00  0.00     0.000 C
ATOM     76   O  BDP B   5      25.274  17.394  15.3040  0.00  0.00     0.000 OA
ATOM     77   O  BDP B   5      25.759  17.538  17.4270  0.00  0.00     0.000 OA
ENDBRANCH 69 75
BRANCH 65 78
ATOM     78  O3  NAG B   6      23.673  13.290  15.5290  0.00  0.00     0.000 O
BRANCH 78 81
ATOM     79  C1  NAG B   6      20.589  11.578  16.9040  0.00  0.00     0.000 C
ATOM     80  C2  NAG B   6      21.892  11.730  16.1030  0.00  0.00     0.000 C
ATOM     81  C3  NAG B   6      22.534  13.077  16.3910  0.00  0.00     0.000 C
ATOM     82  C4  NAG B   6      21.522  14.213  16.2110  0.00  0.00     0.000 C
ATOM     83  C5  NAG B   6      20.293  13.938  17.0690  0.00  0.00     0.000 C
ATOM     84  O5  NAG B   6      19.730  12.700  16.6340  0.00  0.00     0.000 O
BRANCH 80 87
ATOM     85   N  NAG B   6      22.691  10.547  16.4130  0.00  0.00     0.000 N
ATOM     87  HD  NAG B   6      22.856   9.705  16.3000  0.00  0.00     0.000 HD
ATOM     87   C  NAG B   6      23.473   9.918  15.5270  0.00  0.00     0.000 C
ATOM     88   C  NAG B   6      24.238   8.746  16.0540  0.00  0.00     0.000 C
ATOM     89   O  NAG B   6      23.581  10.274  14.3600  0.00  0.00     0.000 OA
ENDBRANCH 80 87
ATOM     90   O  NAG B   6      19.144  15.716  18.2390  0.00  0.00     0.000 O
ATOM     92  HD  NAG B   6      19.353  14.875  18.2400  0.00  0.00     0.000 HD
ATOM     92   O  NAG B   6      19.144  15.716  18.2390  0.00  0.00     0.000 O
ATOM     94  HD  NAG B   6      19.353  14.875  18.2400  0.00  0.00     0.000 HD
ENDBRANCH 78 81
ENDBRANCH 65 78
ENDBRANCH 64 68
ENDBRANCH 48 64
ENDBRANCH 47 50
ENDBRANCH 34 47
ENDBRANCH 33 37
ENDBRANCH 17 33
ENDBRANCH 16 19
ENDBRANCH 1 16
TORSDOF 16
ENDMDL
MODEL 45
REMARK VINA RESULT:      -1.6     18.420     24.449
ROOT
ATOM      1  C1  BDP B   1      22.281  37.868  13.5480  0.00  0.00     0.000 C
ATOM      2  C2  BDP B   1      22.756  39.123  14.2590  0.00  0.00     0.000 C
ATOM      3  C3  BDP B   1      23.447  40.085  13.3160  0.00  0.00     0.000 C
ATOM      4  C4  BDP B   1      23.217  39.782  11.8400  0.00  0.00     0.000 C
ATOM      5  C5  BDP B   1      23.407  38.306  11.5040  0.00  0.00     0.000 C
ATOM      6  O5  BDP B   1      23.324  37.469  12.6700  0.00  0.00     0.000 O
ATOM      7   O  BDP B   1      21.647  39.776  14.8840  0.00  0.00     0.000 O
ATOM      9  HD  BDP B   1      20.919  39.756  15.3540  0.00  0.00     0.000 HD
ATOM      9   O  BDP B   1      24.865  40.066  13.5500  0.00  0.00     0.000 O
ATOM     11  HD  BDP B   1      24.137  40.045  14.0190  0.00  0.00     0.000 HD
ATOM     11   O  BDP B   1      21.907  40.204  11.4420  0.00  0.00     0.000 O
ATOM     13  HD  BDP B   1      21.180  40.183  11.9110  0.00  0.00     0.000 HD
ENDROOT
BRANCH 5 13
ATOM     13   C  BDP B   1      24.752  38.165  10.8800  0.00  0.00     0.000 C
ATOM     14   O  BDP B   1      24.842  38.287   9.6400  0.00  0.00     0.000 OA
ATOM     15   O  BDP B   1      25.743  37.958  11.6120  0.00  0.00     0.000 OA
ENDBRANCH 5 13
BRANCH 1 16
ATOM     16  O3  NAG B   2      20.974  37.312  13.4210  0.00  0.00     0.000 O
BRANCH 16 19
ATOM     17  C1  NAG B   2      19.754  34.591  15.5090  0.00  0.00     0.000 C
ATOM     18  C2  NAG B   2      20.031  36.080  15.2990  0.00  0.00     0.000 C
ATOM     19  C3  NAG B   2      19.915  36.443  13.8260  0.00  0.00     0.000 C
ATOM     20  C4  NAG B   2      19.899  35.198  12.9350  0.00  0.00     0.000 C
ATOM     21  C5  NAG B   2      20.780  34.038  13.4190  0.00  0.00     0.000 C
ATOM     22  O5  NAG B   2      20.823  33.913  14.8450  0.00  0.00     0.000 O
ATOM     23   O  NAG B   2      18.545  34.755  12.7980  0.00  0.00     0.000 O
ATOM     25  HD  NAG B   2      18.339  34.901  13.6270  0.00  0.00     0.000 HD
ATOM     25   C  NAG B   2      22.215  34.194  12.8970  0.00  0.00     0.000 C
ATOM     26   O  NAG B   2      22.362  33.651  11.5770  0.00  0.00     0.000 O
ATOM     28  HD  NAG B   2      22.157  33.797  12.4060  0.00  0.00     0.000 HD
BRANCH 18 30
ATOM     28   N  NAG B   2      18.661  35.870  15.7650  0.00  0.00     0.000 N
ATOM     30  HD  NAG B   2      17.870  35.655  15.4850  0.00  0.00     0.000 HD
ATOM     30   C  NAG B   2      17.844  36.837  16.2090  0.00  0.00     0.000 C
ATOM     31   C  NAG B   2      16.485  36.366  16.6420  0.00  0.00     0.000 C
ATOM     32   O  NAG B   2      18.158  38.003  16.2570  0.00  0.00     0.000 OA
ENDBRANCH 18 30
BRANCH 17 33
ATOM     33  O4  BDP B   3      19.865  33.366  16.2660  0.00  0.00     0.000 O
BRANCH 33 37
ATOM     34  C1  BDP B   3      17.793  31.221  19.3230  0.00  0.00     0.000 C
ATOM     35  C2  BDP B   3      18.254  32.635  19.6540  0.00  0.00     0.000 C
ATOM     36  C3  BDP B   3      18.591  33.471  18.4250  0.00  0.00     0.000 C
ATOM     37  C4  BDP B   3      19.454  32.642  17.4620  0.00  0.00     0.000 C
ATOM     38  C5  BDP B   3      18.669  31.356  17.1360  0.00  0.00     0.000 C
ATOM     39  O5  BDP B   3      18.642  30.603  18.3490  0.00  0.00     0.000 O
ATOM     40   O  BDP B   3      17.212  33.221  20.4380  0.00  0.00     0.000 O
ATOM     42  HD  BDP B   3      17.621  32.759  21.0450  0.00  0.00     0.000 HD
ATOM     42   O  BDP B   3      19.281  34.629  18.8930  0.00  0.00     0.000 O
ATOM     44  HD  BDP B   3      19.690  34.166  19.5000  0.00  0.00     0.000 HD
BRANCH 38 44
ATOM     44   C  BDP B   3      19.263  30.530  16.0390  0.00  0.00     0.000 C
ATOM     45   O  BDP B   3      20.235  29.794  16.3210  0.00  0.00     0.000 OA
ATOM     46   O  BDP B   3      18.783  30.595  14.8870  0.00  0.00     0.000 OA
ENDBRANCH 38 44
BRANCH 34 47
ATOM     47  O3  NAG B   4      18.281  30.266  20.2640  0.00  0.00     0.000 O
BRANCH 47 50
ATOM     48  C1  NAG B   4      15.895  27.743  21.7110  0.00  0.00     0.000 C
ATOM     49  C2  NAG B   4      16.525  29.107  21.4910  0.00  0.00     0.000 C
ATOM     50  C3  NAG B   4      17.624  28.994  20.4390  0.00  0.00     0.000 C
ATOM     51  C4  NAG B   4      18.652  27.940  20.8160  0.00  0.00     0.000 C
ATOM     52  C5  NAG B   4      17.953  26.609  21.0930  0.00  0.00     0.000 C
ATOM     53  O5  NAG B   4      16.911  26.784  22.0620  0.00  0.00     0.000 O
ATOM     54   O  NAG B   4      19.592  27.803  19.7470  0.00  0.00     0.000 O
ATOM     56  HD  NAG B   4      19.862  27.427  20.4790  0.00  0.00     0.000 HD
ATOM     56   C  NAG B   4      18.938  25.560  21.5950  0.00  0.00     0.000 C
ATOM     57   O  NAG B   4      19.540  26.027  22.8100  0.00  0.00     0.000 O
ATOM     59  HD  NAG B   4      19.810  25.651  23.5420  0.00  0.00     0.000 HD
BRANCH 49 61
ATOM     59   N  NAG B   4      15.313  29.918  21.3740  0.00  0.00     0.000 N
ATOM     61  HD  NAG B   4      15.868  29.664  21.9880  0.00  0.00     0.000 HD
ATOM     61   O  NAG B   4      15.975  31.595  22.7350  0.00  0.00     0.000 OA
ATOM     62   C  NAG B   4      15.172  31.121  21.9450  0.00  0.00     0.000 C
ATOM     63   C  NAG B   4      13.955  31.891  21.5400  0.00  0.00     0.000 C
ENDBRANCH 49 61
BRANCH 48 64
ATOM     64  O4  BDP B   5      14.590  27.330  22.1040  0.00  0.00     0.000 O
BRANCH 64 68
ATOM     65  C1  BDP B   5      11.683  25.820  19.5260  0.00  0.00     0.000 C
ATOM     66  C2  BDP B   5      11.260  27.000  20.3920  0.00  0.00     0.000 C
ATOM     67  C3  BDP B   5      12.495  27.703  20.9400  0.00  0.00     0.000 C
ATOM     68  C4  BDP B   5      13.370  26.711  21.6980  0.00  0.00     0.000 C
ATOM     69  C5  BDP B   5      13.704  25.483  20.8610  0.00  0.00     0.000 C
ATOM     70  O5  BDP B   5      12.510  24.924  20.2850  0.00  0.00     0.000 O
ATOM     71   O  BDP B   5      10.439  27.892  19.6220  0.00  0.00     0.000 O
ATOM     73  HD  BDP B   5       9.967  28.405  19.1080  0.00  0.00     0.000 HD
ATOM     73   O  BDP B   5      12.118  28.769  21.8200  0.00  0.00     0.000 O
ATOM     75  HD  BDP B   5      11.646  29.282  21.3060  0.00  0.00     0.000 HD
BRANCH 69 75
ATOM     75   C  BDP B   5      14.356  24.461  21.7580  0.00  0.00     0.000 C
ATOM     76   O  BDP B   5      15.416  23.923  21.3820  0.00  0.00     0.000 OA
ATOM     77   O  BDP B   5      13.821  24.187  22.8490  0.00  0.00     0.000 OA
ENDBRANCH 69 75
BRANCH 65 78
ATOM     78  O3  NAG B   6      10.950  24.610  19.3230  0.00  0.00     0.000 O
BRANCH 78 81
ATOM     79  C1  NAG B   6       9.738  22.690  16.2930  0.00  0.00     0.000 C
ATOM     80  C2  NAG B   6       9.788  23.822  17.3310  0.00  0.00     0.000 C
ATOM     81  C3  NAG B   6      10.982  23.640  18.2530  0.00  0.00     0.000 C
ATOM     82  C4  NAG B   6      11.012  22.222  18.8340  0.00  0.00     0.000 C
ATOM     83  C5  NAG B   6      10.971  21.208  17.6970  0.00  0.00     0.000 C
ATOM     84  O5  NAG B   6       9.759  21.421  16.9710  0.00  0.00     0.000 O
BRANCH 80 87
ATOM     85   N  NAG B   6       9.754  25.072  16.5770  0.00  0.00     0.000 N
ATOM     87  HD  NAG B   6       9.309  25.660  16.1220  0.00  0.00     0.000 HD
ATOM     87   C  NAG B   6       9.092  26.167  16.9700  0.00  0.00     0.000 C
ATOM     88   C  NAG B   6       9.213  27.356  16.0710  0.00  0.00     0.000 C
ATOM     89   O  NAG B   6       8.437  26.217  18.0050  0.00  0.00     0.000 OA
ENDBRANCH 80 87
ATOM     90   O  NAG B   6      12.270  19.169  17.7720  0.00  0.00     0.000 O
ATOM     92  HD  NAG B   6      11.919  19.778  17.2650  0.00  0.00     0.000 HD
ATOM     92   O  NAG B   6      12.270  19.169  17.7720  0.00  0.00     0.000 O
ATOM     94  HD  NAG B   6      11.919  19.778  17.2650  0.00  0.00     0.000 HD
ENDBRANCH 78 81
ENDBRANCH 65 78
ENDBRANCH 64 68
ENDBRANCH 48 64
ENDBRANCH 47 50
ENDBRANCH 34 47
ENDBRANCH 33 37
ENDBRANCH 17 33
ENDBRANCH 16 19
ENDBRANCH 1 16
TORSDOF 16
ENDMDL
MODEL 46
REMARK VINA RESULT:      -1.5     15.800     23.503
ROOT
ATOM      1  C1  BDP B   1      42.431  23.344  18.3510  0.00  0.00     0.000 C
ATOM      2  C2  BDP B   1      43.515  22.281  18.3700  0.00  0.00     0.000 C
ATOM      3  C3  BDP B   1      44.899  22.880  18.5060  0.00  0.00     0.000 C
ATOM      4  C4  BDP B   1      44.904  24.340  18.9440  0.00  0.00     0.000 C
ATOM      5  C5  BDP B   1      43.908  25.194  18.1640  0.00  0.00     0.000 C
ATOM      6  O5  BDP B   1      42.898  24.397  17.5220  0.00  0.00     0.000 O
ATOM      7   O  BDP B   1      43.280  21.365  19.4460  0.00  0.00     0.000 O
ATOM      9  HD  BDP B   1      42.751  20.869  19.9190  0.00  0.00     0.000 HD
ATOM      9   O  BDP B   1      45.593  22.799  17.2510  0.00  0.00     0.000 O
ATOM     11  HD  BDP B   1      45.064  22.303  17.7240  0.00  0.00     0.000 HD
ATOM     11   O  BDP B   1      44.632  24.441  20.3470  0.00  0.00     0.000 O
ATOM     13  HD  BDP B   1      44.103  23.945  20.8210  0.00  0.00     0.000 HD
ENDROOT
BRANCH 5 13
ATOM     13   C  BDP B   1      44.682  25.947  17.1390  0.00  0.00     0.000 C
ATOM     14   O  BDP B   1      44.052  26.674  16.3430  0.00  0.00     0.000 OA
ATOM     15   O  BDP B   1      45.927  25.849  17.1250  0.00  0.00     0.000 OA
ENDBRANCH 5 13
BRANCH 1 16
ATOM     16  O3  NAG B   2      41.309  23.539  19.2100  0.00  0.00     0.000 O
BRANCH 16 19
ATOM     17  C1  NAG B   2      38.290  21.694  20.0680  0.00  0.00     0.000 C
ATOM     18  C2  NAG B   2      39.801  21.731  19.8380  0.00  0.00     0.000 C
ATOM     19  C3  NAG B   2      40.362  23.103  20.1850  0.00  0.00     0.000 C
ATOM     20  C4  NAG B   2      39.252  24.148  20.3320  0.00  0.00     0.000 C
ATOM     21  C5  NAG B   2      38.063  23.974  19.3770  0.00  0.00     0.000 C
ATOM     22  O5  NAG B   2      37.743  22.603  19.1110  0.00  0.00     0.000 O
ATOM     23   O  NAG B   2      38.792  24.136  21.6870  0.00  0.00     0.000 O
ATOM     25  HD  NAG B   2      38.817  23.273  21.7620  0.00  0.00     0.000 HD
ATOM     25   C  NAG B   2      38.332  24.683  18.0430  0.00  0.00     0.000 C
ATOM     26   O  NAG B   2      37.981  26.073  18.1000  0.00  0.00     0.000 O
ATOM     28  HD  NAG B   2      38.005  25.211  18.1740  0.00  0.00     0.000 HD
BRANCH 18 30
ATOM     28   N  NAG B   2      39.469  21.000  21.0600  0.00  0.00     0.000 N
ATOM     30  HD  NAG B   2      39.174  21.114  21.8660  0.00  0.00     0.000 HD
ATOM     30   C  NAG B   2      40.360  20.399  21.8610  0.00  0.00     0.000 C
ATOM     31   C  NAG B   2      39.769  19.701  23.0530  0.00  0.00     0.000 C
ATOM     32   O  NAG B   2      41.553  20.412  21.6600  0.00  0.00     0.000 OA
ENDBRANCH 18 30
BRANCH 17 33
ATOM     33  O4  BDP B   3      36.976  21.144  19.8300  0.00  0.00     0.000 O
BRANCH 33 37
ATOM     34  C1  BDP B   3      33.425  20.074  17.7110  0.00  0.00     0.000 C
ATOM     35  C2  BDP B   3      34.752  19.593  17.1360  0.00  0.00     0.000 C
ATOM     36  C3  BDP B   3      35.903  19.637  18.1350  0.00  0.00     0.000 C
ATOM     37  C4  BDP B   3      35.887  20.983  18.8750  0.00  0.00     0.000 C
ATOM     38  C5  BDP B   3      34.499  21.130  19.5280  0.00  0.00     0.000 C
ATOM     39  O5  BDP B   3      33.580  21.293  18.4480  0.00  0.00     0.000 O
ATOM     40   O  BDP B   3      34.517  18.273  16.6390  0.00  0.00     0.000 O
ATOM     42  HD  BDP B   3      34.204  18.744  15.9830  0.00  0.00     0.000 HD
ATOM     42   O  BDP B   3      37.103  19.458  17.3850  0.00  0.00     0.000 O
ATOM     44  HD  BDP B   3      36.790  19.928  16.7290  0.00  0.00     0.000 HD
BRANCH 38 44
ATOM     44   C  BDP B   3      34.379  22.284  20.4740  0.00  0.00     0.000 C
ATOM     45   O  BDP B   3      34.139  22.033  21.6760  0.00  0.00     0.000 OA
ATOM     46   O  BDP B   3      34.518  23.451  20.0470  0.00  0.00     0.000 OA
ENDBRANCH 38 44
BRANCH 34 47
ATOM     47  O3  NAG B   4      32.668  20.817  16.7580  0.00  0.00     0.000 O
BRANCH 47 50
ATOM     48  C1  NAG B   4      29.066  19.819  16.3410  0.00  0.00     0.000 C
ATOM     49  C2  NAG B   4      30.575  19.666  16.2860  0.00  0.00     0.000 C
ATOM     50  C3  NAG B   4      31.233  20.914  16.8630  0.00  0.00     0.000 C
ATOM     51  C4  NAG B   4      30.756  22.174  16.1580  0.00  0.00     0.000 C
ATOM     52  C5  NAG B   4      29.229  22.238  16.1850  0.00  0.00     0.000 C
ATOM     53  O5  NAG B   4      28.669  21.027  15.6630  0.00  0.00     0.000 O
ATOM     54   O  NAG B   4      31.321  23.315  16.8110  0.00  0.00     0.000 O
ATOM     56  HD  NAG B   4      30.979  23.507  16.0390  0.00  0.00     0.000 HD
ATOM     56   C  NAG B   4      28.710  23.423  15.3800  0.00  0.00     0.000 C
ATOM     57   O  NAG B   4      29.143  23.290  14.0190  0.00  0.00     0.000 O
ATOM     59  HD  NAG B   4      28.800  23.482  13.2470  0.00  0.00     0.000 HD
BRANCH 49 61
ATOM     59   N  NAG B   4      30.654  19.184  14.9060  0.00  0.00     0.000 N
ATOM     61  HD  NAG B   4      31.187  19.349  15.5680  0.00  0.00     0.000 HD
ATOM     61   O  NAG B   4      32.159  17.541  15.2760  0.00  0.00     0.000 OA
ATOM     62   C  NAG B   4      31.379  18.122  14.5360  0.00  0.00     0.000 C
ATOM     63   C  NAG B   4      31.168  17.652  13.1310  0.00  0.00     0.000 C
ENDBRANCH 49 61
BRANCH 48 64
ATOM     64  O4  BDP B   5      28.000  18.882  16.4630  0.00  0.00     0.000 O
BRANCH 64 68
ATOM     65  C1  BDP B   5      25.178  15.846  16.0220  0.00  0.00     0.000 C
ATOM     66  C2  BDP B   5      26.633  15.438  15.8290  0.00  0.00     0.000 C
ATOM     67  C3  BDP B   5      27.547  16.499  16.4280  0.00  0.00     0.000 C
ATOM     68  C4  BDP B   5      27.239  17.862  15.8170  0.00  0.00     0.000 C
ATOM     69  C5  BDP B   5      25.762  18.218  15.9200  0.00  0.00     0.000 C
ATOM     70  O5  BDP B   5      24.946  17.137  15.4370  0.00  0.00     0.000 O
ATOM     71   O  BDP B   5      26.855  14.150  16.4230  0.00  0.00     0.000 O
ATOM     73  HD  BDP B   5      26.940  13.382  16.8140  0.00  0.00     0.000 HD
ATOM     73   O  BDP B   5      28.921  16.173  16.1880  0.00  0.00     0.000 O
ATOM     75  HD  BDP B   5      29.005  15.405  16.5790  0.00  0.00     0.000 HD
BRANCH 69 75
ATOM     75   C  BDP B   5      25.512  19.449  15.0870  0.00  0.00     0.000 C
ATOM     76   O  BDP B   5      25.699  19.387  13.8550  0.00  0.00     0.000 OA
ATOM     77   O  BDP B   5      25.122  20.489  15.6490  0.00  0.00     0.000 OA
ENDBRANCH 69 75
BRANCH 65 78
ATOM     78  O3  NAG B   6      24.082  15.511  15.1670  0.00  0.00     0.000 O
BRANCH 78 81
ATOM     79  C1  NAG B   6      20.857  13.541  15.3970  0.00  0.00     0.000 C
ATOM     80  C2  NAG B   6      22.368  13.781  15.2510  0.00  0.00     0.000 C
ATOM     81  C3  NAG B   6      22.690  15.253  15.4530  0.00  0.00     0.000 C
ATOM     82  C4  NAG B   6      21.802  16.132  14.5660  0.00  0.00     0.000 C
ATOM     83  C5  NAG B   6      20.338  15.797  14.8250  0.00  0.00     0.000 C
ATOM     84  O5  NAG B   6      20.147  14.418  14.5040  0.00  0.00     0.000 O
BRANCH 80 87
ATOM     85   N  NAG B   6      22.994  12.815  16.1500  0.00  0.00     0.000 N
ATOM     87  HD  NAG B   6      23.263  12.008  16.3110  0.00  0.00     0.000 HD
ATOM     87   C  NAG B   6      24.167  12.217  15.9080  0.00  0.00     0.000 C
ATOM     88   C  NAG B   6      24.651  11.285  16.9720  0.00  0.00     0.000 C
ATOM     89   O  NAG B   6      24.823  12.418  14.8930  0.00  0.00     0.000 OA
ENDBRANCH 80 87
ATOM     90   O  NAG B   6      18.637  17.516  14.8800  0.00  0.00     0.000 O
ATOM     92  HD  NAG B   6      18.885  16.743  15.1820  0.00  0.00     0.000 HD
ATOM     92   O  NAG B   6      18.637  17.516  14.8800  0.00  0.00     0.000 O
ATOM     94  HD  NAG B   6      18.885  16.743  15.1820  0.00  0.00     0.000 HD
ENDBRANCH 78 81
ENDBRANCH 65 78
ENDBRANCH 64 68
ENDBRANCH 48 64
ENDBRANCH 47 50
ENDBRANCH 34 47
ENDBRANCH 33 37
ENDBRANCH 17 33
ENDBRANCH 16 19
ENDBRANCH 1 16
TORSDOF 16
ENDMDL
MODEL 47
REMARK VINA RESULT:      -1.4     77.325     81.788
ROOT
ATOM      1  C1  BDP B   1      57.890  61.218  84.1120  0.00  0.00     0.000 C
ATOM      2  C2  BDP B   1      57.015  62.283  84.7480  0.00  0.00     0.000 C
ATOM      3  C3  BDP B   1      55.566  62.154  84.3290  0.00  0.00     0.000 C
ATOM      4  C4  BDP B   1      55.225  60.821  83.6720  0.00  0.00     0.000 C
ATOM      5  C5  BDP B   1      56.239  60.411  82.6090  0.00  0.00     0.000 C
ATOM      6  O5  BDP B   1      57.489  61.107  82.7550  0.00  0.00     0.000 O
ATOM      7   O  BDP B   1      57.111  62.205  86.1740  0.00  0.00     0.000 O
ATOM      9  HD  BDP B   1      57.575  62.118  86.9010  0.00  0.00     0.000 HD
ATOM      9   O  BDP B   1      55.230  63.197  83.4000  0.00  0.00     0.000 O
ATOM     11  HD  BDP B   1      55.693  63.110  84.1260  0.00  0.00     0.000 HD
ATOM     11   O  BDP B   1      55.116  59.790  84.6600  0.00  0.00     0.000 O
ATOM     13  HD  BDP B   1      55.580  59.703  85.3870  0.00  0.00     0.000 HD
ENDROOT
BRANCH 5 13
ATOM     13   C  BDP B   1      55.641  60.727  81.2830  0.00  0.00     0.000 C
ATOM     14   O  BDP B   1      55.762  61.889  80.8430  0.00  0.00     0.000 OA
ATOM     15   O  BDP B   1      55.063  59.821  80.6450  0.00  0.00     0.000 OA
ENDBRANCH 5 13
BRANCH 1 16
ATOM     16  O3  NAG B   2      58.717  60.220  84.7090  0.00  0.00     0.000 O
BRANCH 16 19
ATOM     17  C1  NAG B   2      58.064  56.650  85.0020  0.00  0.00     0.000 C
ATOM     18  C2  NAG B   2      58.289  57.891  84.1370  0.00  0.00     0.000 C
ATOM     19  C3  NAG B   2      59.197  58.882  84.8490  0.00  0.00     0.000 C
ATOM     20  C4  NAG B   2      59.354  58.543  86.3340  0.00  0.00     0.000 C
ATOM     21  C5  NAG B   2      58.102  57.960  87.0050  0.00  0.00     0.000 C
ATOM     22  O5  NAG B   2      57.334  57.115  86.1400  0.00  0.00     0.000 O
ATOM     23   O  NAG B   2      60.450  57.633  86.4790  0.00  0.00     0.000 O
ATOM     25  HD  NAG B   2      60.249  57.169  85.7760  0.00  0.00     0.000 HD
ATOM     25   C  NAG B   2      57.194  59.084  87.5240  0.00  0.00     0.000 C
ATOM     26   O  NAG B   2      57.591  59.527  88.8300  0.00  0.00     0.000 O
ATOM     28  HD  NAG B   2      57.390  59.062  88.1270  0.00  0.00     0.000 HD
BRANCH 18 30
ATOM     28   N  NAG B   2      59.093  56.764  83.6650  0.00  0.00     0.000 N
ATOM     30  HD  NAG B   2      59.796  56.297  83.8600  0.00  0.00     0.000 HD
ATOM     30   C  NAG B   2      59.854  56.773  82.5600  0.00  0.00     0.000 C
ATOM     31   C  NAG B   2      60.578  55.486  82.2820  0.00  0.00     0.000 C
ATOM     32   O  NAG B   2      59.965  57.734  81.8360  0.00  0.00     0.000 OA
ENDBRANCH 18 30
BRANCH 17 33
ATOM     33  O4  BDP B   3      57.307  55.482  85.3860  0.00  0.00     0.000 O
BRANCH 33 37
ATOM     34  C1  BDP B   3      53.411  54.053  84.3760  0.00  0.00     0.000 C
ATOM     35  C2  BDP B   3      53.722  54.241  85.8560  0.00  0.00     0.000 C
ATOM     36  C3  BDP B   3      54.933  55.131  86.1170  0.00  0.00     0.000 C
ATOM     37  C4  BDP B   3      56.084  54.715  85.1890  0.00  0.00     0.000 C
ATOM     38  C5  BDP B   3      55.558  54.799  83.7430  0.00  0.00     0.000 C
ATOM     39  O5  BDP B   3      54.592  53.755  83.6220  0.00  0.00     0.000 O
ATOM     40   O  BDP B   3      52.531  54.760  86.4520  0.00  0.00     0.000 O
ATOM     42  HD  BDP B   3      52.335  53.917  86.4210  0.00  0.00     0.000 HD
ATOM     42   O  BDP B   3      55.274  54.965  87.4920  0.00  0.00     0.000 O
ATOM     44  HD  BDP B   3      55.077  54.122  87.4620  0.00  0.00     0.000 HD
BRANCH 38 44
ATOM     44   C  BDP B   3      56.612  54.639  82.6910  0.00  0.00     0.000 C
ATOM     45   O  BDP B   3      56.740  55.553  81.8480  0.00  0.00     0.000 OA
ATOM     46   O  BDP B   3      57.324  53.612  82.6820  0.00  0.00     0.000 OA
ENDBRANCH 38 44
BRANCH 34 47
ATOM     47  O3  NAG B   4      52.967  52.728  84.0890  0.00  0.00     0.000 O
BRANCH 47 50
ATOM     48  C1  NAG B   4      50.625  52.909  81.1510  0.00  0.00     0.000 C
ATOM     49  C2  NAG B   4      51.243  53.321  82.4760  0.00  0.00     0.000 C
ATOM     50  C3  NAG B   4      52.409  52.395  82.8010  0.00  0.00     0.000 C
ATOM     51  C4  NAG B   4      51.983  50.936  82.7940  0.00  0.00     0.000 C
ATOM     52  C5  NAG B   4      51.307  50.598  81.4650  0.00  0.00     0.000 C
ATOM     53  O5  NAG B   4      50.243  51.521  81.1980  0.00  0.00     0.000 O
ATOM     54   O  NAG B   4      53.136  50.114  82.9970  0.00  0.00     0.000 O
ATOM     56  HD  NAG B   4      52.394  49.679  83.0980  0.00  0.00     0.000 HD
ATOM     56   C  NAG B   4      50.755  49.178  81.4700  0.00  0.00     0.000 C
ATOM     57   O  NAG B   4      49.790  49.054  82.5230  0.00  0.00     0.000 O
ATOM     59  HD  NAG B   4      49.048  48.619  82.6240  0.00  0.00     0.000 HD
BRANCH 49 61
ATOM     59   N  NAG B   4      49.938  53.543  83.1010  0.00  0.00     0.000 N
ATOM     61  HD  NAG B   4      50.776  53.569  83.3190  0.00  0.00     0.000 HD
ATOM     61   O  NAG B   4      50.506  55.392  84.2670  0.00  0.00     0.000 OA
ATOM     62   C  NAG B   4      49.663  54.595  83.8810  0.00  0.00     0.000 C
ATOM     63   C  NAG B   4      48.224  54.766  84.2530  0.00  0.00     0.000 C
ENDBRANCH 49 61
BRANCH 48 64
ATOM     64  O4  BDP B   5      49.941  53.633  80.1330  0.00  0.00     0.000 O
BRANCH 64 68
ATOM     65  C1  BDP B   5      49.381  57.763  80.0910  0.00  0.00     0.000 C
ATOM     66  C2  BDP B   5      48.128  56.919  79.9040  0.00  0.00     0.000 C
ATOM     67  C3  BDP B   5      48.398  55.492  80.3630  0.00  0.00     0.000 C
ATOM     68  C4  BDP B   5      49.600  54.920  79.6190  0.00  0.00     0.000 C
ATOM     69  C5  BDP B   5      50.823  55.823  79.7220  0.00  0.00     0.000 C
ATOM     70  O5  BDP B   5      50.482  57.178  79.3780  0.00  0.00     0.000 O
ATOM     71   O  BDP B   5      47.036  57.510  80.6250  0.00  0.00     0.000 O
ATOM     73  HD  BDP B   5      46.418  57.896  81.0930  0.00  0.00     0.000 HD
ATOM     73   O  BDP B   5      47.256  54.661  80.1240  0.00  0.00     0.000 O
ATOM     75  HD  BDP B   5      46.638  55.047  80.5920  0.00  0.00     0.000 HD
BRANCH 69 75
ATOM     75   C  BDP B   5      51.872  55.311  78.7700  0.00  0.00     0.000 C
ATOM     76   O  BDP B   5      51.600  55.248  77.5540  0.00  0.00     0.000 OA
ATOM     77   O  BDP B   5      52.981  54.969  79.2210  0.00  0.00     0.000 OA
ENDBRANCH 69 75
BRANCH 65 78
ATOM     78  O3  NAG B   6      49.768  58.894  79.3050  0.00  0.00     0.000 O
BRANCH 78 81
ATOM     79  C1  NAG B   6      50.833  62.454  80.0270  0.00  0.00     0.000 C
ATOM     80  C2  NAG B   6      49.880  61.256  79.8920  0.00  0.00     0.000 C
ATOM     81  C3  NAG B   6      50.665  59.991  79.5840  0.00  0.00     0.000 C
ATOM     82  C4  NAG B   6      51.608  60.210  78.3960  0.00  0.00     0.000 C
ATOM     83  C5  NAG B   6      52.498  61.416  78.6720  0.00  0.00     0.000 C
ATOM     84  O5  NAG B   6      51.648  62.551  78.8450  0.00  0.00     0.000 O
BRANCH 80 87
ATOM     85   N  NAG B   6      49.072  61.267  81.1090  0.00  0.00     0.000 N
ATOM     87  HD  NAG B   6      48.410  61.588  81.5640  0.00  0.00     0.000 HD
ATOM     87   C  NAG B   6      47.784  60.906  81.1560  0.00  0.00     0.000 C
ATOM     88   C  NAG B   6      47.146  60.955  82.5080  0.00  0.00     0.000 C
ATOM     89   O  NAG B   6      47.156  60.541  80.1700  0.00  0.00     0.000 OA
ENDBRANCH 80 87
ATOM     90   O  NAG B   6      54.828  61.443  78.0250  0.00  0.00     0.000 O
ATOM     92  HD  NAG B   6      54.238  61.728  78.5920  0.00  0.00     0.000 HD
ATOM     92   O  NAG B   6      54.828  61.443  78.0250  0.00  0.00     0.000 O
ATOM     94  HD  NAG B   6      54.238  61.728  78.5920  0.00  0.00     0.000 HD
ENDBRANCH 78 81
ENDBRANCH 65 78
ENDBRANCH 64 68
ENDBRANCH 48 64
ENDBRANCH 47 50
ENDBRANCH 34 47
ENDBRANCH 33 37
ENDBRANCH 17 33
ENDBRANCH 16 19
ENDBRANCH 1 16
TORSDOF 16
ENDMDL
MODEL 48
REMARK VINA RESULT:      -1.4     80.980     85.203
ROOT
ATOM      1  C1  BDP B   1      75.210  49.508  68.9280  0.00  0.00     0.000 C
ATOM      2  C2  BDP B   1      75.757  49.193  70.3090  0.00  0.00     0.000 C
ATOM      3  C3  BDP B   1      77.206  48.757  70.2630  0.00  0.00     0.000 C
ATOM      4  C4  BDP B   1      77.903  49.057  68.9410  0.00  0.00     0.000 C
ATOM      5  C5  BDP B   1      77.071  48.650  67.7290  0.00  0.00     0.000 C
ATOM      6  O5  BDP B   1      75.680  48.492  68.0550  0.00  0.00     0.000 O
ATOM      7   O  BDP B   1      75.627  50.340  71.1570  0.00  0.00     0.000 O
ATOM      9  HD  BDP B   1      75.173  51.011  71.4630  0.00  0.00     0.000 HD
ATOM      9   O  BDP B   1      77.299  47.342  70.4930  0.00  0.00     0.000 O
ATOM     11  HD  BDP B   1      76.844  48.013  70.7990  0.00  0.00     0.000 HD
ATOM     11   O  BDP B   1      78.234  50.449  68.8560  0.00  0.00     0.000 O
ATOM     13  HD  BDP B   1      77.780  51.120  69.1620  0.00  0.00     0.000 HD
ENDROOT
BRANCH 5 13
ATOM     13   C  BDP B   1      77.621  47.360  67.2300  0.00  0.00     0.000 C
ATOM     14   O  BDP B   1      77.167  46.301  67.7120  0.00  0.00     0.000 OA
ATOM     15   O  BDP B   1      78.492  47.375  66.3350  0.00  0.00     0.000 OA
ENDBRANCH 5 13
BRANCH 1 16
ATOM     16  O3  NAG B   2      74.645  50.709  68.4060  0.00  0.00     0.000 O
BRANCH 16 19
ATOM     17  C1  NAG B   2      76.146  53.133  66.1420  0.00  0.00     0.000 C
ATOM     18  C2  NAG B   2      75.677  51.708  66.4380  0.00  0.00     0.000 C
ATOM     19  C3  NAG B   2      74.505  51.721  67.4080  0.00  0.00     0.000 C
ATOM     20  C4  NAG B   2      74.338  53.088  68.0780  0.00  0.00     0.000 C
ATOM     21  C5  NAG B   2      75.648  53.832  68.3760  0.00  0.00     0.000 C
ATOM     22  O5  NAG B   2      76.659  53.624  67.3820  0.00  0.00     0.000 O
ATOM     23   O  NAG B   2      73.497  53.900  67.2530  0.00  0.00     0.000 O
ATOM     25  HD  NAG B   2      73.854  53.636  66.5090  0.00  0.00     0.000 HD
ATOM     25   C  NAG B   2      76.210  53.412  69.7410  0.00  0.00     0.000 C
ATOM     26   O  NAG B   2      75.629  54.170  70.8110  0.00  0.00     0.000 O
ATOM     28  HD  NAG B   2      75.986  53.907  70.0670  0.00  0.00     0.000 HD
BRANCH 18 30
ATOM     28   N  NAG B   2      75.210  52.155  65.1260  0.00  0.00     0.000 N
ATOM     30  HD  NAG B   2      74.633  52.678  64.7490  0.00  0.00     0.000 HD
ATOM     30   C  NAG B   2      74.551  51.390  64.2450  0.00  0.00     0.000 C
ATOM     31   C  NAG B   2      74.187  52.078  62.9590  0.00  0.00     0.000 C
ATOM     32   O  NAG B   2      74.256  50.236  64.4530  0.00  0.00     0.000 OA
ENDBRANCH 18 30
BRANCH 17 33
ATOM     33  O4  BDP B   3      77.142  54.086  65.7120  0.00  0.00     0.000 O
BRANCH 33 37
ATOM     34  C1  BDP B   3      81.337  53.810  64.9590  0.00  0.00     0.000 C
ATOM     35  C2  BDP B   3      80.873  54.892  65.9260  0.00  0.00     0.000 C
ATOM     36  C3  BDP B   3      79.465  54.666  66.4650  0.00  0.00     0.000 C
ATOM     37  C4  BDP B   3      78.528  54.287  65.3080  0.00  0.00     0.000 C
ATOM     38  C5  BDP B   3      79.131  53.047  64.6190  0.00  0.00     0.000 C
ATOM     39  O5  BDP B   3      80.329  53.499  63.9900  0.00  0.00     0.000 O
ATOM     40   O  BDP B   3      81.849  54.943  66.9690  0.00  0.00     0.000 O
ATOM     42  HD  BDP B   3      82.248  55.413  66.3600  0.00  0.00     0.000 HD
ATOM     42   O  BDP B   3      79.066  55.883  67.0930  0.00  0.00     0.000 O
ATOM     44  HD  BDP B   3      79.465  56.353  66.4850  0.00  0.00     0.000 HD
BRANCH 38 44
ATOM     44   C  BDP B   3      78.236  52.406  63.6050  0.00  0.00     0.000 C
ATOM     45   O  BDP B   3      77.819  53.115  62.6620  0.00  0.00     0.000 OA
ATOM     46   O  BDP B   3      77.931  51.199  63.7230  0.00  0.00     0.000 OA
ENDBRANCH 38 44
BRANCH 34 47
ATOM     47  O3  NAG B   4      82.114  54.347  63.8900  0.00  0.00     0.000 O
BRANCH 47 50
ATOM     48  C1  NAG B   4      84.576  51.714  62.8150  0.00  0.00     0.000 C
ATOM     49  C2  NAG B   4      83.770  52.566  63.7810  0.00  0.00     0.000 C
ATOM     50  C3  NAG B   4      82.841  53.482  62.9930  0.00  0.00     0.000 C
ATOM     51  C4  NAG B   4      83.608  54.325  61.9860  0.00  0.00     0.000 C
ATOM     52  C5  NAG B   4      84.454  53.420  61.0900  0.00  0.00     0.000 C
ATOM     53  O5  NAG B   4      85.280  52.560  61.8850  0.00  0.00     0.000 O
ATOM     54   O  NAG B   4      82.677  55.081  61.2070  0.00  0.00     0.000 O
ATOM     56  HD  NAG B   4      83.492  55.361  61.1180  0.00  0.00     0.000 HD
ATOM     56   C  NAG B   4      85.332  54.238  60.1500  0.00  0.00     0.000 C
ATOM     57   O  NAG B   4      86.208  55.064  60.9290  0.00  0.00     0.000 O
ATOM     59  HD  NAG B   4      87.022  55.344  60.8400  0.00  0.00     0.000 HD
BRANCH 49 61
ATOM     59   N  NAG B   4      84.920  52.840  64.6430  0.00  0.00     0.000 N
ATOM     61  HD  NAG B   4      84.081  53.049  64.5920  0.00  0.00     0.000 HD
ATOM     61   O  NAG B   4      83.830  52.667  66.6140  0.00  0.00     0.000 OA
ATOM     62   C  NAG B   4      84.867  52.795  65.9790  0.00  0.00     0.000 C
ATOM     63   C  NAG B   4      86.183  52.891  66.6830  0.00  0.00     0.000 C
ENDBRANCH 49 61
BRANCH 48 64
ATOM     64  O4  BDP B   5      85.146  50.413  62.9140  0.00  0.00     0.000 O
BRANCH 64 68
ATOM     65  C1  BDP B   5      84.419  47.720  66.0110  0.00  0.00     0.000 C
ATOM     66  C2  BDP B   5      85.882  48.042  65.7370  0.00  0.00     0.000 C
ATOM     67  C3  BDP B   5      85.979  49.319  64.9120  0.00  0.00     0.000 C
ATOM     68  C4  BDP B   5      85.166  49.179  63.6300  0.00  0.00     0.000 C
ATOM     69  C5  BDP B   5      83.729  48.753  63.9050  0.00  0.00     0.000 C
ATOM     70  O5  BDP B   5      83.698  47.607  64.7730  0.00  0.00     0.000 O
ATOM     71   O  BDP B   5      86.590  48.158  66.9800  0.00  0.00     0.000 O
ATOM     73  HD  BDP B   5      86.965  48.237  67.7570  0.00  0.00     0.000 HD
ATOM     73   O  BDP B   5      87.344  49.598  64.5770  0.00  0.00     0.000 O
ATOM     75  HD  BDP B   5      87.718  49.677  65.3540  0.00  0.00     0.000 HD
BRANCH 69 75
ATOM     75   C  BDP B   5      83.078  48.406  62.5900  0.00  0.00     0.000 C
ATOM     76   O  BDP B   5      83.529  47.447  61.9330  0.00  0.00     0.000 OA
ATOM     77   O  BDP B   5      82.109  49.083  62.2000  0.00  0.00     0.000 OA
ENDBRANCH 69 75
BRANCH 65 78
ATOM     78  O3  NAG B   6      83.856  46.418  66.1950  0.00  0.00     0.000 O
BRANCH 78 81
ATOM     79  C1  NAG B   6      81.860  44.634  68.8720  0.00  0.00     0.000 C
ATOM     80  C2  NAG B   6      83.095  45.245  68.1900  0.00  0.00     0.000 C
ATOM     81  C3  NAG B   6      82.689  45.974  66.9190  0.00  0.00     0.000 C
ATOM     82  C4  NAG B   6      81.829  45.073  66.0260  0.00  0.00     0.000 C
ATOM     83  C5  NAG B   6      80.641  44.552  66.8250  0.00  0.00     0.000 C
ATOM     84  O5  NAG B   6      81.155  43.807  67.9290  0.00  0.00     0.000 O
BRANCH 80 87
ATOM     85   N  NAG B   6      83.762  46.033  69.2230  0.00  0.00     0.000 N
ATOM     87  HD  NAG B   6      84.275  46.073  69.9200  0.00  0.00     0.000 HD
ATOM     87   C  NAG B   6      85.091  46.159  69.3280  0.00  0.00     0.000 C
ATOM     88   C  NAG B   6      85.574  47.040  70.4360  0.00  0.00     0.000 C
ATOM     89   O  NAG B   6      85.877  45.608  68.5660  0.00  0.00     0.000 OA
ENDBRANCH 80 87
ATOM     90   O  NAG B   6      78.447  44.332  65.8310  0.00  0.00     0.000 O
ATOM     92  HD  NAG B   6      78.892  44.481  66.5590  0.00  0.00     0.000 HD
ATOM     92   O  NAG B   6      78.447  44.332  65.8310  0.00  0.00     0.000 O
ATOM     94  HD  NAG B   6      78.892  44.481  66.5590  0.00  0.00     0.000 HD
ENDBRANCH 78 81
ENDBRANCH 65 78
ENDBRANCH 64 68
ENDBRANCH 48 64
ENDBRANCH 47 50
ENDBRANCH 34 47
ENDBRANCH 33 37
ENDBRANCH 17 33
ENDBRANCH 16 19
ENDBRANCH 1 16
TORSDOF 16
ENDMDL
MODEL 49
REMARK VINA RESULT:      -1.4     64.588     70.330
ROOT
ATOM      1  C1  BDP B   1      65.770  53.312  14.9480  0.00  0.00     0.000 C
ATOM      2  C2  BDP B   1      65.096  51.952  14.9520  0.00  0.00     0.000 C
ATOM      3  C3  BDP B   1      64.827  51.444  13.5520  0.00  0.00     0.000 C
ATOM      4  C4  BDP B   1      65.582  52.198  12.4620  0.00  0.00     0.000 C
ATOM      5  C5  BDP B   1      65.494  53.713  12.6240  0.00  0.00     0.000 C
ATOM      6  O5  BDP B   1      65.118  54.094  13.9580  0.00  0.00     0.000 O
ATOM      7   O  BDP B   1      65.909  51.008  15.6580  0.00  0.00     0.000 O
ATOM      9  HD  BDP B   1      66.410  50.789  16.3300  0.00  0.00     0.000 HD
ATOM      9   O  BDP B   1      63.425  51.539  13.2560  0.00  0.00     0.000 O
ATOM     11  HD  BDP B   1      63.925  51.321  13.9290  0.00  0.00     0.000 HD
ATOM     11   O  BDP B   1      66.956  51.793  12.4340  0.00  0.00     0.000 O
ATOM     13  HD  BDP B   1      67.456  51.575  13.1060  0.00  0.00     0.000 HD
ENDROOT
BRANCH 5 13
ATOM     13   C  BDP B   1      64.475  54.201  11.6550  0.00  0.00     0.000 C
ATOM     14   O  BDP B   1      63.282  54.236  12.0230  0.00  0.00     0.000 OA
ATOM     15   O  BDP B   1      64.844  54.583  10.5240  0.00  0.00     0.000 OA
ENDBRANCH 5 13
BRANCH 1 16
ATOM     16  O3  NAG B   2      67.017  53.731  15.4990  0.00  0.00     0.000 O
BRANCH 16 19
ATOM     17  C1  NAG B   2      70.143  54.399  13.7570  0.00  0.00     0.000 C
ATOM     18  C2  NAG B   2      68.665  54.709  13.9940  0.00  0.00     0.000 C
ATOM     19  C3  NAG B   2      68.277  54.399  15.4330  0.00  0.00     0.000 C
ATOM     20  C4  NAG B   2      69.345  53.560  16.1400  0.00  0.00     0.000 C
ATOM     21  C5  NAG B   2      70.059  52.532  15.2520  0.00  0.00     0.000 C
ATOM     22  O5  NAG B   2      70.258  52.982  13.9070  0.00  0.00     0.000 O
ATOM     23   O  NAG B   2      70.305  54.445  16.7260  0.00  0.00     0.000 O
ATOM     25  HD  NAG B   2      70.320  54.988  16.0520  0.00  0.00     0.000 HD
ATOM     25   C  NAG B   2      69.277  51.211  15.2160  0.00  0.00     0.000 C
ATOM     26   O  NAG B   2      69.610  50.366  16.3260  0.00  0.00     0.000 O
ATOM     28  HD  NAG B   2      69.624  50.909  15.6520  0.00  0.00     0.000 HD
BRANCH 18 30
ATOM     28   N  NAG B   2      69.464  55.933  13.9740  0.00  0.00     0.000 N
ATOM     30  HD  NAG B   2      70.031  56.387  14.4470  0.00  0.00     0.000 HD
ATOM     30   C  NAG B   2      68.966  57.176  14.0420  0.00  0.00     0.000 C
ATOM     31   C  NAG B   2      69.993  58.272  13.9920  0.00  0.00     0.000 C
ATOM     32   O  NAG B   2      67.786  57.416  14.1420  0.00  0.00     0.000 OA
ENDBRANCH 18 30
BRANCH 17 33
ATOM     33  O4  BDP B   3      71.260  54.083  12.8980  0.00  0.00     0.000 O
BRANCH 33 37
ATOM     34  C1  BDP B   3      71.576  52.888   8.8090  0.00  0.00     0.000 C
ATOM     35  C2  BDP B   3      72.273  52.016   9.8460  0.00  0.00     0.000 C
ATOM     36  C3  BDP B   3      71.778  52.245  11.2700  0.00  0.00     0.000 C
ATOM     37  C4  BDP B   3      71.689  53.754  11.5440  0.00  0.00     0.000 C
ATOM     38  C5  BDP B   3      70.769  54.361  10.4670  0.00  0.00     0.000 C
ATOM     39  O5  BDP B   3      71.489  54.252   9.2390  0.00  0.00     0.000 O
ATOM     40   O  BDP B   3      72.088  50.664   9.4210  0.00  0.00     0.000 O
ATOM     42  HD  BDP B   3      72.752  50.897   8.9140  0.00  0.00     0.000 HD
ATOM     42   O  BDP B   3      72.711  51.603  12.1370  0.00  0.00     0.000 O
ATOM     44  HD  BDP B   3      73.375  51.835  11.6300  0.00  0.00     0.000 HD
BRANCH 38 44
ATOM     44   C  BDP B   3      70.392  55.790  10.7090  0.00  0.00     0.000 C
ATOM     45   O  BDP B   3      69.175  56.071  10.7740  0.00  0.00     0.000 OA
ATOM     46   O  BDP B   3      71.288  56.652  10.8360  0.00  0.00     0.000 OA
ENDBRANCH 38 44
BRANCH 34 47
ATOM     47  O3  NAG B   4      72.473  53.330   7.7920  0.00  0.00     0.000 O
BRANCH 47 50
ATOM     48  C1  NAG B   4      70.522  53.689   4.5970  0.00  0.00     0.000 C
ATOM     49  C2  NAG B   4      70.973  53.045   5.8960  0.00  0.00     0.000 C
ATOM     50  C3  NAG B   4      71.982  53.954   6.5890  0.00  0.00     0.000 C
ATOM     51  C4  NAG B   4      73.151  54.288   5.6770  0.00  0.00     0.000 C
ATOM     52  C5  NAG B   4      72.633  54.866   4.3590  0.00  0.00     0.000 C
ATOM     53  O5  NAG B   4      71.666  53.986   3.7730  0.00  0.00     0.000 O
ATOM     54   O  NAG B   4      74.005  55.226   6.3380  0.00  0.00     0.000 O
ATOM     56  HD  NAG B   4      74.378  54.867   5.6440  0.00  0.00     0.000 HD
ATOM     56   C  NAG B   4      73.771  55.097   3.3710  0.00  0.00     0.000 C
ATOM     57   O  NAG B   4      74.419  53.847   3.1030  0.00  0.00     0.000 O
ATOM     59  HD  NAG B   4      74.792  53.488   2.4090  0.00  0.00     0.000 HD
BRANCH 49 61
ATOM     59   N  NAG B   4      71.079  51.716   5.2920  0.00  0.00     0.000 N
ATOM     61  HD  NAG B   4      71.225  52.096   6.0570  0.00  0.00     0.000 HD
ATOM     61   O  NAG B   4      70.255  50.554   7.0450  0.00  0.00     0.000 OA
ATOM     62   C  NAG B   4      70.645  50.599   5.8870  0.00  0.00     0.000 C
ATOM     63   C  NAG B   4      70.640  49.371   5.0330  0.00  0.00     0.000 C
ENDBRANCH 49 61
BRANCH 48 64
ATOM     64  O4  BDP B   5      69.310  53.621   3.8500  0.00  0.00     0.000 O
BRANCH 64 68
ATOM     65  C1  BDP B   5      65.737  51.958   5.2050  0.00  0.00     0.000 C
ATOM     66  C2  BDP B   5      66.222  51.478   3.8440  0.00  0.00     0.000 C
ATOM     67  C3  BDP B   5      67.698  51.818   3.6770  0.00  0.00     0.000 C
ATOM     68  C4  BDP B   5      67.917  53.313   3.8780  0.00  0.00     0.000 C
ATOM     69  C5  BDP B   5      67.336  53.807   5.1960  0.00  0.00     0.000 C
ATOM     70  O5  BDP B   5      65.975  53.367   5.3450  0.00  0.00     0.000 O
ATOM     71   O  BDP B   5      65.985  50.067   3.7180  0.00  0.00     0.000 O
ATOM     73  HD  BDP B   5      65.839  49.214   3.7020  0.00  0.00     0.000 HD
ATOM     73   O  BDP B   5      68.155  51.444   2.3720  0.00  0.00     0.000 O
ATOM     75  HD  BDP B   5      68.008  50.591   2.3560  0.00  0.00     0.000 HD
BRANCH 69 75
ATOM     75   C  BDP B   5      67.381  55.314   5.1980  0.00  0.00     0.000 C
ATOM     76   O  BDP B   5      68.008  55.894   6.1070  0.00  0.00     0.000 OA
ATOM     77   O  BDP B   5      66.796  55.936   4.2920  0.00  0.00     0.000 OA
ENDBRANCH 69 75
BRANCH 65 78
ATOM     78  O3  NAG B   6      64.410  52.379   5.5330  0.00  0.00     0.000 O
BRANCH 78 81
ATOM     79  C1  NAG B   6      61.829  51.429   8.1350  0.00  0.00     0.000 C
ATOM     80  C2  NAG B   6      62.690  51.287   6.8700  0.00  0.00     0.000 C
ATOM     81  C3  NAG B   6      63.703  52.418   6.7920  0.00  0.00     0.000 C
ATOM     82  C4  NAG B   6      63.017  53.777   6.9640  0.00  0.00     0.000 C
ATOM     83  C5  NAG B   6      62.214  53.779   8.2600  0.00  0.00     0.000 C
ATOM     84  O5  NAG B   6      61.238  52.740   8.1650  0.00  0.00     0.000 O
BRANCH 80 87
ATOM     85   N  NAG B   6      63.225  49.929   6.9050  0.00  0.00     0.000 N
ATOM     87  HD  NAG B   6      63.115  49.078   6.7840  0.00  0.00     0.000 HD
ATOM     87   C  NAG B   6      63.406  49.167   5.8190  0.00  0.00     0.000 C
ATOM     88   C  NAG B   6      63.999  47.816   6.0660  0.00  0.00     0.000 C
ATOM     89   O  NAG B   6      63.125  49.540   4.6860  0.00  0.00     0.000 OA
ENDBRANCH 80 87
ATOM     90   O  NAG B   6      62.110  55.732   9.6810  0.00  0.00     0.000 O
ATOM     92  HD  NAG B   6      62.089  54.867   9.6500  0.00  0.00     0.000 HD
ATOM     92   O  NAG B   6      62.110  55.732   9.6810  0.00  0.00     0.000 O
ATOM     94  HD  NAG B   6      62.089  54.867   9.6500  0.00  0.00     0.000 HD
ENDBRANCH 78 81
ENDBRANCH 65 78
ENDBRANCH 64 68
ENDBRANCH 48 64
ENDBRANCH 47 50
ENDBRANCH 34 47
ENDBRANCH 33 37
ENDBRANCH 17 33
ENDBRANCH 16 19
ENDBRANCH 1 16
TORSDOF 16
ENDMDL
MODEL 50
REMARK VINA RESULT:      -1.4     74.753     78.671
ROOT
ATOM      1  C1  BDP B   1      27.782  50.155  96.1940  0.00  0.00     0.000 C
ATOM      2  C2  BDP B   1      27.727  50.127  97.7110  0.00  0.00     0.000 C
ATOM      3  C3  BDP B   1      28.264  48.830  98.2770  0.00  0.00     0.000 C
ATOM      4  C4  BDP B   1      29.055  47.995  97.2760  0.00  0.00     0.000 C
ATOM      5  C5  BDP B   1      28.350  47.865  95.9290  0.00  0.00     0.000 C
ATOM      6  O5  BDP B   1      27.350  48.880  95.7400  0.00  0.00     0.000 O
ATOM      7   O  BDP B   1      28.470  51.229  98.2450  0.00  0.00     0.000 O
ATOM      9  HD  BDP B   1      28.694  52.065  98.2440  0.00  0.00     0.000 HD
ATOM      9   O  BDP B   1      27.181  48.020  98.7600  0.00  0.00     0.000 O
ATOM     11  HD  BDP B   1      27.405  48.857  98.7590  0.00  0.00     0.000 HD
ATOM     11   O  BDP B   1      30.363  48.550  97.0860  0.00  0.00     0.000 O
ATOM     13  HD  BDP B   1      30.587  49.386  97.0850  0.00  0.00     0.000 HD
ENDROOT
BRANCH 5 13
ATOM     13   C  BDP B   1      27.713  46.520  95.8940  0.00  0.00     0.000 C
ATOM     14   O  BDP B   1      28.370  45.568  95.4220  0.00  0.00     0.000 OA
ATOM     15   O  BDP B   1      26.561  46.380  96.3570  0.00  0.00     0.000 OA
ENDBRANCH 5 13
BRANCH 1 16
ATOM     16  O3  NAG B   2      28.440  51.057  95.3060  0.00  0.00     0.000 O
BRANCH 16 19
ATOM     17  C1  NAG B   2      31.491  50.552  93.3850  0.00  0.00     0.000 C
ATOM     18  C2  NAG B   2      30.056  50.148  93.7250  0.00  0.00     0.000 C
ATOM     19  C3  NAG B   2      29.250  51.360  94.1700  0.00  0.00     0.000 C
ATOM     20  C4  NAG B   2      30.152  52.557  94.4840  0.00  0.00     0.000 C
ATOM     21  C5  NAG B   2      31.506  52.204  95.1160  0.00  0.00     0.000 C
ATOM     22  O5  NAG B   2      32.063  50.980  94.6220  0.00  0.00     0.000 O
ATOM     23   O  NAG B   2      30.359  53.299  93.2770  0.00  0.00     0.000 O
ATOM     25  HD  NAG B   2      30.447  52.597  92.7780  0.00  0.00     0.000 HD
ATOM     25   C  NAG B   2      31.381  52.105  96.6430  0.00  0.00     0.000 C
ATOM     26   O  NAG B   2      31.511  53.389  97.2710  0.00  0.00     0.000 O
ATOM     28  HD  NAG B   2      31.599  52.687  96.7710  0.00  0.00     0.000 HD
BRANCH 18 30
ATOM     28   N  NAG B   2      30.255  50.219  92.2780  0.00  0.00     0.000 N
ATOM     30  HD  NAG B   2      30.351  50.783  91.6280  0.00  0.00     0.000 HD
ATOM     30   C  NAG B   2      29.342  49.873  91.3600  0.00  0.00     0.000 C
ATOM     31   C  NAG B   2      29.791  50.025  89.9340  0.00  0.00     0.000 C
ATOM     32   O  NAG B   2      28.235  49.473  91.6380  0.00  0.00     0.000 OA
ENDBRANCH 18 30
BRANCH 17 33
ATOM     33  O4  BDP B   3      32.892  50.253  93.2010  0.00  0.00     0.000 O
BRANCH 33 37
ATOM     34  C1  BDP B   3      35.313  46.855  94.1120  0.00  0.00     0.000 C
ATOM     35  C2  BDP B   3      35.778  48.205  94.6450  0.00  0.00     0.000 C
ATOM     36  C3  BDP B   3      34.685  49.268  94.6540  0.00  0.00     0.000 C
ATOM     37  C4  BDP B   3      33.937  49.244  93.3120  0.00  0.00     0.000 C
ATOM     38  C5  BDP B   3      33.403  47.813  93.1100  0.00  0.00     0.000 C
ATOM     39  O5  BDP B   3      34.556  46.996  92.9040  0.00  0.00     0.000 O
ATOM     40   O  BDP B   3      36.304  47.959  95.9510  0.00  0.00     0.000 O
ATOM     42  HD  BDP B   3      36.980  47.722  95.4650  0.00  0.00     0.000 HD
ATOM     42   O  BDP B   3      35.331  50.519  94.8790  0.00  0.00     0.000 O
ATOM     44  HD  BDP B   3      36.008  50.282  94.3930  0.00  0.00     0.000 HD
BRANCH 38 44
ATOM     44   C  BDP B   3      32.461  47.660  91.9570  0.00  0.00     0.000 C
ATOM     45   O  BDP B   3      31.325  47.191  92.1880  0.00  0.00     0.000 OA
ATOM     46   O  BDP B   3      32.827  47.998  90.8110  0.00  0.00     0.000 OA
ENDBRANCH 38 44
BRANCH 34 47
ATOM     47  O3  NAG B   4      36.321  46.213  93.3330  0.00  0.00     0.000 O
BRANCH 47 50
ATOM     48  C1  NAG B   4      35.874  42.497  93.7070  0.00  0.00     0.000 C
ATOM     49  C2  NAG B   4      35.948  43.948  94.1470  0.00  0.00     0.000 C
ATOM     50  C3  NAG B   4      36.181  44.835  92.9290  0.00  0.00     0.000 C
ATOM     51  C4  NAG B   4      37.416  44.406  92.1530  0.00  0.00     0.000 C
ATOM     52  C5  NAG B   4      37.318  42.922  91.7990  0.00  0.00     0.000 C
ATOM     53  O5  NAG B   4      37.065  42.144  92.9760  0.00  0.00     0.000 O
ATOM     54   O  NAG B   4      37.522  45.201  90.9690  0.00  0.00     0.000 O
ATOM     56  HD  NAG B   4      38.249  44.765  91.1440  0.00  0.00     0.000 HD
ATOM     56   C  NAG B   4      38.594  42.427  91.1300  0.00  0.00     0.000 C
ATOM     57   O  NAG B   4      39.697  42.615  92.0280  0.00  0.00     0.000 O
ATOM     59  HD  NAG B   4      40.424  42.178  92.2020  0.00  0.00     0.000 HD
BRANCH 49 61
ATOM     59   N  NAG B   4      36.769  43.640  95.3180  0.00  0.00     0.000 N
ATOM     61  HD  NAG B   4      36.433  44.335  94.9240  0.00  0.00     0.000 HD
ATOM     61   O  NAG B   4      35.768  45.082  96.7390  0.00  0.00     0.000 OA
ATOM     62   C  NAG B   4      36.562  44.177  96.5260  0.00  0.00     0.000 C
ATOM     63   C  NAG B   4      37.360  43.584  97.6430  0.00  0.00     0.000 C
ENDBRANCH 49 61
BRANCH 48 64
ATOM     64  O4  BDP B   5      35.191  41.359  94.2260  0.00  0.00     0.000 O
BRANCH 64 68
ATOM     65  C1  BDP B   5      32.319  41.474  97.2440  0.00  0.00     0.000 C
ATOM     66  C2  BDP B   5      33.492  40.530  97.4750  0.00  0.00     0.000 C
ATOM     67  C3  BDP B   5      34.638  40.899  96.5430  0.00  0.00     0.000 C
ATOM     68  C4  BDP B   5      34.161  40.890  95.0950  0.00  0.00     0.000 C
ATOM     69  C5  BDP B   5      32.924  41.755  94.8920  0.00  0.00     0.000 C
ATOM     70  O5  BDP B   5      31.916  41.433  95.8660  0.00  0.00     0.000 O
ATOM     71   O  BDP B   5      33.890  40.583  98.8530  0.00  0.00     0.000 O
ATOM     73  HD  BDP B   5      34.102  40.669  99.6880  0.00  0.00     0.000 HD
ATOM     73   O  BDP B   5      35.723  39.975  96.6880  0.00  0.00     0.000 O
ATOM     75  HD  BDP B   5      35.935  40.061  97.5240  0.00  0.00     0.000 HD
BRANCH 69 75
ATOM     75   C  BDP B   5      32.386  41.496  93.5070  0.00  0.00     0.000 C
ATOM     76   O  BDP B   5      32.369  42.434  92.6850  0.00  0.00     0.000 OA
ATOM     77   O  BDP B   5      31.979  40.354  93.2220  0.00  0.00     0.000 OA
ENDBRANCH 69 75
BRANCH 65 78
ATOM     78  O3  NAG B   6      30.934  41.167  97.4240  0.00  0.00     0.000 O
BRANCH 78 81
ATOM     79  C1  NAG B   6      28.048  42.567  99.4340  0.00  0.00     0.000 C
ATOM     80  C2  NAG B   6      29.350  41.796  99.1650  0.00  0.00     0.000 C
ATOM     81  C3  NAG B   6      29.800  42.007  97.7280  0.00  0.00     0.000 C
ATOM     82  C4  NAG B   6      28.657  41.717  96.7500  0.00  0.00     0.000 C
ATOM     83  C5  NAG B   6      27.441  42.556  97.1280  0.00  0.00     0.000 C
ATOM     84  O5  NAG B   6      27.061  42.193  98.4550  0.00  0.00     0.000 O
BRANCH 80 87
ATOM     85   N  NAG B   6      30.274  42.210 100.2170  0.00  0.00     0.000 N
ATOM     87  HD  NAG B   6      30.549  42.153 101.0360  0.00  0.00     0.000 HD
ATOM     87   C  NAG B   6      31.174  41.397 100.7850  0.00  0.00     0.000 C
ATOM     88   C  NAG B   6      32.051  42.025 101.8210  0.00  0.00     0.000 C
ATOM     89   O  NAG B   6      31.296  40.217 100.4790  0.00  0.00     0.000 OA
ENDBRANCH 80 87
ATOM     90   O  NAG B   6      26.027  43.563  95.4440  0.00  0.00     0.000 O
ATOM     92  HD  NAG B   6      26.343  43.629  96.2480  0.00  0.00     0.000 HD
ATOM     92   O  NAG B   6      26.027  43.563  95.4440  0.00  0.00     0.000 O
ATOM     94  HD  NAG B   6      26.343  43.629  96.2480  0.00  0.00     0.000 HD
ENDBRANCH 78 81
ENDBRANCH 65 78
ENDBRANCH 64 68
ENDBRANCH 48 64
ENDBRANCH 47 50
ENDBRANCH 34 47
ENDBRANCH 33 37
ENDBRANCH 17 33
ENDBRANCH 16 19
ENDBRANCH 1 16
TORSDOF 16
ENDMDL
MODEL 51
REMARK VINA RESULT:      -1.4    106.322    110.360
ROOT
ATOM      1  C1  BDP B   1      39.334  96.895  88.0780  0.00  0.00     0.000 C
ATOM      2  C2  BDP B   1      38.956  95.426  88.0080  0.00  0.00     0.000 C
ATOM      3  C3  BDP B   1      40.132  94.553  87.6250  0.00  0.00     0.000 C
ATOM      4  C4  BDP B   1      41.485  95.248  87.7390  0.00  0.00     0.000 C
ATOM      5  C5  BDP B   1      41.488  96.639  87.1130  0.00  0.00     0.000 C
ATOM      6  O5  BDP B   1      40.160  97.165  86.9540  0.00  0.00     0.000 O
ATOM      7   O  BDP B   1      38.429  94.999  89.2680  0.00  0.00     0.000 O
ATOM      9  HD  BDP B   1      37.925  95.120  89.9610  0.00  0.00     0.000 HD
ATOM      9   O  BDP B   1      39.987  94.101  86.2700  0.00  0.00     0.000 O
ATOM     11  HD  BDP B   1      39.482  94.223  86.9630  0.00  0.00     0.000 HD
ATOM     11   O  BDP B   1      41.889  95.334  89.1110  0.00  0.00     0.000 O
ATOM     13  HD  BDP B   1      41.384  95.456  89.8040  0.00  0.00     0.000 HD
ENDROOT
BRANCH 5 13
ATOM     13   C  BDP B   1      42.144  96.522  85.7810  0.00  0.00     0.000 C
ATOM     14   O  BDP B   1      43.377  96.703  85.7140  0.00  0.00     0.000 OA
ATOM     15   O  BDP B   1      41.450  96.222  84.7860  0.00  0.00     0.000 OA
ENDBRANCH 5 13
BRANCH 1 16
ATOM     16  O3  NAG B   2      39.252  97.823  89.1580  0.00  0.00     0.000 O
BRANCH 16 19
ATOM     17  C1  NAG B   2      41.902  99.111  91.2960  0.00  0.00     0.000 C
ATOM     18  C2  NAG B   2      41.295  98.918  89.9060  0.00  0.00     0.000 C
ATOM     19  C3  NAG B   2      39.777  98.860  89.9880  0.00  0.00     0.000 C
ATOM     20  C4  NAG B   2      39.294  98.663  91.4280  0.00  0.00     0.000 C
ATOM     21  C5  NAG B   2      40.190  97.773  92.3000  0.00  0.00     0.000 C
ATOM     22  O5  NAG B   2      41.586  97.914  92.0120  0.00  0.00     0.000 O
ATOM     23   O  NAG B   2      39.148  99.950  92.0380  0.00  0.00     0.000 O
ATOM     25  HD  NAG B   2      39.870 100.276  91.6870  0.00  0.00     0.000 HD
ATOM     25   C  NAG B   2      39.804  96.296  92.1410  0.00  0.00     0.000 C
ATOM     26   O  NAG B   2      38.726  95.931  93.0150  0.00  0.00     0.000 O
ATOM     28  HD  NAG B   2      39.448  96.257  92.6640  0.00  0.00     0.000 HD
BRANCH 18 30
ATOM     28   N  NAG B   2      41.770 100.289  90.0920  0.00  0.00     0.000 N
ATOM     30  HD  NAG B   2      41.600 101.017  90.5290  0.00  0.00     0.000 HD
ATOM     30   C  NAG B   2      41.700 101.258  89.1690  0.00  0.00     0.000 C
ATOM     31   C  NAG B   2      42.266 102.582  89.5980  0.00  0.00     0.000 C
ATOM     32   O  NAG B   2      41.216 101.099  88.0720  0.00  0.00     0.000 OA
ENDBRANCH 18 30
BRANCH 17 33
ATOM     33  O4  BDP B   3      42.992  99.013  92.2380  0.00  0.00     0.000 O
BRANCH 33 37
ATOM     34  C1  BDP B   3      46.837  97.156  92.1440  0.00  0.00     0.000 C
ATOM     35  C2  BDP B   3      45.983  96.926  93.3850  0.00  0.00     0.000 C
ATOM     36  C3  BDP B   3      44.507  97.246  93.1780  0.00  0.00     0.000 C
ATOM     37  C4  BDP B   3      44.372  98.593  92.4520  0.00  0.00     0.000 C
ATOM     38  C5  BDP B   3      45.169  98.487  91.1380  0.00  0.00     0.000 C
ATOM     39  O5  BDP B   3      46.541  98.413  91.5240  0.00  0.00     0.000 O
ATOM     40   O  BDP B   3      46.192  95.565  93.7680  0.00  0.00     0.000 O
ATOM     42  HD  BDP B   3      46.899  95.933  94.1090  0.00  0.00     0.000 HD
ATOM     42   O  BDP B   3      43.909  97.278  94.4720  0.00  0.00     0.000 O
ATOM     44  HD  BDP B   3      44.615  97.646  94.8130  0.00  0.00     0.000 HD
BRANCH 38 44
ATOM     44   C  BDP B   3      44.969  99.634  90.1980  0.00  0.00     0.000 C
ATOM     45   O  BDP B   3      45.089 100.793  90.6540  0.00  0.00     0.000 OA
ATOM     46   O  BDP B   3      44.690  99.411  89.0000  0.00  0.00     0.000 OA
ENDBRANCH 38 44
BRANCH 34 47
ATOM     47  O3  NAG B   4      48.120  97.687  92.4700  0.00  0.00     0.000 O
BRANCH 47 50
ATOM     48  C1  NAG B   4      50.549  96.516  89.8480  0.00  0.00     0.000 C
ATOM     49  C2  NAG B   4      49.403  96.414  90.8400  0.00  0.00     0.000 C
ATOM     50  C3  NAG B   4      49.161  97.778  91.4760  0.00  0.00     0.000 C
ATOM     51  C4  NAG B   4      50.425  98.331  92.1140  0.00  0.00     0.000 C
ATOM     52  C5  NAG B   4      51.560  98.344  91.0890  0.00  0.00     0.000 C
ATOM     53  O5  NAG B   4      51.719  97.046  90.5020  0.00  0.00     0.000 O
ATOM     54   O  NAG B   4      50.165  99.651  92.5960  0.00  0.00     0.000 O
ATOM     56  HD  NAG B   4      50.903  99.322  92.9070  0.00  0.00     0.000 HD
ATOM     56   C  NAG B   4      52.876  98.774  91.7270  0.00  0.00     0.000 C
ATOM     57   O  NAG B   4      53.211  97.855  92.7750  0.00  0.00     0.000 O
ATOM     59  HD  NAG B   4      53.950  97.526  93.0860  0.00  0.00     0.000 HD
BRANCH 49 61
ATOM     59   N  NAG B   4      49.875  95.140  91.3830  0.00  0.00     0.000 N
ATOM     61  HD  NAG B   4      49.235  95.707  91.5190  0.00  0.00     0.000 HD
ATOM     61   O  NAG B   4      47.846  94.172  91.6050  0.00  0.00     0.000 OA
ATOM     62   C  NAG B   4      49.066  94.107  91.6480  0.00  0.00     0.000 C
ATOM     63   C  NAG B   4      49.750  92.822  91.9930  0.00  0.00     0.000 C
ENDBRANCH 49 61
BRANCH 48 64
ATOM     64  O4  BDP B   5      50.862  95.810  88.6510  0.00  0.00     0.000 O
BRANCH 64 68
ATOM     65  C1  BDP B   5      48.200  93.378  86.5610  0.00  0.00     0.000 C
ATOM     66  C2  BDP B   5      49.509  92.725  86.9830  0.00  0.00     0.000 C
ATOM     67  C3  BDP B   5      50.169  93.559  88.0740  0.00  0.00     0.000 C
ATOM     68  C4  BDP B   5      50.364  94.992  87.5930  0.00  0.00     0.000 C
ATOM     69  C5  BDP B   5      49.069  95.605  87.0740  0.00  0.00     0.000 C
ATOM     70  O5  BDP B   5      48.439  94.726  86.1260  0.00  0.00     0.000 O
ATOM     71   O  BDP B   5      49.258  91.381  87.4210  0.00  0.00     0.000 O
ATOM     73  HD  BDP B   5      49.048  90.586  87.6940  0.00  0.00     0.000 HD
ATOM     73   O  BDP B   5      51.440  93.003  88.4320  0.00  0.00     0.000 O
ATOM     75  HD  BDP B   5      51.230  92.208  88.7040  0.00  0.00     0.000 HD
BRANCH 69 75
ATOM     75   C  BDP B   5      49.401  96.914  86.4030  0.00  0.00     0.000 C
ATOM     76   O  BDP B   5      50.132  96.902  85.3920  0.00  0.00     0.000 OA
ATOM     77   O  BDP B   5      48.934  97.968  86.8730  0.00  0.00     0.000 OA
ENDBRANCH 69 75
BRANCH 65 78
ATOM     78  O3  NAG B   6      47.595  93.308  85.2660  0.00  0.00     0.000 O
BRANCH 78 81
ATOM     79  C1  NAG B   6      44.297  92.150  83.8130  0.00  0.00     0.000 C
ATOM     80  C2  NAG B   6      45.709  92.027  84.4070  0.00  0.00     0.000 C
ATOM     81  C3  NAG B   6      46.215  93.391  84.8500  0.00  0.00     0.000 C
ATOM     82  C4  NAG B   6      46.069  94.419  83.7230  0.00  0.00     0.000 C
ATOM     83  C5  NAG B   6      44.623  94.442  83.2420  0.00  0.00     0.000 C
ATOM     84  O5  NAG B   6      44.305  93.135  82.7630  0.00  0.00     0.000 O
BRANCH 80 87
ATOM     85   N  NAG B   6      45.613  90.988  85.4290  0.00  0.00     0.000 N
ATOM     87  HD  NAG B   6      45.579  90.150  85.6430  0.00  0.00     0.000 HD
ATOM     87   C  NAG B   6      46.588  90.114  85.7020  0.00  0.00     0.000 C
ATOM     88   C  NAG B   6      46.305  89.150  86.8100  0.00  0.00     0.000 C
ATOM     89   O  NAG B   6      47.658  90.097  85.1040  0.00  0.00     0.000 OA
ENDBRANCH 80 87
ATOM     90   O  NAG B   6      43.526  96.509  82.6320  0.00  0.00     0.000 O
ATOM     92  HD  NAG B   6      43.424  95.712  82.9530  0.00  0.00     0.000 HD
ATOM     92   O  NAG B   6      43.526  96.509  82.6320  0.00  0.00     0.000 O
ATOM     94  HD  NAG B   6      43.424  95.712  82.9530  0.00  0.00     0.000 HD
ENDBRANCH 78 81
ENDBRANCH 65 78
ENDBRANCH 64 68
ENDBRANCH 48 64
ENDBRANCH 47 50
ENDBRANCH 34 47
ENDBRANCH 33 37
ENDBRANCH 17 33
ENDBRANCH 16 19
ENDBRANCH 1 16
TORSDOF 16
ENDMDL
MODEL 52
REMARK VINA RESULT:      -1.4     79.009     83.468
ROOT
ATOM      1  C1  BDP B   1      57.890  61.218  84.1120  0.00  0.00     0.000 C
ATOM      2  C2  BDP B   1      57.005  62.410  84.4290  0.00  0.00     0.000 C
ATOM      3  C3  BDP B   1      55.616  62.259  83.8480  0.00  0.00     0.000 C
ATOM      4  C4  BDP B   1      55.283  60.843  83.3920  0.00  0.00     0.000 C
ATOM      5  C5  BDP B   1      56.398  60.213  82.5630  0.00  0.00     0.000 C
ATOM      6  O5  BDP B   1      57.658  60.879  82.7530  0.00  0.00     0.000 O
ATOM      7   O  BDP B   1      56.916  62.587  85.8470  0.00  0.00     0.000 O
ATOM      9  HD  BDP B   1      57.279  62.615  86.6340  0.00  0.00     0.000 HD
ATOM      9   O  BDP B   1      55.462  63.129  82.7150  0.00  0.00     0.000 O
ATOM     11  HD  BDP B   1      55.824  63.158  83.5010  0.00  0.00     0.000 HD
ATOM     11   O  BDP B   1      54.990  60.011  84.5210  0.00  0.00     0.000 O
ATOM     13  HD  BDP B   1      55.353  60.040  85.3070  0.00  0.00     0.000 HD
ENDROOT
BRANCH 5 13
ATOM     13   C  BDP B   1      55.991  60.306  81.1340  0.00  0.00     0.000 C
ATOM     14   O  BDP B   1      56.359  61.305  80.4810  0.00  0.00     0.000 OA
ATOM     15   O  BDP B   1      55.324  59.378  80.6300  0.00  0.00     0.000 OA
ENDBRANCH 5 13
BRANCH 1 16
ATOM     16  O3  NAG B   2      58.575  60.315  84.9790  0.00  0.00     0.000 O
BRANCH 16 19
ATOM     17  C1  NAG B   2      57.567  57.068  86.2820  0.00  0.00     0.000 C
ATOM     18  C2  NAG B   2      57.833  57.997  85.0970  0.00  0.00     0.000 C
ATOM     19  C3  NAG B   2      58.917  59.008  85.4420  0.00  0.00     0.000 C
ATOM     20  C4  NAG B   2      59.195  59.049  86.9470  0.00  0.00     0.000 C
ATOM     21  C5  NAG B   2      57.967  58.837  87.8430  0.00  0.00     0.000 C
ATOM     22  O5  NAG B   2      57.021  57.908  87.3010  0.00  0.00     0.000 O
ATOM     23   O  NAG B   2      60.193  58.070  87.2520  0.00  0.00     0.000 O
ATOM     25  HD  NAG B   2      59.867  57.470  86.7190  0.00  0.00     0.000 HD
ATOM     25   C  NAG B   2      57.250  60.170  88.1030  0.00  0.00     0.000 C
ATOM     26   O  NAG B   2      57.833  60.880  89.2050  0.00  0.00     0.000 O
ATOM     28  HD  NAG B   2      57.507  60.280  88.6720  0.00  0.00     0.000 HD
BRANCH 18 30
ATOM     28   N  NAG B   2      58.439  56.683  84.8850  0.00  0.00     0.000 N
ATOM     30  HD  NAG B   2      59.093  56.181  85.1520  0.00  0.00     0.000 HD
ATOM     30   C  NAG B   2      59.084  56.305  83.7720  0.00  0.00     0.000 C
ATOM     31   C  NAG B   2      59.610  54.898  83.7930  0.00  0.00     0.000 C
ATOM     32   O  NAG B   2      59.246  57.029  82.8170  0.00  0.00     0.000 OA
ENDBRANCH 18 30
BRANCH 17 33
ATOM     33  O4  BDP B   3      56.733  56.154  87.0250  0.00  0.00     0.000 O
BRANCH 33 37
ATOM     34  C1  BDP B   3      52.521  55.701  87.5740  0.00  0.00     0.000 C
ATOM     35  C2  BDP B   3      53.408  55.517  88.8000  0.00  0.00     0.000 C
ATOM     36  C3  BDP B   3      54.808  56.097  88.6340  0.00  0.00     0.000 C
ATOM     37  C4  BDP B   3      55.376  55.681  87.2690  0.00  0.00     0.000 C
ATOM     38  C5  BDP B   3      54.380  56.158  86.1940  0.00  0.00     0.000 C
ATOM     39  O5  BDP B   3      53.212  55.356  86.3670  0.00  0.00     0.000 O
ATOM     40   O  BDP B   3      52.703  56.109  89.8940  0.00  0.00     0.000 O
ATOM     42  HD  BDP B   3      52.305  55.341  89.8510  0.00  0.00     0.000 HD
ATOM     42   O  BDP B   3      55.592  55.590  89.7120  0.00  0.00     0.000 O
ATOM     44  HD  BDP B   3      55.194  54.822  89.6690  0.00  0.00     0.000 HD
BRANCH 38 44
ATOM     44   C  BDP B   3      54.878  56.031  84.7880  0.00  0.00     0.000 C
ATOM     45   O  BDP B   3      55.364  54.934  84.4360  0.00  0.00     0.000 OA
ATOM     46   O  BDP B   3      54.800  57.010  84.0140  0.00  0.00     0.000 OA
ENDBRANCH 38 44
BRANCH 34 47
ATOM     47  O3  NAG B   4      51.684  54.568  87.3460  0.00  0.00     0.000 O
BRANCH 47 50
ATOM     48  C1  NAG B   4      49.311  55.098  84.4760  0.00  0.00     0.000 C
ATOM     49  C2  NAG B   4      49.992  55.392  85.8010  0.00  0.00     0.000 C
ATOM     50  C3  NAG B   4      51.070  54.346  86.0600  0.00  0.00     0.000 C
ATOM     51  C4  NAG B   4      50.505  52.936  86.0050  0.00  0.00     0.000 C
ATOM     52  C5  NAG B   4      49.772  52.722  84.6800  0.00  0.00     0.000 C
ATOM     53  O5  NAG B   4      48.797  53.752  84.4760  0.00  0.00     0.000 O
ATOM     54   O  NAG B   4      51.577  51.999  86.1460  0.00  0.00     0.000 O
ATOM     56  HD  NAG B   4      50.798  51.633  86.2470  0.00  0.00     0.000 HD
ATOM     56   C  NAG B   4      49.086  51.361  84.6410  0.00  0.00     0.000 C
ATOM     57   O  NAG B   4      48.135  51.286  85.7110  0.00  0.00     0.000 O
ATOM     59  HD  NAG B   4      47.357  50.920  85.8130  0.00  0.00     0.000 HD
BRANCH 49 61
ATOM     59   N  NAG B   4      48.747  55.668  86.5180  0.00  0.00     0.000 N
ATOM     61  HD  NAG B   4      49.597  55.640  86.6800  0.00  0.00     0.000 HD
ATOM     61   O  NAG B   4      49.496  57.446  87.6930  0.00  0.00     0.000 OA
ATOM     62   C  NAG B   4      48.585  56.709  87.3430  0.00  0.00     0.000 C
ATOM     63   C  NAG B   4      47.186  56.950  87.8150  0.00  0.00     0.000 C
ENDBRANCH 49 61
BRANCH 48 64
ATOM     64  O4  BDP B   5      48.679  55.927  83.5060  0.00  0.00     0.000 O
BRANCH 64 68
ATOM     65  C1  BDP B   5      49.805  59.850  82.6600  0.00  0.00     0.000 C
ATOM     66  C2  BDP B   5      48.414  59.669  83.2530  0.00  0.00     0.000 C
ATOM     67  C3  BDP B   5      48.307  58.292  83.8960  0.00  0.00     0.000 C
ATOM     68  C4  BDP B   5      48.651  57.209  82.8800  0.00  0.00     0.000 C
ATOM     69  C5  BDP B   5      49.999  57.454  82.2140  0.00  0.00     0.000 C
ATOM     70  O5  BDP B   5      50.081  58.802  81.7180  0.00  0.00     0.000 O
ATOM     71   O  BDP B   5      48.151  60.718  84.1970  0.00  0.00     0.000 O
ATOM     73  HD  BDP B   5      48.053  61.360  84.7700  0.00  0.00     0.000 HD
ATOM     73   O  BDP B   5      46.981  58.071  84.3920  0.00  0.00     0.000 O
ATOM     75  HD  BDP B   5      46.882  58.712  84.9650  0.00  0.00     0.000 HD
BRANCH 69 75
ATOM     75   C  BDP B   5      50.143  56.487  81.0670  0.00  0.00     0.000 C
ATOM     76   O  BDP B   5      49.350  56.570  80.1080  0.00  0.00     0.000 OA
ATOM     77   O  BDP B   5      51.051  55.635  81.1060  0.00  0.00     0.000 OA
ENDBRANCH 69 75
BRANCH 65 78
ATOM     78  O3  NAG B   6      50.146  60.651  81.5260  0.00  0.00     0.000 O
BRANCH 78 81
ATOM     79  C1  NAG B   6      52.463  63.559  80.8120  0.00  0.00     0.000 C
ATOM     80  C2  NAG B   6      51.220  62.831  81.3470  0.00  0.00     0.000 C
ATOM     81  C3  NAG B   6      51.370  61.329  81.1670  0.00  0.00     0.000 C
ATOM     82  C4  NAG B   6      51.753  60.989  79.7230  0.00  0.00     0.000 C
ATOM     83  C5  NAG B   6      53.004  61.769  79.3330  0.00  0.00     0.000 C
ATOM     84  O5  NAG B   6      52.700  63.159  79.4500  0.00  0.00     0.000 O
BRANCH 80 87
ATOM     85   N  NAG B   6      51.037  63.317  82.7120  0.00  0.00     0.000 N
ATOM     87  HD  NAG B   6      50.766  63.932  83.2580  0.00  0.00     0.000 HD
ATOM     87   C  NAG B   6      49.842  63.521  83.2810  0.00  0.00     0.000 C
ATOM     88   C  NAG B   6      49.871  63.988  84.7020  0.00  0.00     0.000 C
ATOM     89   O  NAG B   6      48.782  63.329  82.6960  0.00  0.00     0.000 OA
ENDBRANCH 80 87
ATOM     90   O  NAG B   6      54.737  60.778  77.9680  0.00  0.00     0.000 O
ATOM     92  HD  NAG B   6      54.556  61.349  78.5940  0.00  0.00     0.000 HD
ATOM     92   O  NAG B   6      54.737  60.778  77.9680  0.00  0.00     0.000 O
ATOM     94  HD  NAG B   6      54.556  61.349  78.5940  0.00  0.00     0.000 HD
ENDBRANCH 78 81
ENDBRANCH 65 78
ENDBRANCH 64 68
ENDBRANCH 48 64
ENDBRANCH 47 50
ENDBRANCH 34 47
ENDBRANCH 33 37
ENDBRANCH 17 33
ENDBRANCH 16 19
ENDBRANCH 1 16
TORSDOF 16
ENDMDL
MODEL 53
REMARK VINA RESULT:      -1.4     55.101     60.524
ROOT
ATOM      1  C1  BDP B   1      40.200  61.115  44.8480  0.00  0.00     0.000 C
ATOM      2  C2  BDP B   1      39.156  62.182  44.5720  0.00  0.00     0.000 C
ATOM      3  C3  BDP B   1      39.567  63.104  43.4440  0.00  0.00     0.000 C
ATOM      4  C4  BDP B   1      40.727  62.581  42.6050  0.00  0.00     0.000 C
ATOM      5  C5  BDP B   1      41.879  62.053  43.4540  0.00  0.00     0.000 C
ATOM      6  O5  BDP B   1      41.468  61.754  44.7990  0.00  0.00     0.000 O
ATOM      7   O  BDP B   1      37.903  61.566  44.2570  0.00  0.00     0.000 O
ATOM      9  HD  BDP B   1      37.291  60.971  44.4020  0.00  0.00     0.000 HD
ATOM      9   O  BDP B   1      39.954  64.383  43.9730  0.00  0.00     0.000 O
ATOM     11  HD  BDP B   1      39.342  63.787  44.1180  0.00  0.00     0.000 HD
ATOM     11   O  BDP B   1      40.275  61.556  41.7120  0.00  0.00     0.000 O
ATOM     13  HD  BDP B   1      39.663  60.960  41.8570  0.00  0.00     0.000 HD
ENDROOT
BRANCH 5 13
ATOM     13   C  BDP B   1      42.932  63.105  43.4730  0.00  0.00     0.000 C
ATOM     14   O  BDP B   1      42.772  64.112  42.7510  0.00  0.00     0.000 OA
ATOM     15   O  BDP B   1      43.921  62.963  44.2230  0.00  0.00     0.000 OA
ENDBRANCH 5 13
BRANCH 1 16
ATOM     16  O3  NAG B   2      40.103  59.693  44.8190  0.00  0.00     0.000 O
BRANCH 16 19
ATOM     17  C1  NAG B   2      41.440  57.414  42.3130  0.00  0.00     0.000 C
ATOM     18  C2  NAG B   2      41.659  58.472  43.3960  0.00  0.00     0.000 C
ATOM     19  C3  NAG B   2      40.565  58.392  44.4510  0.00  0.00     0.000 C
ATOM     20  C4  NAG B   2      39.384  57.538  43.9800  0.00  0.00     0.000 C
ATOM     21  C5  NAG B   2      39.063  57.639  42.4820  0.00  0.00     0.000 C
ATOM     22  O5  NAG B   2      40.226  57.792  41.6600  0.00  0.00     0.000 O
ATOM     23   O  NAG B   2      39.642  56.175  44.3310  0.00  0.00     0.000 O
ATOM     25  HD  NAG B   2      40.481  56.205  44.1190  0.00  0.00     0.000 HD
ATOM     25   C  NAG B   2      38.113  58.813  42.2110  0.00  0.00     0.000 C
ATOM     26   O  NAG B   2      36.740  58.440  42.3990  0.00  0.00     0.000 O
ATOM     28  HD  NAG B   2      37.579  58.471  42.1870  0.00  0.00     0.000 HD
BRANCH 18 30
ATOM     28   N  NAG B   2      42.552  57.330  43.5890  0.00  0.00     0.000 N
ATOM     30  HD  NAG B   2      42.563  56.512  43.8740  0.00  0.00     0.000 HD
ATOM     30   C  NAG B   2      43.543  57.274  44.4900  0.00  0.00     0.000 C
ATOM     31   C  NAG B   2      44.328  55.993  44.4870  0.00  0.00     0.000 C
ATOM     32   O  NAG B   2      43.796  58.173  45.2590  0.00  0.00     0.000 OA
ENDBRANCH 18 30
BRANCH 17 33
ATOM     33  O4  BDP B   3      41.629  56.895  40.9790  0.00  0.00     0.000 O
BRANCH 33 37
ATOM     34  C1  BDP B   3      43.350  58.510  37.4200  0.00  0.00     0.000 C
ATOM     35  C2  BDP B   3      41.923  57.983  37.3270  0.00  0.00     0.000 C
ATOM     36  C3  BDP B   3      41.241  57.825  38.6810  0.00  0.00     0.000 C
ATOM     37  C4  BDP B   3      42.200  57.130  39.6590  0.00  0.00     0.000 C
ATOM     38  C5  BDP B   3      43.488  57.975  39.7140  0.00  0.00     0.000 C
ATOM     39  O5  BDP B   3      44.100  57.829  38.4320  0.00  0.00     0.000 O
ATOM     40   O  BDP B   3      41.219  58.884  36.4690  0.00  0.00     0.000 O
ATOM     42  HD  BDP B   3      41.624  58.395  35.8810  0.00  0.00     0.000 HD
ATOM     42   O  BDP B   3      40.061  57.054  38.4580  0.00  0.00     0.000 O
ATOM     44  HD  BDP B   3      40.466  56.565  37.8690  0.00  0.00     0.000 HD
BRANCH 38 44
ATOM     44   C  BDP B   3      44.451  57.566  40.7840  0.00  0.00     0.000 C
ATOM     45   O  BDP B   3      44.817  58.436  41.6060  0.00  0.00     0.000 OA
ATOM     46   O  BDP B   3      44.861  56.386  40.8300  0.00  0.00     0.000 OA
ENDBRANCH 38 44
BRANCH 34 47
ATOM     47  O3  NAG B   4      44.208  57.900  36.4580  0.00  0.00     0.000 O
BRANCH 47 50
ATOM     48  C1  NAG B   4      46.869  60.377  35.4940  0.00  0.00     0.000 C
ATOM     49  C2  NAG B   4      45.470  59.879  35.8120  0.00  0.00     0.000 C
ATOM     50  C3  NAG B   4      45.535  58.411  36.2170  0.00  0.00     0.000 C
ATOM     51  C4  NAG B   4      46.219  57.566  35.1540  0.00  0.00     0.000 C
ATOM     52  C5  NAG B   4      47.591  58.156  34.8260  0.00  0.00     0.000 C
ATOM     53  O5  NAG B   4      47.471  59.543  34.4850  0.00  0.00     0.000 O
ATOM     54   O  NAG B   4      46.347  56.226  35.6350  0.00  0.00     0.000 O
ATOM     56  HD  NAG B   4      46.491  56.290  34.7830  0.00  0.00     0.000 HD
ATOM     56   C  NAG B   4      48.254  57.408  33.6740  0.00  0.00     0.000 C
ATOM     57   O  NAG B   4      47.420  57.505  32.5120  0.00  0.00     0.000 O
ATOM     59  HD  NAG B   4      47.564  57.569  31.6610  0.00  0.00     0.000 HD
BRANCH 49 61
ATOM     59   N  NAG B   4      44.862  60.538  34.6550  0.00  0.00     0.000 N
ATOM     61  HD  NAG B   4      44.623  60.026  35.3120  0.00  0.00     0.000 HD
ATOM     61   O  NAG B   4      42.981  61.231  35.6950  0.00  0.00     0.000 OA
ATOM     62   C  NAG B   4      43.710  61.217  34.7150  0.00  0.00     0.000 C
ATOM     63   C  NAG B   4      43.356  62.000  33.4900  0.00  0.00     0.000 C
ENDBRANCH 49 61
BRANCH 48 64
ATOM     64  O4  BDP B   5      47.487  61.657  35.5890  0.00  0.00     0.000 O
BRANCH 64 68
ATOM     65  C1  BDP B   5      45.616  65.110  36.9850  0.00  0.00     0.000 C
ATOM     66  C2  BDP B   5      46.248  65.206  35.6030  0.00  0.00     0.000 C
ATOM     67  C3  BDP B   5      46.498  63.806  35.0550  0.00  0.00     0.000 C
ATOM     68  C4  BDP B   5      47.355  63.007  36.0310  0.00  0.00     0.000 C
ATOM     69  C5  BDP B   5      46.772  63.003  37.4380  0.00  0.00     0.000 C
ATOM     70  O5  BDP B   5      46.458  64.342  37.8600  0.00  0.00     0.000 O
ATOM     71   O  BDP B   5      45.395  65.970  34.7360  0.00  0.00     0.000 O
ATOM     73  HD  BDP B   5      44.836  66.419  34.2510  0.00  0.00     0.000 HD
ATOM     73   O  BDP B   5      47.162  63.874  33.7880  0.00  0.00     0.000 O
ATOM     75  HD  BDP B   5      46.603  64.323  33.3030  0.00  0.00     0.000 HD
BRANCH 69 75
ATOM     75   C  BDP B   5      47.794  62.407  38.3720  0.00  0.00     0.000 C
ATOM     76   O  BDP B   5      48.880  63.000  38.5300  0.00  0.00     0.000 OA
ATOM     77   O  BDP B   5      47.525  61.344  38.9620  0.00  0.00     0.000 OA
ENDBRANCH 69 75
BRANCH 65 78
ATOM     78  O3  NAG B   6      45.757  66.054  38.0500  0.00  0.00     0.000 O
BRANCH 78 81
ATOM     79  C1  NAG B   6      43.412  68.075  40.2290  0.00  0.00     0.000 C
ATOM     80  C2  NAG B   6      44.185  67.677  38.9610  0.00  0.00     0.000 C
ATOM     81  C3  NAG B   6      44.907  66.357  39.1780  0.00  0.00     0.000 C
ATOM     82  C4  NAG B   6      45.739  66.395  40.4640  0.00  0.00     0.000 C
ATOM     83  C5  NAG B   6      44.845  66.789  41.6340  0.00  0.00     0.000 C
ATOM     84  O5  NAG B   6      44.310  68.083  41.3530  0.00  0.00     0.000 O
BRANCH 80 87
ATOM     85   N  NAG B   6      43.212  67.725  37.8740  0.00  0.00     0.000 N
ATOM     87  HD  NAG B   6      42.748  68.183  37.3040  0.00  0.00     0.000 HD
ATOM     87   C  NAG B   6      43.499  68.125  36.6290  0.00  0.00     0.000 C
ATOM     88   C  NAG B   6      42.368  68.066  35.6520  0.00  0.00     0.000 C
ATOM     89   O  NAG B   6      44.613  68.505  36.2890  0.00  0.00     0.000 OA
ENDBRANCH 80 87
ATOM     90   O  NAG B   6      45.093  65.772  43.8140  0.00  0.00     0.000 O
ATOM     92  HD  NAG B   6      44.544  66.135  43.2510  0.00  0.00     0.000 HD
ATOM     92   O  NAG B   6      45.093  65.772  43.8140  0.00  0.00     0.000 O
ATOM     94  HD  NAG B   6      44.544  66.135  43.2510  0.00  0.00     0.000 HD
ENDBRANCH 78 81
ENDBRANCH 65 78
ENDBRANCH 64 68
ENDBRANCH 48 64
ENDBRANCH 47 50
ENDBRANCH 34 47
ENDBRANCH 33 37
ENDBRANCH 17 33
ENDBRANCH 16 19
ENDBRANCH 1 16
TORSDOF 16
ENDMDL
MODEL 54
REMARK VINA RESULT:      -1.4     79.450     85.827
ROOT
ATOM      1  C1  BDP B   1      24.622  51.355  97.0570  0.00  0.00     0.000 C
ATOM      2  C2  BDP B   1      23.867  52.607  97.4680  0.00  0.00     0.000 C
ATOM      3  C3  BDP B   1      23.804  52.767  98.9720  0.00  0.00     0.000 C
ATOM      4  C4  BDP B   1      24.780  51.877  99.7330  0.00  0.00     0.000 C
ATOM      5  C5  BDP B   1      24.770  50.433  99.2400  0.00  0.00     0.000 C
ATOM      6  O5  BDP B   1      24.201  50.313  97.9250  0.00  0.00     0.000 O
ATOM      7   O  BDP B   1      24.484  53.760  96.8870  0.00  0.00     0.000 O
ATOM      9  HD  BDP B   1      24.848  54.171  96.2170  0.00  0.00     0.000 HD
ATOM      9   O  BDP B   1      22.481  52.464  99.4420  0.00  0.00     0.000 O
ATOM     11  HD  BDP B   1      22.845  52.875  98.7720  0.00  0.00     0.000 HD
ATOM     11   O  BDP B   1      26.109  52.407  99.6490  0.00  0.00     0.000 O
ATOM     13  HD  BDP B   1      26.473  52.817  98.9790  0.00  0.00     0.000 HD
ENDROOT
BRANCH 5 13
ATOM     13   C  BDP B   1      23.963  49.642 100.2100  0.00  0.00     0.000 C
ATOM     14   O  BDP B   1      23.767  48.434  99.9660  0.00  0.00     0.000 OA
ATOM     15   O  BDP B   1      23.534  50.201 101.2420  0.00  0.00     0.000 OA
ENDBRANCH 5 13
BRANCH 1 16
ATOM     16  O3  NAG B   2      25.784  51.199  96.2450  0.00  0.00     0.000 O
BRANCH 16 19
ATOM     17  C1  NAG B   2      29.170  50.407  97.3260  0.00  0.00     0.000 C
ATOM     18  C2  NAG B   2      27.694  50.027  97.2030  0.00  0.00     0.000 C
ATOM     19  C3  NAG B   2      27.079  50.664  95.9650  0.00  0.00     0.000 C
ATOM     20  C4  NAG B   2      27.977  51.760  95.3860  0.00  0.00     0.000 C
ATOM     21  C5  NAG B   2      28.752  52.584  96.4240  0.00  0.00     0.000 C
ATOM     22  O5  NAG B   2      29.175  51.817  97.5580  0.00  0.00     0.000 O
ATOM     23   O  NAG B   2      28.891  51.159  94.4630  0.00  0.00     0.000 O
ATOM     25  HD  NAG B   2      29.038  50.462  94.9550  0.00  0.00     0.000 HD
ATOM     25   C  NAG B   2      27.905  53.765  96.9200  0.00  0.00     0.000 C
ATOM     26   O  NAG B   2      28.018  54.901  96.0510  0.00  0.00     0.000 O
ATOM     28  HD  NAG B   2      28.165  54.203  96.5430  0.00  0.00     0.000 HD
BRANCH 18 30
ATOM     28   N  NAG B   2      28.559  48.928  96.7740  0.00  0.00     0.000 N
ATOM     30  HD  NAG B   2      29.066  48.673  96.1200  0.00  0.00     0.000 HD
ATOM     30   C  NAG B   2      28.133  47.701  96.4420  0.00  0.00     0.000 C
ATOM     31   C  NAG B   2      29.219  46.742  96.0450  0.00  0.00     0.000 C
ATOM     32   O  NAG B   2      26.969  47.374  96.4510  0.00  0.00     0.000 OA
ENDBRANCH 18 30
BRANCH 17 33
ATOM     33  O4  BDP B   3      30.381  50.593  98.0900  0.00  0.00     0.000 O
BRANCH 33 37
ATOM     34  C1  BDP B   3      31.246  50.553 102.2730  0.00  0.00     0.000 C
ATOM     35  C2  BDP B   3      31.672  51.786 101.4850  0.00  0.00     0.000 C
ATOM     36  C3  BDP B   3      30.974  51.920 100.1360  0.00  0.00     0.000 C
ATOM     37  C4  BDP B   3      30.992  50.565  99.4130  0.00  0.00     0.000 C
ATOM     38  C5  BDP B   3      30.329  49.537 100.3510  0.00  0.00     0.000 C
ATOM     39  O5  BDP B   3      31.227  49.381 101.4490  0.00  0.00     0.000 O
ATOM     40   O  BDP B   3      31.425  52.908 102.3350  0.00  0.00     0.000 O
ATOM     42  HD  BDP B   3      32.183  52.636 102.6540  0.00  0.00     0.000 HD
ATOM     42   O  BDP B   3      31.682  52.921  99.4060  0.00  0.00     0.000 O
ATOM     44  HD  BDP B   3      32.439  52.648  99.7250  0.00  0.00     0.000 HD
BRANCH 38 44
ATOM     44   C  BDP B   3      30.062  48.206  99.7200  0.00  0.00     0.000 C
ATOM     45   O  BDP B   3      28.887  47.777  99.7330  0.00  0.00     0.000 OA
ATOM     46   O  BDP B   3      31.005  47.566  99.2060  0.00  0.00     0.000 OA
ENDBRANCH 38 44
BRANCH 34 47
ATOM     47  O3  NAG B   4      32.339  49.966 102.9770  0.00  0.00     0.000 O
BRANCH 47 50
ATOM     48  C1  NAG B   4      31.034  48.367 106.1210  0.00  0.00     0.000 C
ATOM     49  C2  NAG B   4      31.195  49.442 105.0610  0.00  0.00     0.000 C
ATOM     50  C3  NAG B   4      32.120  48.935 103.9610  0.00  0.00     0.000 C
ATOM     51  C4  NAG B   4      33.457  48.477 104.5220  0.00  0.00     0.000 C
ATOM     52  C5  NAG B   4      33.230  47.449 105.6320  0.00  0.00     0.000 C
ATOM     53  O5  NAG B   4      32.327  47.969 106.6170  0.00  0.00     0.000 O
ATOM     54   O  NAG B   4      34.238  47.913 103.4650  0.00  0.00     0.000 O
ATOM     56  HD  NAG B   4      34.706  48.076 104.1750  0.00  0.00     0.000 HD
ATOM     56   C  NAG B   4      34.542  47.061 106.3040  0.00  0.00     0.000 C
ATOM     57   O  NAG B   4      35.140  48.232 106.8740  0.00  0.00     0.000 O
ATOM     59  HD  NAG B   4      35.608  48.394 107.5850  0.00  0.00     0.000 HD
BRANCH 49 61
ATOM     59   N  NAG B   4      31.351  50.525 106.0330  0.00  0.00     0.000 N
ATOM     61  HD  NAG B   4      31.353  50.418 105.1730  0.00  0.00     0.000 HD
ATOM     61   O  NAG B   4      30.109  52.059 104.9340  0.00  0.00     0.000 OA
ATOM     62   C  NAG B   4      30.738  51.709 105.9220  0.00  0.00     0.000 C
ATOM     63   C  NAG B   4      30.845  52.607 107.1140  0.00  0.00     0.000 C
ENDBRANCH 49 61
BRANCH 48 64
ATOM     64  O4  BDP B   5      29.978  48.042 107.0200  0.00  0.00     0.000 O
BRANCH 64 68
ATOM     65  C1  BDP B   5      26.229  49.863 107.0440  0.00  0.00     0.000 C
ATOM     66  C2  BDP B   5      26.994  49.895 108.3600  0.00  0.00     0.000 C
ATOM     67  C3  BDP B   5      28.466  49.599 108.1040  0.00  0.00     0.000 C
ATOM     68  C4  BDP B   5      28.615  48.266 107.3780  0.00  0.00     0.000 C
ATOM     69  C5  BDP B   5      27.764  48.202 106.1160  0.00  0.00     0.000 C
ATOM     70  O5  BDP B   5      26.409  48.593 106.3990  0.00  0.00     0.000 O
ATOM     71   O  BDP B   5      26.812  51.171 108.9930  0.00  0.00     0.000 O
ATOM     73  HD  BDP B   5      26.686  51.963 109.3210  0.00  0.00     0.000 HD
ATOM     73   O  BDP B   5      29.191  49.547 109.3390  0.00  0.00     0.000 O
ATOM     75  HD  BDP B   5      29.065  50.339 109.6660  0.00  0.00     0.000 HD
BRANCH 69 75
ATOM     75   C  BDP B   5      27.783  46.784 105.6040  0.00  0.00     0.000 C
ATOM     76   O  BDP B   5      27.303  45.882 106.3200  0.00  0.00     0.000 OA
ATOM     77   O  BDP B   5      28.271  46.554 104.4820  0.00  0.00     0.000 OA
ENDBRANCH 69 75
BRANCH 65 78
ATOM     78  O3  NAG B   6      24.856  49.503 106.8690  0.00  0.00     0.000 O
BRANCH 78 81
ATOM     79  C1  NAG B   6      21.722  51.130 105.5050  0.00  0.00     0.000 C
ATOM     80  C2  NAG B   6      22.847  50.834 106.5090  0.00  0.00     0.000 C
ATOM     81  C3  NAG B   6      23.879  49.908 105.8850  0.00  0.00     0.000 C
ATOM     82  C4  NAG B   6      23.206  48.672 105.2770  0.00  0.00     0.000 C
ATOM     83  C5  NAG B   6      22.127  49.115 104.2960  0.00  0.00     0.000 C
ATOM     84  O5  NAG B   6      21.173  49.890 105.0240  0.00  0.00     0.000 O
BRANCH 80 87
ATOM     85   N  NAG B   6      23.316  52.139 106.9660  0.00  0.00     0.000 N
ATOM     87  HD  NAG B   6      23.214  52.837 107.4690  0.00  0.00     0.000 HD
ATOM     87   C  NAG B   6      23.732  52.390 108.2140  0.00  0.00     0.000 C
ATOM     88   C  NAG B   6      24.206  53.785 108.4710  0.00  0.00     0.000 C
ATOM     89   O  NAG B   6      23.747  51.541 109.0970  0.00  0.00     0.000 OA
ENDBRANCH 80 87
ATOM     90   O  NAG B   6      21.747  47.939 102.2180  0.00  0.00     0.000 O
ATOM     92  HD  NAG B   6      21.712  48.702 102.6260  0.00  0.00     0.000 HD
ATOM     92   O  NAG B   6      21.747  47.939 102.2180  0.00  0.00     0.000 O
ATOM     94  HD  NAG B   6      21.712  48.702 102.6260  0.00  0.00     0.000 HD
ENDBRANCH 78 81
ENDBRANCH 65 78
ENDBRANCH 64 68
ENDBRANCH 48 64
ENDBRANCH 47 50
ENDBRANCH 34 47
ENDBRANCH 33 37
ENDBRANCH 17 33
ENDBRANCH 16 19
ENDBRANCH 1 16
TORSDOF 16
ENDMDL
MODEL 55
REMARK VINA RESULT:      -1.3     63.433     69.108
ROOT
ATOM      1  C1  BDP B   1      39.917  44.799  88.5510  0.00  0.00     0.000 C
ATOM      2  C2  BDP B   1      41.306  45.316  88.2240  0.00  0.00     0.000 C
ATOM      3  C3  BDP B   1      42.034  44.417  87.2470  0.00  0.00     0.000 C
ATOM      4  C4  BDP B   1      41.133  43.414  86.5360  0.00  0.00     0.000 C
ATOM      5  C5  BDP B   1      40.186  42.692  87.4890  0.00  0.00     0.000 C
ATOM      6  O5  BDP B   1      40.029  43.395  88.7340  0.00  0.00     0.000 O
ATOM      7   O  BDP B   1      41.218  46.640  87.6860  0.00  0.00     0.000 O
ATOM      9  HD  BDP B   1      40.895  47.443  87.6940  0.00  0.00     0.000 HD
ATOM      9   O  BDP B   1      43.057  43.677  87.9310  0.00  0.00     0.000 O
ATOM     11  HD  BDP B   1      42.733  44.480  87.9390  0.00  0.00     0.000 HD
ATOM     11   O  BDP B   1      40.379  44.063  85.5050  0.00  0.00     0.000 O
ATOM     13  HD  BDP B   1      40.055  44.866  85.5130  0.00  0.00     0.000 HD
ENDROOT
BRANCH 5 13
ATOM     13   C  BDP B   1      40.761  41.343  87.7440  0.00  0.00     0.000 C
ATOM     14   O  BDP B   1      40.347  40.386  87.0570  0.00  0.00     0.000 OA
ATOM     15   O  BDP B   1      41.652  41.215  88.6110  0.00  0.00     0.000 OA
ENDBRANCH 5 13
BRANCH 1 16
ATOM     16  O3  NAG B   2      38.638  45.409  88.3880  0.00  0.00     0.000 O
BRANCH 16 19
ATOM     17  C1  NAG B   2      36.117  44.602  85.8880  0.00  0.00     0.000 C
ATOM     18  C2  NAG B   2      36.962  44.200  87.0970  0.00  0.00     0.000 C
ATOM     19  C3  NAG B   2      37.276  45.415  87.9580  0.00  0.00     0.000 C
ATOM     20  C4  NAG B   2      36.971  46.724  87.2250  0.00  0.00     0.000 C
ATOM     21  C5  NAG B   2      37.247  46.705  85.7150  0.00  0.00     0.000 C
ATOM     22  O5  NAG B   2      36.965  45.442  85.1010  0.00  0.00     0.000 O
ATOM     23   O  NAG B   2      35.602  47.070  87.4630  0.00  0.00     0.000 O
ATOM     25  HD  NAG B   2      35.311  46.258  87.3870  0.00  0.00     0.000 HD
ATOM     25   C  NAG B   2      38.709  47.074  85.4280  0.00  0.00     0.000 C
ATOM     26   O  NAG B   2      38.896  48.495  85.3640  0.00  0.00     0.000 O
ATOM     28  HD  NAG B   2      38.604  47.683  85.2870  0.00  0.00     0.000 HD
BRANCH 18 30
ATOM     28   N  NAG B   2      35.580  43.744  87.2430  0.00  0.00     0.000 N
ATOM     30  HD  NAG B   2      34.769  44.037  87.3210  0.00  0.00     0.000 HD
ATOM     30   C  NAG B   2      35.081  43.142  88.3320  0.00  0.00     0.000 C
ATOM     31   C  NAG B   2      33.632  42.758  88.2340  0.00  0.00     0.000 C
ATOM     32   O  NAG B   2      35.730  42.923  89.3290  0.00  0.00     0.000 OA
ENDBRANCH 18 30
BRANCH 17 33
ATOM     33  O4  BDP B   3      35.617  44.385  84.5500  0.00  0.00     0.000 O
BRANCH 33 37
ATOM     34  C1  BDP B   3      36.714  41.776  81.3510  0.00  0.00     0.000 C
ATOM     35  C2  BDP B   3      36.452  43.236  81.0010  0.00  0.00     0.000 C
ATOM     36  C3  BDP B   3      36.487  44.169  82.2060  0.00  0.00     0.000 C
ATOM     37  C4  BDP B   3      35.679  43.550  83.3570  0.00  0.00     0.000 C
ATOM     38  C5  BDP B   3      36.277  42.157  83.6380  0.00  0.00     0.000 C
ATOM     39  O5  BDP B   3      35.958  41.363  82.4960  0.00  0.00     0.000 O
ATOM     40   O  BDP B   3      37.422  43.590  80.0140  0.00  0.00     0.000 O
ATOM     42  HD  BDP B   3      36.839  43.185  79.5180  0.00  0.00     0.000 HD
ATOM     42   O  BDP B   3      35.935  45.412  81.7780  0.00  0.00     0.000 O
ATOM     44  HD  BDP B   3      35.351  45.007  81.2830  0.00  0.00     0.000 HD
BRANCH 38 44
ATOM     44   C  BDP B   3      35.753  41.498  84.8760  0.00  0.00     0.000 C
ATOM     45   O  BDP B   3      36.584  41.039  85.6900  0.00  0.00     0.000 OA
ATOM     46   O  BDP B   3      34.519  41.422  85.0620  0.00  0.00     0.000 OA
ENDBRANCH 38 44
BRANCH 34 47
ATOM     47  O3  NAG B   4      35.910  40.888  80.5760  0.00  0.00     0.000 O
BRANCH 47 50
ATOM     48  C1  NAG B   4      37.769  37.624  80.3740  0.00  0.00     0.000 C
ATOM     49  C2  NAG B   4      37.586  39.132  80.3850  0.00  0.00     0.000 C
ATOM     50  C3  NAG B   4      36.117  39.462  80.6290  0.00  0.00     0.000 C
ATOM     51  C4  NAG B   4      35.215  38.780  79.6130  0.00  0.00     0.000 C
ATOM     52  C5  NAG B   4      35.493  37.277  79.5970  0.00  0.00     0.000 C
ATOM     53  O5  NAG B   4      36.891  37.030  79.3980  0.00  0.00     0.000 O
ATOM     54   O  NAG B   4      33.850  39.037  79.9560  0.00  0.00     0.000 O
ATOM     56  HD  NAG B   4      33.939  38.720  79.1550  0.00  0.00     0.000 HD
ATOM     56   C  NAG B   4      34.696  36.578  78.5020  0.00  0.00     0.000 C
ATOM     57   O  NAG B   4      35.064  37.129  77.2310  0.00  0.00     0.000 O
ATOM     59  HD  NAG B   4      35.152  36.811  76.4300  0.00  0.00     0.000 HD
BRANCH 49 61
ATOM     59   N  NAG B   4      38.425  39.366  79.2090  0.00  0.00     0.000 N
ATOM     61  HD  NAG B   4      37.950  39.824  79.7700  0.00  0.00     0.000 HD
ATOM     61   O  NAG B   4      39.480  41.204  79.9890  0.00  0.00     0.000 OA
ATOM     62   C  NAG B   4      39.347  40.333  79.1420  0.00  0.00     0.000 C
ATOM     63   C  NAG B   4      40.252  40.283  77.9510  0.00  0.00     0.000 C
ENDBRANCH 49 61
BRANCH 48 64
ATOM     64  O4  BDP B   5      38.862  36.778  80.7170  0.00  0.00     0.000 O
BRANCH 64 68
ATOM     65  C1  BDP B   5      41.459  37.452  83.9070  0.00  0.00     0.000 C
ATOM     66  C2  BDP B   5      42.073  37.541  82.5160  0.00  0.00     0.000 C
ATOM     67  C3  BDP B   5      40.970  37.705  81.4780  0.00  0.00     0.000 C
ATOM     68  C4  BDP B   5      39.965  36.565  81.5970  0.00  0.00     0.000 C
ATOM     69  C5  BDP B   5      39.432  36.414  83.0160  0.00  0.00     0.000 C
ATOM     70  O5  BDP B   5      40.516  36.370  83.9610  0.00  0.00     0.000 O
ATOM     71   O  BDP B   5      43.009  38.629  82.4720  0.00  0.00     0.000 O
ATOM     73  HD  BDP B   5      43.546  39.308  82.4930  0.00  0.00     0.000 HD
ATOM     73   O  BDP B   5      41.521  37.713  80.1560  0.00  0.00     0.000 O
ATOM     75  HD  BDP B   5      42.059  38.392  80.1780  0.00  0.00     0.000 HD
BRANCH 69 75
ATOM     75   C  BDP B   5      38.646  35.130  83.0930  0.00  0.00     0.000 C
ATOM     76   O  BDP B   5      37.423  35.190  83.3360  0.00  0.00     0.000 OA
ATOM     77   O  BDP B   5      39.235  34.050  82.9080  0.00  0.00     0.000 OA
ENDBRANCH 69 75
BRANCH 65 78
ATOM     78  O3  NAG B   6      41.994  36.743  85.0270  0.00  0.00     0.000 O
BRANCH 78 81
ATOM     79  C1  NAG B   6      42.687  37.622  88.6440  0.00  0.00     0.000 C
ATOM     80  C2  NAG B   6      42.872  37.635  87.1180  0.00  0.00     0.000 C
ATOM     81  C3  NAG B   6      41.746  36.867  86.4450  0.00  0.00     0.000 C
ATOM     82  C4  NAG B   6      41.583  35.477  87.0700  0.00  0.00     0.000 C
ATOM     83  C5  NAG B   6      41.396  35.619  88.5770  0.00  0.00     0.000 C
ATOM     84  O5  NAG B   6      42.560  36.263  89.0980  0.00  0.00     0.000 O
BRANCH 80 87
ATOM     85   N  NAG B   6      43.026  39.040  86.7530  0.00  0.00     0.000 N
ATOM     87  HD  NAG B   6      43.520  39.750  86.7000  0.00  0.00     0.000 HD
ATOM     87   C  NAG B   6      43.831  39.477  85.7770  0.00  0.00     0.000 C
ATOM     88   C  NAG B   6      43.820  40.953  85.5370  0.00  0.00     0.000 C
ATOM     89   O  NAG B   6      44.528  38.729  85.1010  0.00  0.00     0.000 OA
ENDBRANCH 80 87
ATOM     90   O  NAG B   6      39.856  34.210  89.7980  0.00  0.00     0.000 O
ATOM     92  HD  NAG B   6      40.238  34.986  89.7560  0.00  0.00     0.000 HD
ATOM     92   O  NAG B   6      39.856  34.210  89.7980  0.00  0.00     0.000 O
ATOM     94  HD  NAG B   6      40.238  34.986  89.7560  0.00  0.00     0.000 HD
ENDBRANCH 78 81
ENDBRANCH 65 78
ENDBRANCH 64 68
ENDBRANCH 48 64
ENDBRANCH 47 50
ENDBRANCH 34 47
ENDBRANCH 33 37
ENDBRANCH 17 33
ENDBRANCH 16 19
ENDBRANCH 1 16
TORSDOF 16
ENDMDL
MODEL 56
REMARK VINA RESULT:      -1.3     59.327     64.022
ROOT
ATOM      1  C1  BDP B   1      81.716  16.880  41.6300  0.00  0.00     0.000 C
ATOM      2  C2  BDP B   1      81.145  15.483  41.7980  0.00  0.00     0.000 C
ATOM      3  C3  BDP B   1      80.021  15.444  42.8110  0.00  0.00     0.000 C
ATOM      4  C4  BDP B   1      79.466  16.817  43.1760  0.00  0.00     0.000 C
ATOM      5  C5  BDP B   1      80.561  17.837  43.4710  0.00  0.00     0.000 C
ATOM      6  O5  BDP B   1      81.832  17.439  42.9300  0.00  0.00     0.000 O
ATOM      7   O  BDP B   1      80.673  14.995  40.5370  0.00  0.00     0.000 O
ATOM      9  HD  BDP B   1      80.766  14.881  39.6840  0.00  0.00     0.000 HD
ATOM      9   O  BDP B   1      80.475  14.822  44.0230  0.00  0.00     0.000 O
ATOM     11  HD  BDP B   1      80.568  14.708  43.1700  0.00  0.00     0.000 HD
ATOM     11   O  BDP B   1      78.617  17.306  42.1300  0.00  0.00     0.000 O
ATOM     13  HD  BDP B   1      78.710  17.192  41.2770  0.00  0.00     0.000 HD
ENDROOT
BRANCH 5 13
ATOM     13   C  BDP B   1      80.661  17.961  44.9510  0.00  0.00     0.000 C
ATOM     14   O  BDP B   1      80.063  18.907  45.5050  0.00  0.00     0.000 OA
ATOM     15   O  BDP B   1      81.312  17.107  45.5900  0.00  0.00     0.000 OA
ENDBRANCH 5 13
BRANCH 1 16
ATOM     16  O3  NAG B   2      81.817  17.707  40.4720  0.00  0.00     0.000 O
BRANCH 16 19
ATOM     17  C1  NAG B   2      79.787  20.622  39.6780  0.00  0.00     0.000 C
ATOM     18  C2  NAG B   2      80.810  19.923  40.5730  0.00  0.00     0.000 C
ATOM     19  C3  NAG B   2      81.641  18.936  39.7660  0.00  0.00     0.000 C
ATOM     20  C4  NAG B   2      81.018  18.659  38.3950  0.00  0.00     0.000 C
ATOM     21  C5  NAG B   2      79.484  18.644  38.3670  0.00  0.00     0.000 C
ATOM     22  O5  NAG B   2      78.888  19.592  39.2600  0.00  0.00     0.000 O
ATOM     23   O  NAG B   2      81.511  19.632  37.4680  0.00  0.00     0.000 O
ATOM     25  HD  NAG B   2      81.461  20.292  38.0260  0.00  0.00     0.000 HD
ATOM     25   C  NAG B   2      78.950  17.245  38.7100  0.00  0.00     0.000 C
ATOM     26   O  NAG B   2      78.901  16.397  37.5550  0.00  0.00     0.000 O
ATOM     28  HD  NAG B   2      78.851  17.057  38.1130  0.00  0.00     0.000 HD
BRANCH 18 30
ATOM     28   N  NAG B   2      81.206  21.302  40.2930  0.00  0.00     0.000 N
ATOM     30  HD  NAG B   2      81.474  21.819  39.6520  0.00  0.00     0.000 HD
ATOM     30   C  NAG B   2      82.328  21.885  40.7400  0.00  0.00     0.000 C
ATOM     31   C  NAG B   2      82.505  23.318  40.3230  0.00  0.00     0.000 C
ATOM     32   O  NAG B   2      83.148  21.316  41.4220  0.00  0.00     0.000 OA
ENDBRANCH 18 30
BRANCH 17 33
ATOM     33  O4  BDP B   3      78.554  21.347  39.4720  0.00  0.00     0.000 O
BRANCH 33 37
ATOM     34  C1  BDP B   3      75.096  22.023  41.8850  0.00  0.00     0.000 C
ATOM     35  C2  BDP B   3      74.868  21.499  40.4720  0.00  0.00     0.000 C
ATOM     36  C3  BDP B   3      76.114  20.891  39.8380  0.00  0.00     0.000 C
ATOM     37  C4  BDP B   3      77.315  21.820  40.0750  0.00  0.00     0.000 C
ATOM     38  C5  BDP B   3      77.438  22.030  41.5970  0.00  0.00     0.000 C
ATOM     39  O5  BDP B   3      76.296  22.800  41.9730  0.00  0.00     0.000 O
ATOM     40   O  BDP B   3      73.794  20.560  40.5630  0.00  0.00     0.000 O
ATOM     42  HD  BDP B   3      73.349  21.303  40.5460  0.00  0.00     0.000 HD
ATOM     42   O  BDP B   3      75.831  20.732  38.4490  0.00  0.00     0.000 O
ATOM     44  HD  BDP B   3      75.387  21.475  38.4330  0.00  0.00     0.000 HD
BRANCH 38 44
ATOM     44   C  BDP B   3      78.688  22.733  42.0250  0.00  0.00     0.000 C
ATOM     45   O  BDP B   3      79.435  22.152  42.8420  0.00  0.00     0.000 OA
ATOM     46   O  BDP B   3      78.948  23.866  41.5650  0.00  0.00     0.000 OA
ENDBRANCH 38 44
BRANCH 34 47
ATOM     47  O3  NAG B   4      74.371  23.227  42.1310  0.00  0.00     0.000 O
BRANCH 47 50
ATOM     48  C1  NAG B   4      73.683  23.345  45.8270  0.00  0.00     0.000 C
ATOM     49  C2  NAG B   4      73.833  22.720  44.4510  0.00  0.00     0.000 C
ATOM     50  C3  NAG B   4      74.287  23.784  43.4590  0.00  0.00     0.000 C
ATOM     51  C4  NAG B   4      73.346  24.978  43.4490  0.00  0.00     0.000 C
ATOM     52  C5  NAG B   4      73.179  25.520  44.8690  0.00  0.00     0.000 C
ATOM     53  O5  NAG B   4      72.785  24.469  45.7610  0.00  0.00     0.000 O
ATOM     54   O  NAG B   4      73.879  25.985  42.5840  0.00  0.00     0.000 O
ATOM     56  HD  NAG B   4      73.052  26.130  42.7940  0.00  0.00     0.000 HD
ATOM     56   C  NAG B   4      72.145  26.639  44.9170  0.00  0.00     0.000 C
ATOM     57   O  NAG B   4      70.883  26.129  44.4660  0.00  0.00     0.000 O
ATOM     59  HD  NAG B   4      70.056  26.274  44.6760  0.00  0.00     0.000 HD
BRANCH 49 61
ATOM     59   N  NAG B   4      72.581  21.966  44.5210  0.00  0.00     0.000 N
ATOM     61  HD  NAG B   4      73.231  22.095  43.9640  0.00  0.00     0.000 HD
ATOM     61   O  NAG B   4      73.358  20.060  43.5920  0.00  0.00     0.000 OA
ATOM     62   C  NAG B   4      72.470  20.684  44.1550  0.00  0.00     0.000 C
ATOM     63   C  NAG B   4      71.173  20.022  44.4980  0.00  0.00     0.000 C
ENDBRANCH 49 61
BRANCH 48 64
ATOM     64  O4  BDP B   5      73.818  22.826  47.1470  0.00  0.00     0.000 O
BRANCH 64 68
ATOM     65  C1  BDP B   5      76.521  19.852  48.2510  0.00  0.00     0.000 C
ATOM     66  C2  BDP B   5      75.047  19.483  48.3480  0.00  0.00     0.000 C
ATOM     67  C3  BDP B   5      74.218  20.465  47.5310  0.00  0.00     0.000 C
ATOM     68  C4  BDP B   5      74.490  21.893  47.9910  0.00  0.00     0.000 C
ATOM     69  C5  BDP B   5      75.978  22.222  47.9910  0.00  0.00     0.000 C
ATOM     70  O5  BDP B   5      76.721  21.206  48.6870  0.00  0.00     0.000 O
ATOM     71   O  BDP B   5      74.859  18.131  47.9040  0.00  0.00     0.000 O
ATOM     73  HD  BDP B   5      74.798  17.319  47.6080  0.00  0.00     0.000 HD
ATOM     73   O  BDP B   5      72.820  20.182  47.6710  0.00  0.00     0.000 O
ATOM     75  HD  BDP B   5      72.760  19.370  47.3750  0.00  0.00     0.000 HD
BRANCH 69 75
ATOM     75   C  BDP B   5      76.169  23.548  48.6820  0.00  0.00     0.000 C
ATOM     76   O  BDP B   5      75.864  23.646  49.8880  0.00  0.00     0.000 OA
ATOM     77   O  BDP B   5      76.628  24.506  48.0320  0.00  0.00     0.000 OA
ENDBRANCH 69 75
BRANCH 65 78
ATOM     78  O3  NAG B   6      77.521  19.623  49.2470  0.00  0.00     0.000 O
BRANCH 78 81
ATOM     79  C1  NAG B   6      81.002  18.136  49.1780  0.00  0.00     0.000 C
ATOM     80  C2  NAG B   6      79.467  18.164  49.0990  0.00  0.00     0.000 C
ATOM     81  C3  NAG B   6      78.963  19.597  49.1670  0.00  0.00     0.000 C
ATOM     82  C4  NAG B   6      79.568  20.332  50.3680  0.00  0.00     0.000 C
ATOM     83  C5  NAG B   6      81.088  20.232  50.3100  0.00  0.00     0.000 C
ATOM     84  O5  NAG B   6      81.432  18.847  50.3530  0.00  0.00     0.000 O
BRANCH 80 87
ATOM     85   N  NAG B   6      79.115  17.406  47.9020  0.00  0.00     0.000 N
ATOM     87  HD  NAG B   6      79.005  16.645  47.5030  0.00  0.00     0.000 HD
ATOM     87   C  NAG B   6      78.041  16.613  47.8070  0.00  0.00     0.000 C
ATOM     88   C  NAG B   6      77.839  15.950  46.4810  0.00  0.00     0.000 C
ATOM     89   O  NAG B   6      77.254  16.439  48.7300  0.00  0.00     0.000 OA
ENDBRANCH 80 87
ATOM     90   O  NAG B   6      82.501  22.092  50.9350  0.00  0.00     0.000 O
ATOM     92  HD  NAG B   6      82.420  21.391  50.4340  0.00  0.00     0.000 HD
ATOM     92   O  NAG B   6      82.501  22.092  50.9350  0.00  0.00     0.000 O
ATOM     94  HD  NAG B   6      82.420  21.391  50.4340  0.00  0.00     0.000 HD
ENDBRANCH 78 81
ENDBRANCH 65 78
ENDBRANCH 64 68
ENDBRANCH 48 64
ENDBRANCH 47 50
ENDBRANCH 34 47
ENDBRANCH 33 37
ENDBRANCH 17 33
ENDBRANCH 16 19
ENDBRANCH 1 16
TORSDOF 16
ENDMDL
MODEL 57
REMARK VINA RESULT:      -1.3     59.025     64.696
ROOT
ATOM      1  C1  BDP B   1      63.282  50.618  16.9230  0.00  0.00     0.000 C
ATOM      2  C2  BDP B   1      62.789  49.248  17.3550  0.00  0.00     0.000 C
ATOM      3  C3  BDP B   1      62.169  48.478  16.2090  0.00  0.00     0.000 C
ATOM      4  C4  BDP B   1      62.477  49.057  14.8320  0.00  0.00     0.000 C
ATOM      5  C5  BDP B   1      62.281  50.568  14.7700  0.00  0.00     0.000 C
ATOM      6  O5  BDP B   1      62.284  51.169  16.0760  0.00  0.00     0.000 O
ATOM      7   O  BDP B   1      63.872  48.494  17.9100  0.00  0.00     0.000 O
ATOM      9  HD  BDP B   1      64.571  48.429  18.4170  0.00  0.00     0.000 HD
ATOM      9   O  BDP B   1      60.741  48.444  16.3570  0.00  0.00     0.000 O
ATOM     11  HD  BDP B   1      61.440  48.379  16.8640  0.00  0.00     0.000 HD
ATOM     11   O  BDP B   1      63.814  48.726  14.4390  0.00  0.00     0.000 O
ATOM     13  HD  BDP B   1      64.514  48.661  14.9460  0.00  0.00     0.000 HD
ENDROOT
BRANCH 5 13
ATOM     13   C  BDP B   1      60.972  50.816  14.1060  0.00  0.00     0.000 C
ATOM     14   O  BDP B   1      59.940  50.784  14.8080  0.00  0.00     0.000 OA
ATOM     15   O  BDP B   1      60.949  51.072  12.8830  0.00  0.00     0.000 OA
ENDBRANCH 5 13
BRANCH 1 16
ATOM     16  O3  NAG B   2      64.584  51.195  16.9810  0.00  0.00     0.000 O
BRANCH 16 19
ATOM     17  C1  NAG B   2      66.858  51.778  14.1980  0.00  0.00     0.000 C
ATOM     18  C2  NAG B   2      65.534  52.058  14.9100  0.00  0.00     0.000 C
ATOM     19  C3  NAG B   2      65.692  51.898  16.4150  0.00  0.00     0.000 C
ATOM     20  C4  NAG B   2      66.997  51.182  16.7760  0.00  0.00     0.000 C
ATOM     21  C5  NAG B   2      67.434  50.088  15.7920  0.00  0.00     0.000 C
ATOM     22  O5  NAG B   2      67.122  50.392  14.4280  0.00  0.00     0.000 O
ATOM     23   O  NAG B   2      68.032  52.163  16.9030  0.00  0.00     0.000 O
ATOM     25  HD  NAG B   2      67.773  52.627  16.2190  0.00  0.00     0.000 HD
ATOM     25   C  NAG B   2      66.786  48.744  16.1560  0.00  0.00     0.000 C
ATOM     26   O  NAG B   2      67.544  48.042  17.1510  0.00  0.00     0.000 O
ATOM     28  HD  NAG B   2      67.284  48.506  16.4680  0.00  0.00     0.000 HD
BRANCH 18 30
ATOM     28   N  NAG B   2      66.115  53.290  14.3780  0.00  0.00     0.000 N
ATOM     30  HD  NAG B   2      66.815  53.796  14.4360  0.00  0.00     0.000 HD
ATOM     30   C  NAG B   2      65.651  54.524  14.6210  0.00  0.00     0.000 C
ATOM     31   C  NAG B   2      66.415  55.630  13.9490  0.00  0.00     0.000 C
ATOM     32   O  NAG B   2      64.697  54.750  15.3280  0.00  0.00     0.000 OA
ENDBRANCH 18 30
BRANCH 17 33
ATOM     33  O4  BDP B   3      67.629  51.409  13.0340  0.00  0.00     0.000 O
BRANCH 33 37
ATOM     34  C1  BDP B   3      66.655  49.646   9.2680  0.00  0.00     0.000 C
ATOM     35  C2  BDP B   3      67.849  49.070  10.0190  0.00  0.00     0.000 C
ATOM     36  C3  BDP B   3      67.878  49.441  11.4970  0.00  0.00     0.000 C
ATOM     37  C4  BDP B   3      67.587  50.941  11.6540  0.00  0.00     0.000 C
ATOM     38  C5  BDP B   3      66.231  51.218  10.9760  0.00  0.00     0.000 C
ATOM     39  O5  BDP B   3      66.453  51.030   9.5780  0.00  0.00     0.000 O
ATOM     40   O  BDP B   3      67.803  47.656   9.8170  0.00  0.00     0.000 O
ATOM     42  HD  BDP B   3      68.170  47.906   9.0740  0.00  0.00     0.000 HD
ATOM     42   O  BDP B   3      69.176  49.099  11.9810  0.00  0.00     0.000 O
ATOM     44  HD  BDP B   3      69.542  49.349  11.2370  0.00  0.00     0.000 HD
BRANCH 38 44
ATOM     44   C  BDP B   3      65.684  52.589  11.2220  0.00  0.00     0.000 C
ATOM     45   O  BDP B   3      64.497  52.686  11.6050  0.00  0.00     0.000 OA
ATOM     46   O  BDP B   3      66.414  53.588  11.0420  0.00  0.00     0.000 OA
ENDBRANCH 38 44
BRANCH 34 47
ATOM     47  O3  NAG B   4      67.003  50.056   7.9460  0.00  0.00     0.000 O
BRANCH 47 50
ATOM     48  C1  NAG B   4      63.869  49.860   5.8760  0.00  0.00     0.000 C
ATOM     49  C2  NAG B   4      64.886  49.431   6.9190  0.00  0.00     0.000 C
ATOM     50  C3  NAG B   4      65.991  50.478   7.0090  0.00  0.00     0.000 C
ATOM     51  C4  NAG B   4      66.630  50.736   5.6540  0.00  0.00     0.000 C
ATOM     52  C5  NAG B   4      65.551  51.094   4.6310  0.00  0.00     0.000 C
ATOM     53  O5  NAG B   4      64.526  50.093   4.6150  0.00  0.00     0.000 O
ATOM     54   O  NAG B   4      67.578  51.799   5.7810  0.00  0.00     0.000 O
ATOM     56  HD  NAG B   4      67.662  51.364   5.0370  0.00  0.00     0.000 HD
ATOM     56   C  NAG B   4      66.140  51.237   3.2330  0.00  0.00     0.000 C
ATOM     57   O  NAG B   4      66.744  49.994   2.8500  0.00  0.00     0.000 O
ATOM     59  HD  NAG B   4      66.828  49.559   2.1060  0.00  0.00     0.000 HD
BRANCH 49 61
ATOM     59   N  NAG B   4      64.918  48.037   6.4730  0.00  0.00     0.000 N
ATOM     61  HD  NAG B   4      65.297  48.538   7.0700  0.00  0.00     0.000 HD
ATOM     61   O  NAG B   4      64.980  47.097   8.5260  0.00  0.00     0.000 OA
ATOM     62   C  NAG B   4      64.888  46.994   7.3110  0.00  0.00     0.000 C
ATOM     63   C  NAG B   4      64.711  45.654   6.6710  0.00  0.00     0.000 C
ENDBRANCH 49 61
BRANCH 48 64
ATOM     64  O4  BDP B   5      62.471  49.628   5.7330  0.00  0.00     0.000 O
BRANCH 64 68
ATOM     65  C1  BDP B   5      59.765  49.480   8.9000  0.00  0.00     0.000 C
ATOM     66  C2  BDP B   5      59.959  48.182   8.1270  0.00  0.00     0.000 C
ATOM     67  C3  BDP B   5      61.245  48.256   7.3140  0.00  0.00     0.000 C
ATOM     68  C4  BDP B   5      61.219  49.478   6.4020  0.00  0.00     0.000 C
ATOM     69  C5  BDP B   5      60.921  50.760   7.1670  0.00  0.00     0.000 C
ATOM     70  O5  BDP B   5      59.757  50.596   7.9960  0.00  0.00     0.000 O
ATOM     71   O  BDP B   5      59.972  47.074   9.0400  0.00  0.00     0.000 O
ATOM     73  HD  BDP B   5      59.992  46.445   9.6350  0.00  0.00     0.000 HD
ATOM     73   O  BDP B   5      61.407  47.076   6.5190  0.00  0.00     0.000 O
ATOM     75  HD  BDP B   5      61.427  46.447   7.1140  0.00  0.00     0.000 HD
BRANCH 69 75
ATOM     75   C  BDP B   5      60.675  51.862   6.1670  0.00  0.00     0.000 C
ATOM     76   O  BDP B   5      59.692  51.771   5.4040  0.00  0.00     0.000 OA
ATOM     77   O  BDP B   5      61.456  52.831   6.1340  0.00  0.00     0.000 OA
ENDBRANCH 69 75
BRANCH 65 78
ATOM     78  O3  NAG B   6      58.516  50.065   9.2760  0.00  0.00     0.000 O
BRANCH 78 81
ATOM     79  C1  NAG B   6      57.102  51.406  12.5220  0.00  0.00     0.000 C
ATOM     80  C2  NAG B   6      57.604  50.358  11.5170  0.00  0.00     0.000 C
ATOM     81  C3  NAG B   6      58.183  51.041  10.2880  0.00  0.00     0.000 C
ATOM     82  C4  NAG B   6      57.198  52.068   9.7200  0.00  0.00     0.000 C
ATOM     83  C5  NAG B   6      56.798  53.047  10.8180  0.00  0.00     0.000 C
ATOM     84  O5  NAG B   6      56.181  52.295  11.8640  0.00  0.00     0.000 O
BRANCH 80 87
ATOM     85   N  NAG B   6      58.503  49.488  12.2700  0.00  0.00     0.000 N
ATOM     87  HD  NAG B   6      58.621  48.836  12.8280  0.00  0.00     0.000 HD
ATOM     87   C  NAG B   6      58.611  48.168  12.0690  0.00  0.00     0.000 C
ATOM     88   C  NAG B   6      59.616  47.462  12.9220  0.00  0.00     0.000 C
ATOM     89   O  NAG B   6      57.948  47.563  11.2350  0.00  0.00     0.000 OA
ENDBRANCH 80 87
ATOM     90   O  NAG B   6      56.500  55.403  10.3650  0.00  0.00     0.000 O
ATOM     92  HD  NAG B   6      56.726  54.810  10.9540  0.00  0.00     0.000 HD
ATOM     92   O  NAG B   6      56.500  55.403  10.3650  0.00  0.00     0.000 O
ATOM     94  HD  NAG B   6      56.726  54.810  10.9540  0.00  0.00     0.000 HD
ENDBRANCH 78 81
ENDBRANCH 65 78
ENDBRANCH 64 68
ENDBRANCH 48 64
ENDBRANCH 47 50
ENDBRANCH 34 47
ENDBRANCH 33 37
ENDBRANCH 17 33
ENDBRANCH 16 19
ENDBRANCH 1 16
TORSDOF 16
ENDMDL
MODEL 58
REMARK VINA RESULT:      -1.3     61.652     68.559
ROOT
ATOM      1  C1  BDP B   1      69.581  42.284  22.0710  0.00  0.00     0.000 C
ATOM      2  C2  BDP B   1      69.747  41.101  23.0070  0.00  0.00     0.000 C
ATOM      3  C3  BDP B   1      71.130  41.050  23.6210  0.00  0.00     0.000 C
ATOM      4  C4  BDP B   1      71.925  42.342  23.4700  0.00  0.00     0.000 C
ATOM      5  C5  BDP B   1      71.873  42.904  22.0520  0.00  0.00     0.000 C
ATOM      6  O5  BDP B   1      70.770  42.373  21.2990  0.00  0.00     0.000 O
ATOM      7   O  BDP B   1      68.762  41.158  24.0440  0.00  0.00     0.000 O
ATOM      9  HD  BDP B   1      67.949  41.288  24.3130  0.00  0.00     0.000 HD
ATOM      9   O  BDP B   1      71.895  39.994  23.0200  0.00  0.00     0.000 O
ATOM     11  HD  BDP B   1      71.082  40.124  23.2890  0.00  0.00     0.000 HD
ATOM     11   O  BDP B   1      71.458  43.328  24.3980  0.00  0.00     0.000 O
ATOM     13  HD  BDP B   1      70.645  43.458  24.6670  0.00  0.00     0.000 HD
ENDROOT
BRANCH 5 13
ATOM     13   C  BDP B   1      73.155  42.543  21.3880  0.00  0.00     0.000 C
ATOM     14   O  BDP B   1      74.059  43.403  21.3450  0.00  0.00     0.000 OA
ATOM     15   O  BDP B   1      73.295  41.392  20.9210  0.00  0.00     0.000 OA
ENDBRANCH 5 13
BRANCH 1 16
ATOM     16  O3  NAG B   2      68.653  43.367  22.1010  0.00  0.00     0.000 O
BRANCH 16 19
ATOM     17  C1  NAG B   2      69.327  46.819  23.0390  0.00  0.00     0.000 C
ATOM     18  C2  NAG B   2      69.552  45.631  22.1040  0.00  0.00     0.000 C
ATOM     19  C3  NAG B   2      68.311  44.753  22.0460  0.00  0.00     0.000 C
ATOM     20  C4  NAG B   2      67.327  45.087  23.1690  0.00  0.00     0.000 C
ATOM     21  C5  NAG B   2      67.972  45.495  24.5010  0.00  0.00     0.000 C
ATOM     22  O5  NAG B   2      69.180  46.249  24.3410  0.00  0.00     0.000 O
ATOM     23   O  NAG B   2      66.454  46.127  22.7150  0.00  0.00     0.000 O
ATOM     25  HD  NAG B   2      67.079  46.572  22.3130  0.00  0.00     0.000 HD
ATOM     25   C  NAG B   2      68.276  44.257  25.3570  0.00  0.00     0.000 C
ATOM     26   O  NAG B   2      67.136  43.849  26.1250  0.00  0.00     0.000 O
ATOM     28  HD  NAG B   2      67.761  44.295  25.7240  0.00  0.00     0.000 HD
BRANCH 18 30
ATOM     28   N  NAG B   2      69.333  46.865  21.3500  0.00  0.00     0.000 N
ATOM     30  HD  NAG B   2      68.718  47.439  21.1440  0.00  0.00     0.000 HD
ATOM     30   C  NAG B   2      69.362  46.963  20.0130  0.00  0.00     0.000 C
ATOM     31   C  NAG B   2      69.115  48.344  19.4750  0.00  0.00     0.000 C
ATOM     32   O  NAG B   2      69.562  46.022  19.2800  0.00  0.00     0.000 OA
ENDBRANCH 18 30
BRANCH 17 33
ATOM     33  O4  BDP B   3      69.806  47.876  23.8990  0.00  0.00     0.000 O
BRANCH 33 37
ATOM     34  C1  BDP B   3      73.568  48.696  25.7470  0.00  0.00     0.000 C
ATOM     35  C2  BDP B   3      72.334  48.714  26.6410  0.00  0.00     0.000 C
ATOM     36  C3  BDP B   3      71.126  48.014  26.0280  0.00  0.00     0.000 C
ATOM     37  C4  BDP B   3      70.961  48.461  24.5680  0.00  0.00     0.000 C
ATOM     38  C5  BDP B   3      72.285  48.151  23.8430  0.00  0.00     0.000 C
ATOM     39  O5  BDP B   3      73.247  49.049  24.3960  0.00  0.00     0.000 O
ATOM     40   O  BDP B   3      72.731  48.123  27.8800  0.00  0.00     0.000 O
ATOM     42  HD  BDP B   3      73.035  48.927  27.9880  0.00  0.00     0.000 HD
ATOM     42   O  BDP B   3      69.998  48.373  26.8240  0.00  0.00     0.000 O
ATOM     44  HD  BDP B   3      70.302  49.177  26.9310  0.00  0.00     0.000 HD
BRANCH 38 44
ATOM     44   C  BDP B   3      72.230  48.320  22.3560  0.00  0.00     0.000 C
ATOM     45   O  BDP B   3      72.530  47.336  21.6440  0.00  0.00     0.000 OA
ATOM     46   O  BDP B   3      71.894  49.422  21.8710  0.00  0.00     0.000 OA
ENDBRANCH 38 44
BRANCH 34 47
ATOM     47  O3  NAG B   4      74.303  49.916  25.8270  0.00  0.00     0.000 O
BRANCH 47 50
ATOM     48  C1  NAG B   4      77.887  49.087  25.0380  0.00  0.00     0.000 C
ATOM     49  C2  NAG B   4      76.506  48.896  25.6420  0.00  0.00     0.000 C
ATOM     50  C3  NAG B   4      75.601  50.043  25.2090  0.00  0.00     0.000 C
ATOM     51  C4  NAG B   4      76.201  51.394  25.5620  0.00  0.00     0.000 C
ATOM     52  C5  NAG B   4      77.614  51.500  24.9880  0.00  0.00     0.000 C
ATOM     53  O5  NAG B   4      78.407  50.380  25.4020  0.00  0.00     0.000 O
ATOM     54   O  NAG B   4      75.363  52.427  25.0370  0.00  0.00     0.000 O
ATOM     56  HD  NAG B   4      75.939  52.724  25.6120  0.00  0.00     0.000 HD
ATOM     56   C  NAG B   4      78.294  52.791  25.4280  0.00  0.00     0.000 C
ATOM     57   O  NAG B   4      78.375  52.813  26.8590  0.00  0.00     0.000 O
ATOM     59  HD  NAG B   4      78.951  53.110  27.4340  0.00  0.00     0.000 HD
BRANCH 49 61
ATOM     59   N  NAG B   4      76.998  48.538  26.9740  0.00  0.00     0.000 N
ATOM     61  HD  NAG B   4      76.241  48.642  26.5670  0.00  0.00     0.000 HD
ATOM     61   O  NAG B   4      75.533  46.865  27.3650  0.00  0.00     0.000 OA
ATOM     62   C  NAG B   4      76.519  47.511  27.6860  0.00  0.00     0.000 C
ATOM     63   C  NAG B   4      77.286  47.168  28.9230  0.00  0.00     0.000 C
ENDBRANCH 49 61
BRANCH 48 64
ATOM     64  O4  BDP B   5      78.908  48.175  24.6450  0.00  0.00     0.000 O
BRANCH 64 68
ATOM     65  C1  BDP B   5      78.205  44.388  23.0510  0.00  0.00     0.000 C
ATOM     66  C2  BDP B   5      78.876  44.423  24.4180  0.00  0.00     0.000 C
ATOM     67  C3  BDP B   5      78.680  45.794  25.0510  0.00  0.00     0.000 C
ATOM     68  C4  BDP B   5      79.203  46.882  24.1190  0.00  0.00     0.000 C
ATOM     69  C5  BDP B   5      78.606  46.777  22.7220  0.00  0.00     0.000 C
ATOM     70  O5  BDP B   5      78.727  45.435  22.2190  0.00  0.00     0.000 O
ATOM     71   O  BDP B   5      78.342  43.376  25.2440  0.00  0.00     0.000 O
ATOM     73  HD  BDP B   5      77.972  42.743  25.7050  0.00  0.00     0.000 HD
ATOM     73   O  BDP B   5      79.369  45.873  26.3040  0.00  0.00     0.000 O
ATOM     75  HD  BDP B   5      79.000  45.240  26.7650  0.00  0.00     0.000 HD
BRANCH 69 75
ATOM     75   C  BDP B   5      79.352  47.724  21.8160  0.00  0.00     0.000 C
ATOM     76   O  BDP B   5      78.732  48.676  21.3020  0.00  0.00     0.000 OA
ATOM     77   O  BDP B   5      80.565  47.531  21.6100  0.00  0.00     0.000 OA
ENDBRANCH 69 75
BRANCH 65 78
ATOM     78  O3  NAG B   6      78.609  43.602  21.9270  0.00  0.00     0.000 O
BRANCH 78 81
ATOM     79  C1  NAG B   6      76.778  41.325  19.5190  0.00  0.00     0.000 C
ATOM     80  C2  NAG B   6      77.384  41.790  20.8530  0.00  0.00     0.000 C
ATOM     81  C3  NAG B   6      77.903  43.213  20.7290  0.00  0.00     0.000 C
ATOM     82  C4  NAG B   6      78.822  43.354  19.5110  0.00  0.00     0.000 C
ATOM     83  C5  NAG B   6      78.089  42.871  18.2640  0.00  0.00     0.000 C
ATOM     84  O5  NAG B   6      77.746  41.500  18.4690  0.00  0.00     0.000 O
BRANCH 80 87
ATOM     85   N  NAG B   6      76.354  41.552  21.8600  0.00  0.00     0.000 N
ATOM     87  HD  NAG B   6      75.926  41.007  22.3800  0.00  0.00     0.000 HD
ATOM     87   C  NAG B   6      76.608  41.152  23.1120  0.00  0.00     0.000 C
ATOM     88   C  NAG B   6      75.414  41.000  24.0000  0.00  0.00     0.000 C
ATOM     89   O  NAG B   6      77.740  40.933  23.5270  0.00  0.00     0.000 OA
ENDBRANCH 80 87
ATOM     90   O  NAG B   6      78.333  43.997  16.1380  0.00  0.00     0.000 O
ATOM     92  HD  NAG B   6      77.808  43.532  16.6470  0.00  0.00     0.000 HD
ATOM     92   O  NAG B   6      78.333  43.997  16.1380  0.00  0.00     0.000 O
ATOM     94  HD  NAG B   6      77.808  43.532  16.6470  0.00  0.00     0.000 HD
ENDBRANCH 78 81
ENDBRANCH 65 78
ENDBRANCH 64 68
ENDBRANCH 48 64
ENDBRANCH 47 50
ENDBRANCH 34 47
ENDBRANCH 33 37
ENDBRANCH 17 33
ENDBRANCH 16 19
ENDBRANCH 1 16
TORSDOF 16
ENDMDL
MODEL 59
REMARK VINA RESULT:      -1.3    108.302    115.004
ROOT
ATOM      1  C1  BDP B   1      78.066  98.339  13.2510  0.00  0.00     0.000 C
ATOM      2  C2  BDP B   1      78.418  97.397  12.1140  0.00  0.00     0.000 C
ATOM      3  C3  BDP B   1      79.335  98.046  11.0990  0.00  0.00     0.000 C
ATOM      4  C4  BDP B   1      79.986  99.336  11.5860  0.00  0.00     0.000 C
ATOM      5  C5  BDP B   1      78.994 100.283  12.2530  0.00  0.00     0.000 C
ATOM      6  O5  BDP B   1      77.796  99.607  12.6710  0.00  0.00     0.000 O
ATOM      7   O  BDP B   1      79.038  96.216  12.6350  0.00  0.00     0.000 O
ATOM      9  HD  BDP B   1      79.081  95.573  13.2140  0.00  0.00     0.000 HD
ATOM      9   O  BDP B   1      78.602  98.352   9.9020  0.00  0.00     0.000 O
ATOM     11  HD  BDP B   1      78.646  97.709  10.4810  0.00  0.00     0.000 HD
ATOM     11   O  BDP B   1      81.058  99.044  12.4900  0.00  0.00     0.000 O
ATOM     13  HD  BDP B   1      81.102  98.401  13.0690  0.00  0.00     0.000 HD
ENDROOT
BRANCH 5 13
ATOM     13   C  BDP B   1      78.654 101.337  11.2580  0.00  0.00     0.000 C
ATOM     14   O  BDP B   1      79.249 102.432  11.3330  0.00  0.00     0.000 OA
ATOM     15   O  BDP B   1      77.810 101.086  10.3700  0.00  0.00     0.000 OA
ENDBRANCH 5 13
BRANCH 1 16
ATOM     16  O3  NAG B   2      78.272  98.214  14.6570  0.00  0.00     0.000 O
BRANCH 16 19
ATOM     17  C1  NAG B   2      80.731  99.969  16.6870  0.00  0.00     0.000 C
ATOM     18  C2  NAG B   2      79.496  99.991  15.7860  0.00  0.00     0.000 C
ATOM     19  C3  NAG B   2      78.707  98.698  15.9280  0.00  0.00     0.000 C
ATOM     20  C4  NAG B   2      79.518  97.615  16.6440  0.00  0.00     0.000 C
ATOM     21  C5  NAG B   2      81.022  97.619  16.3410  0.00  0.00     0.000 C
ATOM     22  O5  NAG B   2      81.562  98.933  16.1590  0.00  0.00     0.000 O
ATOM     23   O  NAG B   2      79.307  97.746  18.0540  0.00  0.00     0.000 O
ATOM     25  HD  NAG B   2      79.337  98.612  18.0480  0.00  0.00     0.000 HD
ATOM     25   C  NAG B   2      81.324  96.787  15.0870  0.00  0.00     0.000 C
ATOM     26   O  NAG B   2      81.471  95.394  15.3960  0.00  0.00     0.000 O
ATOM     28  HD  NAG B   2      81.501  96.259  15.3910  0.00  0.00     0.000 HD
BRANCH 18 30
ATOM     28   N  NAG B   2      79.305 100.831  16.9680  0.00  0.00     0.000 N
ATOM     30  HD  NAG B   2      79.187 100.787  17.8250  0.00  0.00     0.000 HD
ATOM     30   C  NAG B   2      78.210 101.562  17.2220  0.00  0.00     0.000 C
ATOM     31   C  NAG B   2      78.258 102.350  18.5000  0.00  0.00     0.000 C
ATOM     32   O  NAG B   2      77.246 101.592  16.4930  0.00  0.00     0.000 OA
ENDBRANCH 18 30
BRANCH 17 33
ATOM     33  O4  BDP B   3      82.056 100.416  17.0490  0.00  0.00     0.000 O
BRANCH 33 37
ATOM     34  C1  BDP B   3      85.104 102.581  14.9840  0.00  0.00     0.000 C
ATOM     35  C2  BDP B   3      85.510 101.274  15.6540  0.00  0.00     0.000 C
ATOM     36  C3  BDP B   3      84.331 100.368  15.9920  0.00  0.00     0.000 C
ATOM     37  C4  BDP B   3      83.219 101.199  16.6510  0.00  0.00     0.000 C
ATOM     38  C5  BDP B   3      82.861 102.338  15.6770  0.00  0.00     0.000 C
ATOM     39  O5  BDP B   3      84.000 103.199  15.6560  0.00  0.00     0.000 O
ATOM     40   O  BDP B   3      86.441 100.645  14.7720  0.00  0.00     0.000 O
ATOM     42  HD  BDP B   3      86.962 101.213  15.1670  0.00  0.00     0.000 HD
ATOM     42   O  BDP B   3      84.828  99.358  16.8670  0.00  0.00     0.000 O
ATOM     44  HD  BDP B   3      85.350  99.925  17.2620  0.00  0.00     0.000 HD
BRANCH 38 44
ATOM     44   C  BDP B   3      81.643 103.119  16.0600  0.00  0.00     0.000 C
ATOM     45   O  BDP B   3      80.708 103.187  15.2320  0.00  0.00     0.000 OA
ATOM     46   O  BDP B   3      81.591 103.676  17.1780  0.00  0.00     0.000 OA
ENDBRANCH 38 44
BRANCH 34 47
ATOM     47  O3  NAG B   4      85.905 103.677  15.4200  0.00  0.00     0.000 O
BRANCH 47 50
ATOM     48  C1  NAG B   4      85.947 106.186  12.6170  0.00  0.00     0.000 C
ATOM     49  C2  NAG B   4      85.973 104.813  13.2680  0.00  0.00     0.000 C
ATOM     50  C3  NAG B   4      85.815 104.965  14.7760  0.00  0.00     0.000 C
ATOM     51  C4  NAG B   4      86.866 105.897  15.3580  0.00  0.00     0.000 C
ATOM     52  C5  NAG B   4      86.840 107.235  14.6180  0.00  0.00     0.000 C
ATOM     53  O5  NAG B   4      86.958 107.027  13.2050  0.00  0.00     0.000 O
ATOM     54   O  NAG B   4      86.603 106.085  16.7510  0.00  0.00     0.000 O
ATOM     56  HD  NAG B   4      87.392 106.358  16.5210  0.00  0.00     0.000 HD
ATOM     56   C  NAG B   4      87.964 108.151  15.0900  0.00  0.00     0.000 C
ATOM     57   O  NAG B   4      89.223 107.512  14.8430  0.00  0.00     0.000 O
ATOM     59  HD  NAG B   4      90.012 107.785  14.6130  0.00  0.00     0.000 HD
BRANCH 49 61
ATOM     59   N  NAG B   4      87.109 104.323  12.4860  0.00  0.00     0.000 N
ATOM     61  HD  NAG B   4      86.579 104.040  13.1100  0.00  0.00     0.000 HD
ATOM     61   O  NAG B   4      86.303 102.248  12.1060  0.00  0.00     0.000 OA
ATOM     62   C  NAG B   4      87.144 103.114  11.9140  0.00  0.00     0.000 C
ATOM     63   C  NAG B   4      88.288 102.873  10.9810  0.00  0.00     0.000 C
ENDBRANCH 49 61
BRANCH 48 64
ATOM     64  O4  BDP B   5      85.529 106.643  11.3340  0.00  0.00     0.000 O
BRANCH 64 68
ATOM     65  C1  BDP B   5      82.360 105.022   9.1670  0.00  0.00     0.000 C
ATOM     66  C2  BDP B   5      83.745 104.839   8.5610  0.00  0.00     0.000 C
ATOM     67  C3  BDP B   5      84.806 105.079   9.6260  0.00  0.00     0.000 C
ATOM     68  C4  BDP B   5      84.622 106.459  10.2490  0.00  0.00     0.000 C
ATOM     69  C5  BDP B   5      83.203 106.674  10.7590  0.00  0.00     0.000 C
ATOM     70  O5  BDP B   5      82.243 106.331   9.7450  0.00  0.00     0.000 O
ATOM     71   O  BDP B   5      83.852 103.525   7.9920  0.00  0.00     0.000 O
ATOM     73  HD  BDP B   5      83.870 102.716   7.6830  0.00  0.00     0.000 HD
ATOM     73   O  BDP B   5      86.118 104.989   9.0590  0.00  0.00     0.000 O
ATOM     75  HD  BDP B   5      86.137 104.180   8.7500  0.00  0.00     0.000 HD
BRANCH 69 75
ATOM     75   C  BDP B   5      83.048 108.128  11.1290  0.00  0.00     0.000 C
ATOM     76   O  BDP B   5      82.823 108.423  12.3200  0.00  0.00     0.000 OA
ATOM     77   O  BDP B   5      83.153 108.991  10.2380  0.00  0.00     0.000 OA
ENDBRANCH 69 75
BRANCH 65 78
ATOM     78  O3  NAG B   6      81.186 105.466   8.4820  0.00  0.00     0.000 O
BRANCH 78 81
ATOM     79  C1  NAG B   6      77.618 104.212   8.2960  0.00  0.00     0.000 C
ATOM     80  C2  NAG B   6      79.137 104.216   8.0610  0.00  0.00     0.000 C
ATOM     81  C3  NAG B   6      79.785 105.363   8.8190  0.00  0.00     0.000 C
ATOM     82  C4  NAG B   6      79.075 106.687   8.5170  0.00  0.00     0.000 C
ATOM     83  C5  NAG B   6      77.585 106.540   8.8070  0.00  0.00     0.000 C
ATOM     84  O5  NAG B   6      77.081 105.504   7.9630  0.00  0.00     0.000 O
BRANCH 80 87
ATOM     85   N  NAG B   6      79.593 102.869   8.3930  0.00  0.00     0.000 N
ATOM     87  HD  NAG B   6      79.681 102.034   8.1790  0.00  0.00     0.000 HD
ATOM     87   C  NAG B   6      80.573 102.228   7.7430  0.00  0.00     0.000 C
ATOM     88   C  NAG B   6      80.914 100.867   8.2620  0.00  0.00     0.000 C
ATOM     89   O  NAG B   6      81.173 102.714   6.7920  0.00  0.00     0.000 OA
ENDBRANCH 80 87
ATOM     90   O  NAG B   6      76.311 108.332   9.8140  0.00  0.00     0.000 O
ATOM     92  HD  NAG B   6      76.394 107.474   9.7240  0.00  0.00     0.000 HD
ATOM     92   O  NAG B   6      76.311 108.332   9.8140  0.00  0.00     0.000 O
ATOM     94  HD  NAG B   6      76.394 107.474   9.7240  0.00  0.00     0.000 HD
ENDBRANCH 78 81
ENDBRANCH 65 78
ENDBRANCH 64 68
ENDBRANCH 48 64
ENDBRANCH 47 50
ENDBRANCH 34 47
ENDBRANCH 33 37
ENDBRANCH 17 33
ENDBRANCH 16 19
ENDBRANCH 1 16
TORSDOF 16
ENDMDL
MODEL 60
REMARK VINA RESULT:      -1.3     96.231    100.621
ROOT
ATOM      1  C1  BDP B   1      79.916  85.937  59.6110  0.00  0.00     0.000 C
ATOM      2  C2  BDP B   1      78.690  86.803  59.8430  0.00  0.00     0.000 C
ATOM      3  C3  BDP B   1      77.506  85.997  60.3300  0.00  0.00     0.000 C
ATOM      4  C4  BDP B   1      77.865  84.598  60.8200  0.00  0.00     0.000 C
ATOM      5  C5  BDP B   1      78.795  83.859  59.8620  0.00  0.00     0.000 C
ATOM      6  O5  BDP B   1      79.471  84.754  58.9630  0.00  0.00     0.000 O
ATOM      7   O  BDP B   1      78.994  87.833  60.7900  0.00  0.00     0.000 O
ATOM      9  HD  BDP B   1      79.518  88.448  61.1020  0.00  0.00     0.000 HD
ATOM      9   O  BDP B   1      76.542  85.855  59.2750  0.00  0.00     0.000 O
ATOM     11  HD  BDP B   1      77.066  86.470  59.5870  0.00  0.00     0.000 HD
ATOM     11   O  BDP B   1      78.463  84.662  62.1210  0.00  0.00     0.000 O
ATOM     13  HD  BDP B   1      78.987  85.277  62.4320  0.00  0.00     0.000 HD
ENDROOT
BRANCH 5 13
ATOM     13   C  BDP B   1      77.958  82.904  59.0850  0.00  0.00     0.000 C
ATOM     14   O  BDP B   1      77.925  81.712  59.4560  0.00  0.00     0.000 OA
ATOM     15   O  BDP B   1      77.299  83.326  58.1110  0.00  0.00     0.000 OA
ENDBRANCH 5 13
BRANCH 1 16
ATOM     16  O3  NAG B   2      81.220  86.003  60.1840  0.00  0.00     0.000 O
BRANCH 16 19
ATOM     17  C1  NAG B   2      82.642  83.773  62.6860  0.00  0.00     0.000 C
ATOM     18  C2  NAG B   2      82.078  84.006  61.2840  0.00  0.00     0.000 C
ATOM     19  C3  NAG B   2      82.361  85.428  60.8230  0.00  0.00     0.000 C
ATOM     20  C4  NAG B   2      82.810  86.322  61.9820  0.00  0.00     0.000 C
ATOM     21  C5  NAG B   2      82.142  86.023  63.3320  0.00  0.00     0.000 C
ATOM     22  O5  NAG B   2      81.883  84.630  63.5430  0.00  0.00     0.000 O
ATOM     23   O  NAG B   2      84.232  86.219  62.1110  0.00  0.00     0.000 O
ATOM     25  HD  NAG B   2      84.253  85.365  61.9700  0.00  0.00     0.000 HD
ATOM     25   C  NAG B   2      80.821  86.793  63.4640  0.00  0.00     0.000 C
ATOM     26   O  NAG B   2      81.029  88.126  63.9510  0.00  0.00     0.000 O
ATOM     28  HD  NAG B   2      81.050  87.272  63.8100  0.00  0.00     0.000 HD
BRANCH 18 30
ATOM     28   N  NAG B   2      83.303  83.208  61.2370  0.00  0.00     0.000 N
ATOM     30  HD  NAG B   2      84.159  83.264  61.3490  0.00  0.00     0.000 HD
ATOM     30   C  NAG B   2      83.849  82.705  60.1210  0.00  0.00     0.000 C
ATOM     31   C  NAG B   2      85.105  81.909  60.3350  0.00  0.00     0.000 C
ATOM     32   O  NAG B   2      83.384  82.874  59.0170  0.00  0.00     0.000 OA
ENDBRANCH 18 30
BRANCH 17 33
ATOM     33  O4  BDP B   3      82.681  83.069  63.9470  0.00  0.00     0.000 O
BRANCH 33 37
ATOM     34  C1  BDP B   3      80.008  80.367  65.8960  0.00  0.00     0.000 C
ATOM     35  C2  BDP B   3      80.506  81.560  66.7040  0.00  0.00     0.000 C
ATOM     36  C3  BDP B   3      81.089  82.677  65.8470  0.00  0.00     0.000 C
ATOM     37  C4  BDP B   3      82.036  82.076  64.7970  0.00  0.00     0.000 C
ATOM     38  C5  BDP B   3      81.228  81.041  63.9920  0.00  0.00     0.000 C
ATOM     39  O5  BDP B   3      80.958  79.972  64.8990  0.00  0.00     0.000 O
ATOM     40   O  BDP B   3      79.395  82.003  67.4870  0.00  0.00     0.000 O
ATOM     42  HD  BDP B   3      79.670  81.339  67.9700  0.00  0.00     0.000 HD
ATOM     42   O  BDP B   3      81.773  83.560  66.7350  0.00  0.00     0.000 O
ATOM     44  HD  BDP B   3      82.048  82.896  67.2180  0.00  0.00     0.000 HD
BRANCH 38 44
ATOM     44   C  BDP B   3      81.932  80.512  62.7810  0.00  0.00     0.000 C
ATOM     45   O  BDP B   3      81.366  80.640  61.6730  0.00  0.00     0.000 OA
ATOM     46   O  BDP B   3      83.048  79.964  62.9050  0.00  0.00     0.000 OA
ENDBRANCH 38 44
BRANCH 34 47
ATOM     47  O3  NAG B   4      80.275  79.129  66.5530  0.00  0.00     0.000 O
BRANCH 47 50
ATOM     48  C1  NAG B   4      77.650  76.694  65.4010  0.00  0.00     0.000 C
ATOM     49  C2  NAG B   4      78.219  78.026  65.8560  0.00  0.00     0.000 C
ATOM     50  C3  NAG B   4      79.724  77.892  66.0560  0.00  0.00     0.000 C
ATOM     51  C4  NAG B   4      80.062  76.764  67.0170  0.00  0.00     0.000 C
ATOM     52  C5  NAG B   4      79.405  75.466  66.5460  0.00  0.00     0.000 C
ATOM     53  O5  NAG B   4      78.000  75.662  66.3440  0.00  0.00     0.000 O
ATOM     54   O  NAG B   4      81.483  76.616  67.0810  0.00  0.00     0.000 O
ATOM     56  HD  NAG B   4      81.075  76.195  67.7180  0.00  0.00     0.000 HD
ATOM     56   C  NAG B   4      79.618  74.341  67.5520  0.00  0.00     0.000 C
ATOM     57   O  NAG B   4      79.041  74.721  68.8090  0.00  0.00     0.000 O
ATOM     59  HD  NAG B   4      78.633  74.300  69.4460  0.00  0.00     0.000 HD
BRANCH 49 61
ATOM     59   N  NAG B   4      77.161  78.290  66.8310  0.00  0.00     0.000 N
ATOM     61  HD  NAG B   4      77.885  78.666  66.5400  0.00  0.00     0.000 HD
ATOM     61   O  NAG B   4      76.912  80.488  66.3740  0.00  0.00     0.000 OA
ATOM     62   C  NAG B   4      76.551  79.475  66.9550  0.00  0.00     0.000 C
ATOM     63   C  NAG B   4      75.354  79.496  67.8520  0.00  0.00     0.000 C
ENDBRANCH 49 61
BRANCH 48 64
ATOM     64  O4  BDP B   5      76.530  76.343  64.5930  0.00  0.00     0.000 O
BRANCH 64 68
ATOM     65  C1  BDP B   5      75.157  78.583  61.3580  0.00  0.00     0.000 C
ATOM     66  C2  BDP B   5      74.218  78.495  62.5540  0.00  0.00     0.000 C
ATOM     67  C3  BDP B   5      74.995  78.037  63.7820  0.00  0.00     0.000 C
ATOM     68  C4  BDP B   5      75.697  76.714  63.4960  0.00  0.00     0.000 C
ATOM     69  C5  BDP B   5      76.553  76.778  62.2370  0.00  0.00     0.000 C
ATOM     70  O5  BDP B   5      75.796  77.316  61.1380  0.00  0.00     0.000 O
ATOM     71   O  BDP B   5      73.590  79.768  62.7680  0.00  0.00     0.000 O
ATOM     73  HD  BDP B   5      73.255  80.560  62.8650  0.00  0.00     0.000 HD
ATOM     73   O  BDP B   5      74.116  77.873  64.9010  0.00  0.00     0.000 O
ATOM     75  HD  BDP B   5      73.781  78.666  64.9980  0.00  0.00     0.000 HD
BRANCH 69 75
ATOM     75   C  BDP B   5      77.006  75.380  61.9010  0.00  0.00     0.000 C
ATOM     76   O  BDP B   5      78.226  75.122  61.9290  0.00  0.00     0.000 OA
ATOM     77   O  BDP B   5      76.151  74.523  61.6080  0.00  0.00     0.000 OA
ENDBRANCH 69 75
BRANCH 65 78
ATOM     78  O3  NAG B   6      74.804  78.387  59.9860  0.00  0.00     0.000 O
BRANCH 78 81
ATOM     79  C1  NAG B   6      75.461  80.325  56.8010  0.00  0.00     0.000 C
ATOM     80  C2  NAG B   6      74.856  80.023  58.1810  0.00  0.00     0.000 C
ATOM     81  C3  NAG B   6      75.474  78.762  58.7630  0.00  0.00     0.000 C
ATOM     82  C4  NAG B   6      75.410  77.608  57.7560  0.00  0.00     0.000 C
ATOM     83  C5  NAG B   6      76.055  78.043  56.4450  0.00  0.00     0.000 C
ATOM     84  O5  NAG B   6      75.323  79.168  55.9560  0.00  0.00     0.000 O
BRANCH 80 87
ATOM     85   N  NAG B   6      75.011  81.249  58.9580  0.00  0.00     0.000 N
ATOM     87  HD  NAG B   6      74.749  82.052  59.1500  0.00  0.00     0.000 HD
ATOM     87   C  NAG B   6      74.113  81.690  59.8480  0.00  0.00     0.000 C
ATOM     88   C  NAG B   6      74.477  82.951  60.5660  0.00  0.00     0.000 C
ATOM     89   O  NAG B   6      73.063  81.106  60.0840  0.00  0.00     0.000 OA
ENDBRANCH 80 87
ATOM     90   O  NAG B   6      77.417  76.528  55.1420  0.00  0.00     0.000 O
ATOM     92  HD  NAG B   6      77.275  77.353  55.3650  0.00  0.00     0.000 HD
ATOM     92   O  NAG B   6      77.417  76.528  55.1420  0.00  0.00     0.000 O
ATOM     94  HD  NAG B   6      77.275  77.353  55.3650  0.00  0.00     0.000 HD
ENDBRANCH 78 81
ENDBRANCH 65 78
ENDBRANCH 64 68
ENDBRANCH 48 64
ENDBRANCH 47 50
ENDBRANCH 34 47
ENDBRANCH 33 37
ENDBRANCH 17 33
ENDBRANCH 16 19
ENDBRANCH 1 16
TORSDOF 16
ENDMDL
MODEL 61
REMARK VINA RESULT:      -1.3     74.719     79.764
ROOT
ATOM      1  C1  BDP B   1      35.241  60.468  88.8630  0.00  0.00     0.000 C
ATOM      2  C2  BDP B   1      34.652  59.413  89.7820  0.00  0.00     0.000 C
ATOM      3  C3  BDP B   1      33.139  59.409  89.7490  0.00  0.00     0.000 C
ATOM      4  C4  BDP B   1      32.541  60.183  88.5800  0.00  0.00     0.000 C
ATOM      5  C5  BDP B   1      33.184  61.553  88.3880  0.00  0.00     0.000 C
ATOM      6  O5  BDP B   1      34.466  61.645  89.0320  0.00  0.00     0.000 O
ATOM      7   O  BDP B   1      35.144  58.119  89.4150  0.00  0.00     0.000 O
ATOM      9  HD  BDP B   1      35.788  57.590  89.1800  0.00  0.00     0.000 HD
ATOM      9   O  BDP B   1      32.621  59.981  90.9610  0.00  0.00     0.000 O
ATOM     11  HD  BDP B   1      33.265  59.452  90.7250  0.00  0.00     0.000 HD
ATOM     11   O  BDP B   1      32.650  59.424  87.3700  0.00  0.00     0.000 O
ATOM     13  HD  BDP B   1      33.294  58.895  87.1340  0.00  0.00     0.000 HD
ENDROOT
BRANCH 5 13
ATOM     13   C  BDP B   1      32.256  62.561  88.9710  0.00  0.00     0.000 C
ATOM     14   O  BDP B   1      31.488  63.172  88.1980  0.00  0.00     0.000 OA
ATOM     15   O  BDP B   1      32.255  62.745  90.2070  0.00  0.00     0.000 OA
ENDBRANCH 5 13
BRANCH 1 16
ATOM     16  O3  NAG B   2      36.137  60.342  87.7600  0.00  0.00     0.000 O
BRANCH 16 19
ATOM     17  C1  NAG B   2      35.340  60.660  84.2220  0.00  0.00     0.000 C
ATOM     18  C2  NAG B   2      35.439  61.273  85.6190  0.00  0.00     0.000 C
ATOM     19  C3  NAG B   2      36.549  60.606  86.4180  0.00  0.00     0.000 C
ATOM     20  C4  NAG B   2      37.023  59.308  85.7580  0.00  0.00     0.000 C
ATOM     21  C5  NAG B   2      35.925  58.495  85.0580  0.00  0.00     0.000 C
ATOM     22  O5  NAG B   2      34.925  59.309  84.4330  0.00  0.00     0.000 O
ATOM     23   O  NAG B   2      38.061  59.625  84.8250  0.00  0.00     0.000 O
ATOM     25  HD  NAG B   2      37.674  60.341  84.5300  0.00  0.00     0.000 HD
ATOM     25   C  NAG B   2      35.236  57.548  86.0510  0.00  0.00     0.000 C
ATOM     26   O  NAG B   2      35.952  56.313  86.1900  0.00  0.00     0.000 O
ATOM     28  HD  NAG B   2      35.564  57.029  85.8950  0.00  0.00     0.000 HD
BRANCH 18 30
ATOM     28   N  NAG B   2      36.007  62.164  84.6090  0.00  0.00     0.000 N
ATOM     30  HD  NAG B   2      36.683  62.246  84.0730  0.00  0.00     0.000 HD
ATOM     30   C  NAG B   2      36.521  63.377  84.8570  0.00  0.00     0.000 C
ATOM     31   C  NAG B   2      37.034  64.105  83.6470  0.00  0.00     0.000 C
ATOM     32   O  NAG B   2      36.580  63.862  85.9620  0.00  0.00     0.000 OA
ENDBRANCH 18 30
BRANCH 17 33
ATOM     33  O4  BDP B   3      34.619  60.361  83.0070  0.00  0.00     0.000 O
BRANCH 33 37
ATOM     34  C1  BDP B   3      30.485  60.438  81.9360  0.00  0.00     0.000 C
ATOM     35  C2  BDP B   3      31.263  59.167  81.6200  0.00  0.00     0.000 C
ATOM     36  C3  BDP B   3      32.574  59.045  82.3890  0.00  0.00     0.000 C
ATOM     37  C4  BDP B   3      33.328  60.382  82.3310  0.00  0.00     0.000 C
ATOM     38  C5  BDP B   3      32.384  61.465  82.8890  0.00  0.00     0.000 C
ATOM     39  O5  BDP B   3      31.334  61.592  81.9310  0.00  0.00     0.000 O
ATOM     40   O  BDP B   3      30.376  58.079  81.8860  0.00  0.00     0.000 O
ATOM     42  HD  BDP B   3      30.100  58.314  81.1000  0.00  0.00     0.000 HD
ATOM     42   O  BDP B   3      33.313  57.991  81.7750  0.00  0.00     0.000 O
ATOM     44  HD  BDP B   3      33.037  58.227  80.9880  0.00  0.00     0.000 HD
BRANCH 38 44
ATOM     44   C  BDP B   3      33.032  62.796  83.1120  0.00  0.00     0.000 C
ATOM     45   O  BDP B   3      33.589  63.346  82.1370  0.00  0.00     0.000 OA
ATOM     46   O  BDP B   3      33.001  63.316  84.2490  0.00  0.00     0.000 OA
ENDBRANCH 38 44
BRANCH 34 47
ATOM     47  O3  NAG B   4      29.848  60.977  80.7790  0.00  0.00     0.000 O
BRANCH 47 50
ATOM     48  C1  NAG B   4      26.834  62.882  81.9790  0.00  0.00     0.000 C
ATOM     49  C2  NAG B   4      27.848  61.752  81.9310  0.00  0.00     0.000 C
ATOM     50  C3  NAG B   4      28.913  62.069  80.8880  0.00  0.00     0.000 C
ATOM     51  C4  NAG B   4      28.296  62.347  79.5260  0.00  0.00     0.000 C
ATOM     52  C5  NAG B   4      27.236  63.442  79.6490  0.00  0.00     0.000 C
ATOM     53  O5  NAG B   4      26.284  63.104  80.6650  0.00  0.00     0.000 O
ATOM     54   O  NAG B   4      29.329  62.743  78.6190  0.00  0.00     0.000 O
ATOM     56  HD  NAG B   4      28.589  62.543  78.2160  0.00  0.00     0.000 HD
ATOM     56   C  NAG B   4      26.509  63.659  78.3270  0.00  0.00     0.000 C
ATOM     57   O  NAG B   4      25.867  62.437  77.9400  0.00  0.00     0.000 O
ATOM     59  HD  NAG B   4      25.127  62.237  77.5360  0.00  0.00     0.000 HD
BRANCH 49 61
ATOM     59   N  NAG B   4      26.846  60.685  81.9610  0.00  0.00     0.000 N
ATOM     61  HD  NAG B   4      27.707  60.767  81.9230  0.00  0.00     0.000 HD
ATOM     61   O  NAG B   4      27.943  59.323  83.3910  0.00  0.00     0.000 OA
ATOM     62   C  NAG B   4      26.945  59.602  82.7410  0.00  0.00     0.000 C
ATOM     63   C  NAG B   4      25.730  58.731  82.7980  0.00  0.00     0.000 C
ENDBRANCH 49 61
BRANCH 48 64
ATOM     64  O4  BDP B   5      26.006  63.398  83.0160  0.00  0.00     0.000 O
BRANCH 64 68
ATOM     65  C1  BDP B   5      27.085  63.564  87.0380  0.00  0.00     0.000 C
ATOM     66  C2  BDP B   5      25.932  62.631  86.6950  0.00  0.00     0.000 C
ATOM     67  C3  BDP B   5      25.932  62.344  85.1990  0.00  0.00     0.000 C
ATOM     68  C4  BDP B   5      25.876  63.650  84.4140  0.00  0.00     0.000 C
ATOM     69  C5  BDP B   5      26.970  64.622  84.8370  0.00  0.00     0.000 C
ATOM     70  O5  BDP B   5      26.988  64.772  86.2670  0.00  0.00     0.000 O
ATOM     71   O  BDP B   5      26.042  61.425  87.4660  0.00  0.00     0.000 O
ATOM     73  HD  BDP B   5      26.166  60.710  87.9400  0.00  0.00     0.000 HD
ATOM     73   O  BDP B   5      24.809  61.529  84.8420  0.00  0.00     0.000 O
ATOM     75  HD  BDP B   5      24.934  60.815  85.3160  0.00  0.00     0.000 HD
BRANCH 69 75
ATOM     75   C  BDP B   5      26.691  65.957  84.1940  0.00  0.00     0.000 C
ATOM     76   O  BDP B   5      25.610  66.527  84.4410  0.00  0.00     0.000 OA
ATOM     77   O  BDP B   5      27.548  66.454  83.4400  0.00  0.00     0.000 OA
ENDBRANCH 69 75
BRANCH 65 78
ATOM     78  O3  NAG B   6      27.118  64.516  88.1050  0.00  0.00     0.000 O
BRANCH 78 81
ATOM     79  C1  NAG B   6      29.622  65.341  90.8220  0.00  0.00     0.000 C
ATOM     80  C2  NAG B   6      28.563  64.522  90.0670  0.00  0.00     0.000 C
ATOM     81  C3  NAG B   6      28.219  65.194  88.7480  0.00  0.00     0.000 C
ATOM     82  C4  NAG B   6      27.870  66.671  88.9620  0.00  0.00     0.000 C
ATOM     83  C5  NAG B   6      29.009  67.357  89.7070  0.00  0.00     0.000 C
ATOM     84  O5  NAG B   6      29.164  66.697  90.9640  0.00  0.00     0.000 O
BRANCH 80 87
ATOM     85   N  NAG B   6      29.092  63.163  89.9940  0.00  0.00     0.000 N
ATOM     87  HD  NAG B   6      29.245  62.398  90.3700  0.00  0.00     0.000 HD
ATOM     87   C  NAG B   6      28.338  62.060  90.0770  0.00  0.00     0.000 C
ATOM     88   C  NAG B   6      29.070  60.762  89.9440  0.00  0.00     0.000 C
ATOM     89   O  NAG B   6      27.124  62.091  90.2370  0.00  0.00     0.000 OA
ENDBRANCH 80 87
ATOM     90   O  NAG B   6      29.697  69.611  89.1660  0.00  0.00     0.000 O
ATOM     92  HD  NAG B   6      29.948  68.837  89.4620  0.00  0.00     0.000 HD
ATOM     92   O  NAG B   6      29.697  69.611  89.1660  0.00  0.00     0.000 O
ATOM     94  HD  NAG B   6      29.948  68.837  89.4620  0.00  0.00     0.000 HD
ENDBRANCH 78 81
ENDBRANCH 65 78
ENDBRANCH 64 68
ENDBRANCH 48 64
ENDBRANCH 47 50
ENDBRANCH 34 47
ENDBRANCH 33 37
ENDBRANCH 17 33
ENDBRANCH 16 19
ENDBRANCH 1 16
TORSDOF 16
ENDMDL
MODEL 62
REMARK VINA RESULT:      -1.3     98.724    104.028
ROOT
ATOM      1  C1  BDP B   1      91.713  85.692  24.4750  0.00  0.00     0.000 C
ATOM      2  C2  BDP B   1      90.398  85.489  23.7440  0.00  0.00     0.000 C
ATOM      3  C3  BDP B   1      89.796  84.128  24.0200  0.00  0.00     0.000 C
ATOM      4  C4  BDP B   1      90.416  83.404  25.2100  0.00  0.00     0.000 C
ATOM      5  C5  BDP B   1      91.941  83.441  25.1950  0.00  0.00     0.000 C
ATOM      6  O5  BDP B   1      92.449  84.485  24.3470  0.00  0.00     0.000 O
ATOM      7   O  BDP B   1      89.468  86.511  24.1200  0.00  0.00     0.000 O
ATOM      9  HD  BDP B   1      89.276  87.338  24.2870  0.00  0.00     0.000 HD
ATOM      9   O  BDP B   1      89.948  83.282  22.8690  0.00  0.00     0.000 O
ATOM     11  HD  BDP B   1      89.755  84.110  23.0360  0.00  0.00     0.000 HD
ATOM     11   O  BDP B   1      89.932  83.959  26.4390  0.00  0.00     0.000 O
ATOM     13  HD  BDP B   1      89.739  84.787  26.6060  0.00  0.00     0.000 HD
ENDROOT
BRANCH 5 13
ATOM     13   C  BDP B   1      92.408  82.118  24.6970  0.00  0.00     0.000 C
ATOM     14   O  BDP B   1      92.449  81.933  23.4630  0.00  0.00     0.000 OA
ATOM     15   O  BDP B   1      92.767  81.250  25.5220  0.00  0.00     0.000 OA
ENDBRANCH 5 13
BRANCH 1 16
ATOM     16  O3  NAG B   2      92.102  86.682  25.4260  0.00  0.00     0.000 O
BRANCH 16 19
ATOM     17  C1  NAG B   2      92.549  86.230  29.0100  0.00  0.00     0.000 C
ATOM     18  C2  NAG B   2      92.961  85.915  27.5720  0.00  0.00     0.000 C
ATOM     19  C3  NAG B   2      92.680  87.102  26.6620  0.00  0.00     0.000 C
ATOM     20  C4  NAG B   2      91.767  88.130  27.3370  0.00  0.00     0.000 C
ATOM     21  C5  NAG B   2      90.692  87.540  28.2600  0.00  0.00     0.000 C
ATOM     22  O5  NAG B   2      91.127  86.374  28.9690  0.00  0.00     0.000 O
ATOM     23   O  NAG B   2      92.583  89.050  28.0690  0.00  0.00     0.000 O
ATOM     25  HD  NAG B   2      93.124  88.443  28.3660  0.00  0.00     0.000 HD
ATOM     25   C  NAG B   2      89.430  87.184  27.4610  0.00  0.00     0.000 C
ATOM     26   O  NAG B   2      88.563  88.317  27.3060  0.00  0.00     0.000 O
ATOM     28  HD  NAG B   2      89.104  87.710  27.6030  0.00  0.00     0.000 HD
BRANCH 18 30
ATOM     28   N  NAG B   2      94.131  86.129  28.4230  0.00  0.00     0.000 N
ATOM     30  HD  NAG B   2      94.534  86.736  28.8910  0.00  0.00     0.000 HD
ATOM     30   C  NAG B   2      95.402  86.134  27.9950  0.00  0.00     0.000 C
ATOM     31   C  NAG B   2      96.429  86.366  29.0670  0.00  0.00     0.000 C
ATOM     32   O  NAG B   2      95.715  85.974  26.8380  0.00  0.00     0.000 OA
ENDBRANCH 18 30
BRANCH 17 33
ATOM     33  O4  BDP B   3      92.156  85.834  30.3420  0.00  0.00     0.000 O
BRANCH 33 37
ATOM     34  C1  BDP B   3      90.895  82.148  32.0950  0.00  0.00     0.000 C
ATOM     35  C2  BDP B   3      90.083  83.393  32.4300  0.00  0.00     0.000 C
ATOM     36  C3  BDP B   3      90.315  84.552  31.4670  0.00  0.00     0.000 C
ATOM     37  C4  BDP B   3      91.822  84.722  31.2240  0.00  0.00     0.000 C
ATOM     38  C5  BDP B   3      92.357  83.373  30.7050  0.00  0.00     0.000 C
ATOM     39  O5  BDP B   3      92.261  82.470  31.8070  0.00  0.00     0.000 O
ATOM     40   O  BDP B   3      88.715  82.981  32.4610  0.00  0.00     0.000 O
ATOM     42  HD  BDP B   3      88.971  82.724  33.2470  0.00  0.00     0.000 HD
ATOM     42   O  BDP B   3      89.741  85.709  32.0720  0.00  0.00     0.000 O
ATOM     44  HD  BDP B   3      89.998  85.452  32.8580  0.00  0.00     0.000 HD
BRANCH 38 44
ATOM     44   C  BDP B   3      93.768  83.417  30.2070  0.00  0.00     0.000 C
ATOM     45   O  BDP B   3      94.003  82.941  29.0740  0.00  0.00     0.000 OA
ATOM     46   O  BDP B   3      94.661  83.918  30.9240  0.00  0.00     0.000 OA
ENDBRANCH 38 44
BRANCH 34 47
ATOM     47  O3  NAG B   4      91.363  81.484  33.2670  0.00  0.00     0.000 O
BRANCH 47 50
ATOM     48  C1  NAG B   4      91.765  77.853  32.3710  0.00  0.00     0.000 C
ATOM     49  C2  NAG B   4      91.120  79.228  32.3840  0.00  0.00     0.000 C
ATOM     50  C3  NAG B   4      91.991  80.188  33.1860  0.00  0.00     0.000 C
ATOM     51  C4  NAG B   4      92.258  79.664  34.5880  0.00  0.00     0.000 C
ATOM     52  C5  NAG B   4      92.840  78.253  34.5120  0.00  0.00     0.000 C
ATOM     53  O5  NAG B   4      91.997  77.406  33.7210  0.00  0.00     0.000 O
ATOM     54   O  NAG B   4      93.164  80.549  35.2510  0.00  0.00     0.000 O
ATOM     56  HD  NAG B   4      92.779  79.997  35.7950  0.00  0.00     0.000 HD
ATOM     56   C  NAG B   4      93.004  77.646  35.9010  0.00  0.00     0.000 C
ATOM     57   O  NAG B   4      91.721  77.583  36.5380  0.00  0.00     0.000 O
ATOM     59  HD  NAG B   4      91.335  77.031  37.0820  0.00  0.00     0.000 HD
BRANCH 49 61
ATOM     59   N  NAG B   4      89.770  78.730  32.6540  0.00  0.00     0.000 N
ATOM     61  HD  NAG B   4      90.172  79.488  32.5370  0.00  0.00     0.000 HD
ATOM     61   O  NAG B   4      88.682  80.112  31.2380  0.00  0.00     0.000 OA
ATOM     62   C  NAG B   4      88.681  79.162  32.0070  0.00  0.00     0.000 C
ATOM     63   C  NAG B   4      87.427  78.389  32.2630  0.00  0.00     0.000 C
ENDBRANCH 49 61
BRANCH 48 64
ATOM     64  O4  BDP B   5      91.742  76.781  31.4330  0.00  0.00     0.000 O
BRANCH 64 68
ATOM     65  C1  BDP B   5      91.622  77.265  27.2950  0.00  0.00     0.000 C
ATOM     66  C2  BDP B   5      90.394  76.625  27.9280  0.00  0.00     0.000 C
ATOM     67  C3  BDP B   5      90.386  76.901  29.4260  0.00  0.00     0.000 C
ATOM     68  C4  BDP B   5      91.685  76.412  30.0560  0.00  0.00     0.000 C
ATOM     69  C5  BDP B   5      92.913  76.974  29.3510  0.00  0.00     0.000 C
ATOM     70  O5  BDP B   5      92.815  76.778  27.9300  0.00  0.00     0.000 O
ATOM     71   O  BDP B   5      89.208  77.124  27.2900  0.00  0.00     0.000 O
ATOM     73  HD  BDP B   5      88.525  77.471  26.8860  0.00  0.00     0.000 HD
ATOM     73   O  BDP B   5      89.279  76.241  30.0530  0.00  0.00     0.000 O
ATOM     75  HD  BDP B   5      88.597  76.589  29.6490  0.00  0.00     0.000 HD
BRANCH 69 75
ATOM     75   C  BDP B   5      94.131  76.257  29.8760  0.00  0.00     0.000 C
ATOM     76   O  BDP B   5      95.079  76.933  30.3230  0.00  0.00     0.000 OA
ATOM     77   O  BDP B   5      94.154  75.012  29.8520  0.00  0.00     0.000 OA
ENDBRANCH 69 75
BRANCH 65 78
ATOM     78  O3  NAG B   6      92.320  76.801  26.1370  0.00  0.00     0.000 O
BRANCH 78 81
ATOM     79  C1  NAG B   6      93.561  78.457  22.9660  0.00  0.00     0.000 C
ATOM     80  C2  NAG B   6      92.542  77.901  23.9740  0.00  0.00     0.000 C
ATOM     81  C3  NAG B   6      93.246  77.463  25.2480  0.00  0.00     0.000 C
ATOM     82  C4  NAG B   6      94.422  76.534  24.9300  0.00  0.00     0.000 C
ATOM     83  C5  NAG B   6      95.353  77.216  23.9340  0.00  0.00     0.000 C
ATOM     84  O5  NAG B   6      94.599  77.483  22.7510  0.00  0.00     0.000 O
BRANCH 80 87
ATOM     85   N  NAG B   6      91.517  78.933  24.1020  0.00  0.00     0.000 N
ATOM     87  HD  NAG B   6      90.813  79.331  23.7920  0.00  0.00     0.000 HD
ATOM     87   C  NAG B   6      90.215  78.676  24.2770  0.00  0.00     0.000 C
ATOM     88   C  NAG B   6      89.331  79.875  24.4220  0.00  0.00     0.000 C
ATOM     89   O  NAG B   6      89.758  77.540  24.3340  0.00  0.00     0.000 OA
ENDBRANCH 80 87
ATOM     90   O  NAG B   6      97.756  77.003  24.0980  0.00  0.00     0.000 O
ATOM     92  HD  NAG B   6      97.096  77.508  23.8530  0.00  0.00     0.000 HD
ATOM     92   O  NAG B   6      97.756  77.003  24.0980  0.00  0.00     0.000 O
ATOM     94  HD  NAG B   6      97.096  77.508  23.8530  0.00  0.00     0.000 HD
ENDBRANCH 78 81
ENDBRANCH 65 78
ENDBRANCH 64 68
ENDBRANCH 48 64
ENDBRANCH 47 50
ENDBRANCH 34 47
ENDBRANCH 33 37
ENDBRANCH 17 33
ENDBRANCH 16 19
ENDBRANCH 1 16
TORSDOF 16
ENDMDL
MODEL 63
REMARK VINA RESULT:      -1.3     64.427     70.013
ROOT
ATOM      1  C1  BDP B   1      65.770  53.312  14.9480  0.00  0.00     0.000 C
ATOM      2  C2  BDP B   1      65.470  51.831  15.0920  0.00  0.00     0.000 C
ATOM      3  C3  BDP B   1      65.185  51.174  13.7580  0.00  0.00     0.000 C
ATOM      4  C4  BDP B   1      65.595  52.013  12.5530  0.00  0.00     0.000 C
ATOM      5  C5  BDP B   1      65.143  53.466  12.6630  0.00  0.00     0.000 C
ATOM      6  O5  BDP B   1      64.834  53.836  14.0170  0.00  0.00     0.000 O
ATOM      7   O  BDP B   1      66.571  51.171  15.7270  0.00  0.00     0.000 O
ATOM      9  HD  BDP B   1      67.182  51.132  16.3390  0.00  0.00     0.000 HD
ATOM      9   O  BDP B   1      63.781  50.897  13.6380  0.00  0.00     0.000 O
ATOM     11  HD  BDP B   1      64.392  50.858  14.2500  0.00  0.00     0.000 HD
ATOM     11   O  BDP B   1      67.015  51.961  12.3680  0.00  0.00     0.000 O
ATOM     13  HD  BDP B   1      67.627  51.922  12.9800  0.00  0.00     0.000 HD
ENDROOT
BRANCH 5 13
ATOM     13   C  BDP B   1      63.931  53.616  11.8120  0.00  0.00     0.000 C
ATOM     14   O  BDP B   1      62.830  53.271  12.2880  0.00  0.00     0.000 OA
ATOM     15   O  BDP B   1      64.049  54.102  10.6670  0.00  0.00     0.000 OA
ENDBRANCH 5 13
BRANCH 1 16
ATOM     16  O3  NAG B   2      66.922  54.065  15.3200  0.00  0.00     0.000 O
BRANCH 16 19
ATOM     17  C1  NAG B   2      69.468  55.435  13.1070  0.00  0.00     0.000 C
ATOM     18  C2  NAG B   2      68.019  55.387  13.5920  0.00  0.00     0.000 C
ATOM     19  C3  NAG B   2      67.960  55.013  15.0660  0.00  0.00     0.000 C
ATOM     20  C4  NAG B   2      69.298  54.460  15.5650  0.00  0.00     0.000 C
ATOM     21  C5  NAG B   2      70.077  53.620  14.5430  0.00  0.00     0.000 C
ATOM     22  O5  NAG B   2      69.938  54.087  13.1970  0.00  0.00     0.000 O
ATOM     23   O  NAG B   2      70.106  55.556  16.0080  0.00  0.00     0.000 O
ATOM     25  HD  NAG B   2      69.879  56.078  15.3560  0.00  0.00     0.000 HD
ATOM     25   C  NAG B   2      69.634  52.151  14.6000  0.00  0.00     0.000 C
ATOM     26   O  NAG B   2      70.337  51.423  15.6170  0.00  0.00     0.000 O
ATOM     28  HD  NAG B   2      70.111  51.946  14.9650  0.00  0.00     0.000 HD
BRANCH 18 30
ATOM     28   N  NAG B   2      68.459  56.765  13.3760  0.00  0.00     0.000 N
ATOM     30  HD  NAG B   2      69.024  57.355  13.6650  0.00  0.00     0.000 HD
ATOM     30   C  NAG B   2      67.732  57.856  13.6570  0.00  0.00     0.000 C
ATOM     31   C  NAG B   2      68.403  59.162  13.3340  0.00  0.00     0.000 C
ATOM     32   O  NAG B   2      66.624  57.813  14.1380  0.00  0.00     0.000 OA
ENDBRANCH 18 30
BRANCH 17 33
ATOM     33  O4  BDP B   3      70.469  55.383  12.0670  0.00  0.00     0.000 O
BRANCH 33 37
ATOM     34  C1  BDP B   3      70.434  54.203   7.9620  0.00  0.00     0.000 C
ATOM     35  C2  BDP B   3      71.582  53.693   8.8240  0.00  0.00     0.000 C
ATOM     36  C3  BDP B   3      71.312  53.789  10.3210  0.00  0.00     0.000 C
ATOM     37  C4  BDP B   3      70.728  55.172  10.6480  0.00  0.00     0.000 C
ATOM     38  C5  BDP B   3      69.467  55.353   9.7820  0.00  0.00     0.000 C
ATOM     39  O5  BDP B   3      69.935  55.459   8.4370  0.00  0.00     0.000 O
ATOM     40   O  BDP B   3      71.830  52.349   8.4040  0.00  0.00     0.000 O
ATOM     42  HD  BDP B   3      72.256  52.785   7.7880  0.00  0.00     0.000 HD
ATOM     42   O  BDP B   3      72.560  53.571  10.9780  0.00  0.00     0.000 O
ATOM     44  HD  BDP B   3      72.985  54.006  10.3610  0.00  0.00     0.000 HD
BRANCH 38 44
ATOM     44   C  BDP B   3      68.645  56.554  10.1290  0.00  0.00     0.000 C
ATOM     45   O  BDP B   3      67.418  56.391  10.3120  0.00  0.00     0.000 OA
ATOM     46   O  BDP B   3      69.194  57.673  10.2240  0.00  0.00     0.000 OA
ENDBRANCH 38 44
BRANCH 34 47
ATOM     47  O3  NAG B   4      70.901  54.896   6.8060  0.00  0.00     0.000 O
BRANCH 47 50
ATOM     48  C1  NAG B   4      68.228  54.550   4.1820  0.00  0.00     0.000 C
ATOM     49  C2  NAG B   4      69.130  54.120   5.3260  0.00  0.00     0.000 C
ATOM     50  C3  NAG B   4      69.989  55.301   5.7640  0.00  0.00     0.000 C
ATOM     51  C4  NAG B   4      70.775  55.884   4.6000  0.00  0.00     0.000 C
ATOM     52  C5  NAG B   4      69.824  56.231   3.4540  0.00  0.00     0.000 C
ATOM     53  O5  NAG B   4      69.021  55.095   3.1090  0.00  0.00     0.000 O
ATOM     54   O  NAG B   4      71.474  57.049   5.0470  0.00  0.00     0.000 O
ATOM     56  HD  NAG B   4      71.755  56.765   4.2790  0.00  0.00     0.000 HD
ATOM     56   C  NAG B   4      70.589  56.702   2.2230  0.00  0.00     0.000 C
ATOM     57   O  NAG B   4      71.469  55.656   1.7910  0.00  0.00     0.000 O
ATOM     59  HD  NAG B   4      71.751  55.372   1.0230  0.00  0.00     0.000 HD
BRANCH 49 61
ATOM     59   N  NAG B   4      69.499  52.847   4.7060  0.00  0.00     0.000 N
ATOM     61  HD  NAG B   4      69.674  53.293   5.4270  0.00  0.00     0.000 HD
ATOM     61   O  NAG B   4      69.406  51.594   6.5830  0.00  0.00     0.000 OA
ATOM     62   C  NAG B   4      69.533  51.686   5.3710  0.00  0.00     0.000 C
ATOM     63   C  NAG B   4      69.720  50.463   4.5300  0.00  0.00     0.000 C
ENDBRANCH 49 61
BRANCH 48 64
ATOM     64  O4  BDP B   5      66.940  54.123   3.7500  0.00  0.00     0.000 O
BRANCH 64 68
ATOM     65  C1  BDP B   5      63.844  53.005   6.3070  0.00  0.00     0.000 C
ATOM     66  C2  BDP B   5      64.404  51.904   5.4160  0.00  0.00     0.000 C
ATOM     67  C3  BDP B   5      65.764  52.324   4.8760  0.00  0.00     0.000 C
ATOM     68  C4  BDP B   5      65.650  53.659   4.1470  0.00  0.00     0.000 C
ATOM     69  C5  BDP B   5      64.993  54.730   5.0090  0.00  0.00     0.000 C
ATOM     70  O5  BDP B   5      63.765  54.239   5.5760  0.00  0.00     0.000 O
ATOM     71   O  BDP B   5      64.483  50.678   6.1580  0.00  0.00     0.000 O
ATOM     73  HD  BDP B   5      64.529  49.971   6.6570  0.00  0.00     0.000 HD
ATOM     73   O  BDP B   5      66.274  51.336   3.9730  0.00  0.00     0.000 O
ATOM     75  HD  BDP B   5      66.320  50.629   4.4710  0.00  0.00     0.000 HD
BRANCH 69 75
ATOM     75   C  BDP B   5      64.703  55.926   4.1390  0.00  0.00     0.000 C
ATOM     76   O  BDP B   5      65.231  57.019   4.4260  0.00  0.00     0.000 OA
ATOM     77   O  BDP B   5      63.950  55.789   3.1570  0.00  0.00     0.000 OA
ENDBRANCH 69 75
BRANCH 65 78
ATOM     78  O3  NAG B   6      62.462  53.306   6.5190  0.00  0.00     0.000 O
BRANCH 78 81
ATOM     79  C1  NAG B   6      60.316  53.857   9.5880  0.00  0.00     0.000 C
ATOM     80  C2  NAG B   6      61.163  53.081   8.5680  0.00  0.00     0.000 C
ATOM     81  C3  NAG B   6      61.792  54.037   7.5680  0.00  0.00     0.000 C
ATOM     82  C4  NAG B   6      60.735  54.968   6.9640  0.00  0.00     0.000 C
ATOM     83  C5  NAG B   6      59.985  55.679   8.0860  0.00  0.00     0.000 C
ATOM     84  O5  NAG B   6      59.361  54.677   8.8900  0.00  0.00     0.000 O
BRANCH 80 87
ATOM     85   N  NAG B   6      62.077  52.259   9.3560  0.00  0.00     0.000 N
ATOM     87  HD  NAG B   6      62.224  51.555   9.8380  0.00  0.00     0.000 HD
ATOM     87   C  NAG B   6      62.463  51.025   9.0100  0.00  0.00     0.000 C
ATOM     88   C  NAG B   6      63.433  50.364   9.9370  0.00  0.00     0.000 C
ATOM     89   O  NAG B   6      62.069  50.461   7.9960  0.00  0.00     0.000 OA
ENDBRANCH 80 87
ATOM     90   O  NAG B   6      59.324  57.997   7.8940  0.00  0.00     0.000 O
ATOM     92  HD  NAG B   6      59.561  57.361   8.4330  0.00  0.00     0.000 HD
ATOM     92   O  NAG B   6      59.324  57.997   7.8940  0.00  0.00     0.000 O
ATOM     94  HD  NAG B   6      59.561  57.361   8.4330  0.00  0.00     0.000 HD
ENDBRANCH 78 81
ENDBRANCH 65 78
ENDBRANCH 64 68
ENDBRANCH 48 64
ENDBRANCH 47 50
ENDBRANCH 34 47
ENDBRANCH 33 37
ENDBRANCH 17 33
ENDBRANCH 16 19
ENDBRANCH 1 16
TORSDOF 16
ENDMDL
MODEL 64
REMARK VINA RESULT:      -1.3     77.870     81.556
ROOT
ATOM      1  C1  BDP B   1      51.983  75.831  70.3890  0.00  0.00     0.000 C
ATOM      2  C2  BDP B   1      52.423  75.902  71.8400  0.00  0.00     0.000 C
ATOM      3  C3  BDP B   1      51.504  75.118  72.7530  0.00  0.00     0.000 C
ATOM      4  C4  BDP B   1      50.573  74.158  72.0210  0.00  0.00     0.000 C
ATOM      5  C5  BDP B   1      49.888  74.801  70.8190  0.00  0.00     0.000 C
ATOM      6  O5  BDP B   1      50.571  75.985  70.3750  0.00  0.00     0.000 O
ATOM      7   O  BDP B   1      53.761  75.410  71.9680  0.00  0.00     0.000 O
ATOM      9  HD  BDP B   1      54.582  75.362  71.6960  0.00  0.00     0.000 HD
ATOM      9   O  BDP B   1      50.688  76.019  73.5180  0.00  0.00     0.000 O
ATOM     11  HD  BDP B   1      51.509  75.971  73.2460  0.00  0.00     0.000 HD
ATOM     11   O  BDP B   1      51.289  72.989  71.6030  0.00  0.00     0.000 O
ATOM     13  HD  BDP B   1      52.110  72.942  71.3310  0.00  0.00     0.000 HD
ENDROOT
BRANCH 5 13
ATOM     13   C  BDP B   1      48.501  75.147  71.2350  0.00  0.00     0.000 C
ATOM     14   O  BDP B   1      47.584  74.350  70.9500  0.00  0.00     0.000 OA
ATOM     15   O  BDP B   1      48.304  76.203  71.8740  0.00  0.00     0.000 OA
ENDBRANCH 5 13
BRANCH 1 16
ATOM     16  O3  NAG B   2      52.673  75.360  69.2330  0.00  0.00     0.000 O
BRANCH 16 19
ATOM     17  C1  NAG B   2      52.074  72.256  67.4260  0.00  0.00     0.000 C
ATOM     18  C2  NAG B   2      51.596  73.630  67.8980  0.00  0.00     0.000 C
ATOM     19  C3  NAG B   2      52.770  74.587  68.0350  0.00  0.00     0.000 C
ATOM     20  C4  NAG B   2      54.111  73.848  68.0050  0.00  0.00     0.000 C
ATOM     21  C5  NAG B   2      54.108  72.465  68.6700  0.00  0.00     0.000 C
ATOM     22  O5  NAG B   2      52.878  71.752  68.4950  0.00  0.00     0.000 O
ATOM     23   O  NAG B   2      54.534  73.731  66.6430  0.00  0.00     0.000 O
ATOM     25  HD  NAG B   2      53.744  73.550  66.3390  0.00  0.00     0.000 HD
ATOM     25   C  NAG B   2      54.394  72.587  70.1740  0.00  0.00     0.000 C
ATOM     26   O  NAG B   2      55.803  72.627  70.4450  0.00  0.00     0.000 O
ATOM     28  HD  NAG B   2      55.012  72.446  70.1410  0.00  0.00     0.000 HD
BRANCH 18 30
ATOM     28   N  NAG B   2      51.228  73.392  66.5030  0.00  0.00     0.000 N
ATOM     30  HD  NAG B   2      51.571  73.271  65.7170  0.00  0.00     0.000 HD
ATOM     30   C  NAG B   2      50.627  74.286  65.7040  0.00  0.00     0.000 C
ATOM     31   C  NAG B   2      50.342  73.798  64.3120  0.00  0.00     0.000 C
ATOM     32   O  NAG B   2      50.336  75.405  66.0570  0.00  0.00     0.000 OA
ENDBRANCH 18 30
BRANCH 17 33
ATOM     33  O4  BDP B   3      51.917  70.827  67.2880  0.00  0.00     0.000 O
BRANCH 33 37
ATOM     34  C1  BDP B   3      49.289  67.941  69.0230  0.00  0.00     0.000 C
ATOM     35  C2  BDP B   3      50.769  67.586  68.9580  0.00  0.00     0.000 C
ATOM     36  C3  BDP B   3      51.677  68.790  68.7330  0.00  0.00     0.000 C
ATOM     37  C4  BDP B   3      51.099  69.664  67.6100  0.00  0.00     0.000 C
ATOM     38  C5  BDP B   3      49.663  70.044  68.0190  0.00  0.00     0.000 C
ATOM     39  O5  BDP B   3      48.913  68.831  67.9650  0.00  0.00     0.000 O
ATOM     40   O  BDP B   3      51.069  66.902  70.1770  0.00  0.00     0.000 O
ATOM     42  HD  BDP B   3      50.716  66.257  69.7210  0.00  0.00     0.000 HD
ATOM     42   O  BDP B   3      52.964  68.275  68.3960  0.00  0.00     0.000 O
ATOM     44  HD  BDP B   3      52.611  67.629  67.9400  0.00  0.00     0.000 HD
BRANCH 38 44
ATOM     44   C  BDP B   3      49.023  71.076  67.1450  0.00  0.00     0.000 C
ATOM     45   O  BDP B   3      49.053  70.895  65.9070  0.00  0.00     0.000 OA
ATOM     46   O  BDP B   3      48.485  72.078  67.6630  0.00  0.00     0.000 OA
ENDBRANCH 38 44
BRANCH 34 47
ATOM     47  O3  NAG B   4      48.474  66.951  68.3970  0.00  0.00     0.000 O
BRANCH 47 50
ATOM     48  C1  NAG B   4      45.095  67.114  70.0410  0.00  0.00     0.000 C
ATOM     49  C2  NAG B   4      46.611  67.133  69.9540  0.00  0.00     0.000 C
ATOM     50  C3  NAG B   4      47.036  67.002  68.4960  0.00  0.00     0.000 C
ATOM     51  C4  NAG B   4      46.439  65.763  67.8480  0.00  0.00     0.000 C
ATOM     52  C5  NAG B   4      44.921  65.764  68.0290  0.00  0.00     0.000 C
ATOM     53  O5  NAG B   4      44.582  65.923  69.4120  0.00  0.00     0.000 O
ATOM     54   O  NAG B   4      46.782  65.752  66.4600  0.00  0.00     0.000 O
ATOM     56  HD  NAG B   4      46.475  64.990  66.7340  0.00  0.00     0.000 HD
ATOM     56   C  NAG B   4      44.300  64.476  67.5020  0.00  0.00     0.000 C
ATOM     57   O  NAG B   4      44.849  63.364  68.2200  0.00  0.00     0.000 O
ATOM     59  HD  NAG B   4      44.543  62.601  68.4940  0.00  0.00     0.000 HD
BRANCH 49 61
ATOM     59   N  NAG B   4      46.805  66.228  71.0870  0.00  0.00     0.000 N
ATOM     61  HD  NAG B   4      47.286  66.658  70.5100  0.00  0.00     0.000 HD
ATOM     61   O  NAG B   4      48.556  67.316  72.0090  0.00  0.00     0.000 OA
ATOM     62   C  NAG B   4      47.708  66.437  72.0520  0.00  0.00     0.000 C
ATOM     63   C  NAG B   4      47.615  65.525  73.2350  0.00  0.00     0.000 C
ENDBRANCH 49 61
BRANCH 48 64
ATOM     64  O4  BDP B   5      44.169  67.696  70.9540  0.00  0.00     0.000 O
BRANCH 64 68
ATOM     65  C1  BDP B   5      44.615  71.457  72.6930  0.00  0.00     0.000 C
ATOM     66  C2  BDP B   5      44.673  70.271  73.6460  0.00  0.00     0.000 C
ATOM     67  C3  BDP B   5      44.929  68.993  72.8570  0.00  0.00     0.000 C
ATOM     68  C4  BDP B   5      43.865  68.820  71.7790  0.00  0.00     0.000 C
ATOM     69  C5  BDP B   5      43.739  70.053  70.8930  0.00  0.00     0.000 C
ATOM     70  O5  BDP B   5      43.605  71.240  71.6950  0.00  0.00     0.000 O
ATOM     71   O  BDP B   5      45.689  70.497  74.6350  0.00  0.00     0.000 O
ATOM     73  HD  BDP B   5      46.326  70.674  75.1940  0.00  0.00     0.000 HD
ATOM     73   O  BDP B   5      44.910  67.854  73.7260  0.00  0.00     0.000 O
ATOM     75  HD  BDP B   5      45.547  68.031  74.2860  0.00  0.00     0.000 HD
BRANCH 69 75
ATOM     75   C  BDP B   5      42.517  69.890  70.0260  0.00  0.00     0.000 C
ATOM     76   O  BDP B   5      41.396  69.841  70.5720  0.00  0.00     0.000 OA
ATOM     77   O  BDP B   5      42.658  69.813  68.7920  0.00  0.00     0.000 OA
ENDBRANCH 69 75
BRANCH 65 78
ATOM     78  O3  NAG B   6      43.856  72.656  72.8740  0.00  0.00     0.000 O
BRANCH 78 81
ATOM     79  C1  NAG B   6      44.652  76.350  72.6470  0.00  0.00     0.000 C
ATOM     80  C2  NAG B   6      44.673  74.925  73.2220  0.00  0.00     0.000 C
ATOM     81  C3  NAG B   6      43.975  73.964  72.2730  0.00  0.00     0.000 C
ATOM     82  C4  NAG B   6      42.588  74.490  71.8870  0.00  0.00     0.000 C
ATOM     83  C5  NAG B   6      42.721  75.900  71.3230  0.00  0.00     0.000 C
ATOM     84  O5  NAG B   6      43.296  76.720  72.3410  0.00  0.00     0.000 O
BRANCH 80 87
ATOM     85   N  NAG B   6      46.073  74.644  73.5290  0.00  0.00     0.000 N
ATOM     87  HD  NAG B   6      46.758  74.738  74.0500  0.00  0.00     0.000 HD
ATOM     87   C  NAG B   6      46.478  73.925  74.5830  0.00  0.00     0.000 C
ATOM     88   C  NAG B   6      47.955  73.722  74.7010  0.00  0.00     0.000 C
ATOM     89   O  NAG B   6      45.704  73.443  75.4020  0.00  0.00     0.000 OA
ENDBRANCH 80 87
ATOM     90   O  NAG B   6      41.381  76.645  69.4530  0.00  0.00     0.000 O
ATOM     92  HD  NAG B   6      42.136  76.723  69.8690  0.00  0.00     0.000 HD
ATOM     92   O  NAG B   6      41.381  76.645  69.4530  0.00  0.00     0.000 O
ATOM     94  HD  NAG B   6      42.136  76.723  69.8690  0.00  0.00     0.000 HD
ENDBRANCH 78 81
ENDBRANCH 65 78
ENDBRANCH 64 68
ENDBRANCH 48 64
ENDBRANCH 47 50
ENDBRANCH 34 47
ENDBRANCH 33 37
ENDBRANCH 17 33
ENDBRANCH 16 19
ENDBRANCH 1 16
TORSDOF 16
ENDMDL
MODEL 65
REMARK VINA RESULT:      -1.3     62.750     67.886
ROOT
ATOM      1  C1  BDP B   1      10.567  39.895  91.2560  0.00  0.00     0.000 C
ATOM      2  C2  BDP B   1      10.224  39.982  92.7320  0.00  0.00     0.000 C
ATOM      3  C3  BDP B   1       9.426  38.786  93.2040  0.00  0.00     0.000 C
ATOM      4  C4  BDP B   1       9.438  37.609  92.2340  0.00  0.00     0.000 C
ATOM      5  C5  BDP B   1       9.172  38.030  90.7920  0.00  0.00     0.000 C
ATOM      6  O5  BDP B   1       9.403  39.434  90.5860  0.00  0.00     0.000 O
ATOM      7   O  BDP B   1      11.424  40.095  93.5050  0.00  0.00     0.000 O
ATOM      9  HD  BDP B   1      12.210  40.431  93.6430  0.00  0.00     0.000 HD
ATOM      9   O  BDP B   1       8.056  39.163  93.4150  0.00  0.00     0.000 O
ATOM     11  HD  BDP B   1       8.842  39.499  93.5530  0.00  0.00     0.000 HD
ATOM     11   O  BDP B   1      10.687  36.911  92.3120  0.00  0.00     0.000 O
ATOM     13  HD  BDP B   1      11.473  37.247  92.4490  0.00  0.00     0.000 HD
ENDROOT
BRANCH 5 13
ATOM     13   C  BDP B   1       7.750  37.706  90.4940  0.00  0.00     0.000 C
ATOM     14   O  BDP B   1       6.871  38.508  90.8710  0.00  0.00     0.000 OA
ATOM     15   O  BDP B   1       7.485  36.664  89.8570  0.00  0.00     0.000 OA
ENDBRANCH 5 13
BRANCH 1 16
ATOM     16  O3  NAG B   2      11.832  39.894  90.5960  0.00  0.00     0.000 O
BRANCH 16 19
ATOM     17  C1  NAG B   2      13.507  37.053  89.0540  0.00  0.00     0.000 C
ATOM     18  C2  NAG B   2      12.332  38.030  89.1090  0.00  0.00     0.000 C
ATOM     19  C3  NAG B   2      12.780  39.375  89.6630  0.00  0.00     0.000 C
ATOM     20  C4  NAG B   2      14.159  39.285  90.3240  0.00  0.00     0.000 C
ATOM     21  C5  NAG B   2      14.446  37.967  91.0570  0.00  0.00     0.000 C
ATOM     22  O5  NAG B   2      13.867  36.823  90.4180  0.00  0.00     0.000 O
ATOM     23   O  NAG B   2      15.157  39.511  89.3230  0.00  0.00     0.000 O
ATOM     25  HD  NAG B   2      14.753  39.046  88.7150  0.00  0.00     0.000 HD
ATOM     25   C  NAG B   2      13.936  38.031  92.5030  0.00  0.00     0.000 C
ATOM     26   O  NAG B   2      14.899  38.636  93.3790  0.00  0.00     0.000 O
ATOM     28  HD  NAG B   2      14.494  38.171  92.7700  0.00  0.00     0.000 HD
BRANCH 18 30
ATOM     28   N  NAG B   2      12.819  37.863  87.7400  0.00  0.00     0.000 N
ATOM     30  HD  NAG B   2      13.489  38.055  87.2250  0.00  0.00     0.000 HD
ATOM     30   C  NAG B   2      12.288  38.452  86.6590  0.00  0.00     0.000 C
ATOM     31   C  NAG B   2      12.962  38.113  85.3600  0.00  0.00     0.000 C
ATOM     32   O  NAG B   2      11.344  39.206  86.7070  0.00  0.00     0.000 OA
ENDBRANCH 18 30
BRANCH 17 33
ATOM     33  O4  BDP B   3      14.056  35.718  89.0110  0.00  0.00     0.000 O
BRANCH 33 37
ATOM     34  C1  BDP B   3      12.445  31.841  89.7980  0.00  0.00     0.000 C
ATOM     35  C2  BDP B   3      13.751  32.207  90.4930  0.00  0.00     0.000 C
ATOM     36  C3  BDP B   3      14.035  33.705  90.5100  0.00  0.00     0.000 C
ATOM     37  C4  BDP B   3      13.775  34.291  89.1140  0.00  0.00     0.000 C
ATOM     38  C5  BDP B   3      12.323  33.944  88.7350  0.00  0.00     0.000 C
ATOM     39  O5  BDP B   3      12.300  32.529  88.5500  0.00  0.00     0.000 O
ATOM     40   O  BDP B   3      13.672  31.657  91.8100  0.00  0.00     0.000 O
ATOM     42  HD  BDP B   3      13.904  30.953  91.3620  0.00  0.00     0.000 HD
ATOM     42   O  BDP B   3      15.397  33.860  90.9050  0.00  0.00     0.000 O
ATOM     44  HD  BDP B   3      15.630  33.156  90.4570  0.00  0.00     0.000 HD
BRANCH 38 44
ATOM     44   C  BDP B   3      11.826  34.625  87.4980  0.00  0.00     0.000 C
ATOM     45   O  BDP B   3      10.796  35.328  87.5900  0.00  0.00     0.000 OA
ATOM     46   O  BDP B   3      12.442  34.475  86.4200  0.00  0.00     0.000 OA
ENDBRANCH 38 44
BRANCH 34 47
ATOM     47  O3  NAG B   4      12.559  30.632  89.0500  0.00  0.00     0.000 O
BRANCH 47 50
ATOM     48  C1  NAG B   4       9.123  29.108  88.9080  0.00  0.00     0.000 C
ATOM     49  C2  NAG B   4      10.309  29.832  89.5220  0.00  0.00     0.000 C
ATOM     50  C3  NAG B   4      11.397  30.007  88.4690  0.00  0.00     0.000 C
ATOM     51  C4  NAG B   4      11.793  28.677  87.8480  0.00  0.00     0.000 C
ATOM     52  C5  NAG B   4      10.552  27.964  87.3100  0.00  0.00     0.000 C
ATOM     53  O5  NAG B   4       9.554  27.859  88.3330  0.00  0.00     0.000 O
ATOM     54   O  NAG B   4      12.733  28.915  86.7970  0.00  0.00     0.000 O
ATOM     56  HD  NAG B   4      12.697  28.082  87.0290  0.00  0.00     0.000 HD
ATOM     56   C  NAG B   4      10.894  26.572  86.7920  0.00  0.00     0.000 C
ATOM     57   O  NAG B   4      11.443  25.796  87.8650  0.00  0.00     0.000 O
ATOM     59  HD  NAG B   4      11.407  24.962  88.0970  0.00  0.00     0.000 HD
BRANCH 49 61
ATOM     59   N  NAG B   4      10.313  29.044  90.7560  0.00  0.00     0.000 N
ATOM     61  HD  NAG B   4      10.763  29.691  90.3960  0.00  0.00     0.000 HD
ATOM     61   O  NAG B   4      10.709  30.759  92.1720  0.00  0.00     0.000 OA
ATOM     62   C  NAG B   4      10.439  29.584  91.9740  0.00  0.00     0.000 C
ATOM     63   C  NAG B   4      10.205  28.652  93.1210  0.00  0.00     0.000 C
ENDBRANCH 49 61
BRANCH 48 64
ATOM     64  O4  BDP B   5       7.725  29.136  89.1770  0.00  0.00     0.000 O
BRANCH 64 68
ATOM     65  C1  BDP B   5       5.630  32.511  90.4390  0.00  0.00     0.000 C
ATOM     66  C2  BDP B   5       5.717  31.367  91.4400  0.00  0.00     0.000 C
ATOM     67  C3  BDP B   5       6.836  30.416  91.0360  0.00  0.00     0.000 C
ATOM     68  C4  BDP B   5       6.617  29.924  89.6100  0.00  0.00     0.000 C
ATOM     69  C5  BDP B   5       6.425  31.073  88.6280  0.00  0.00     0.000 C
ATOM     70  O5  BDP B   5       5.432  31.993  89.1140  0.00  0.00     0.000 O
ATOM     71   O  BDP B   5       5.921  31.896  92.7590  0.00  0.00     0.000 O
ATOM     73  HD  BDP B   5       6.063  32.266  93.5290  0.00  0.00     0.000 HD
ATOM     73   O  BDP B   5       6.885  29.291  91.9220  0.00  0.00     0.000 O
ATOM     75  HD  BDP B   5       7.027  29.661  92.6920  0.00  0.00     0.000 HD
BRANCH 69 75
ATOM     75   C  BDP B   5       5.977  30.499  87.3080  0.00  0.00     0.000 C
ATOM     76   O  BDP B   5       6.717  30.635  86.3130  0.00  0.00     0.000 OA
ATOM     77   O  BDP B   5       4.886  29.903  87.2490  0.00  0.00     0.000 OA
ENDBRANCH 69 75
BRANCH 65 78
ATOM     78  O3  NAG B   6       4.452  33.241  90.0840  0.00  0.00     0.000 O
BRANCH 78 81
ATOM     79  C1  NAG B   6       3.636  36.925  89.7750  0.00  0.00     0.000 C
ATOM     80  C2  NAG B   6       3.980  35.600  90.4730  0.00  0.00     0.000 C
ATOM     81  C3  NAG B   6       4.279  34.523  89.4430  0.00  0.00     0.000 C
ATOM     82  C4  NAG B   6       3.158  34.439  88.4010  0.00  0.00     0.000 C
ATOM     83  C5  NAG B   6       2.935  35.815  87.7850  0.00  0.00     0.000 C
ATOM     84  O5  NAG B   6       2.566  36.706  88.8380  0.00  0.00     0.000 O
BRANCH 80 87
ATOM     85   N  NAG B   6       5.045  35.917  91.4200  0.00  0.00     0.000 N
ATOM     87  HD  NAG B   6       5.298  36.247  92.1800  0.00  0.00     0.000 HD
ATOM     87   C  NAG B   6       5.170  35.348  92.6260  0.00  0.00     0.000 C
ATOM     88   C  NAG B   6       6.352  35.785  93.4310  0.00  0.00     0.000 C
ATOM     89   O  NAG B   6       4.385  34.509  93.0530  0.00  0.00     0.000 OA
ENDBRANCH 80 87
ATOM     90   O  NAG B   6       2.451  36.083  85.4300  0.00  0.00     0.000 O
ATOM     92  HD  NAG B   6       2.813  36.438  86.1320  0.00  0.00     0.000 HD
ATOM     92   O  NAG B   6       2.451  36.083  85.4300  0.00  0.00     0.000 O
ATOM     94  HD  NAG B   6       2.813  36.438  86.1320  0.00  0.00     0.000 HD
ENDBRANCH 78 81
ENDBRANCH 65 78
ENDBRANCH 64 68
ENDBRANCH 48 64
ENDBRANCH 47 50
ENDBRANCH 34 47
ENDBRANCH 33 37
ENDBRANCH 17 33
ENDBRANCH 16 19
ENDBRANCH 1 16
TORSDOF 16
ENDMDL
MODEL 66
REMARK VINA RESULT:      -1.3     45.537     49.730
ROOT
ATOM      1  C1  BDP B   1      30.804  61.177  39.7150  0.00  0.00     0.000 C
ATOM      2  C2  BDP B   1      30.663  60.744  41.1630  0.00  0.00     0.000 C
ATOM      3  C3  BDP B   1      29.632  59.648  41.3330  0.00  0.00     0.000 C
ATOM      4  C4  BDP B   1      29.221  58.974  40.0280  0.00  0.00     0.000 C
ATOM      5  C5  BDP B   1      28.919  59.974  38.9160  0.00  0.00     0.000 C
ATOM      6  O5  BDP B   1      29.492  61.267  39.1800  0.00  0.00     0.000 O
ATOM      7   O  BDP B   1      31.927  60.295  41.6620  0.00  0.00     0.000 O
ATOM      9  HD  BDP B   1      32.785  60.381  41.7460  0.00  0.00     0.000 HD
ATOM      9   O  BDP B   1      28.444  60.182  41.9390  0.00  0.00     0.000 O
ATOM     11  HD  BDP B   1      29.302  60.269  42.0230  0.00  0.00     0.000 HD
ATOM     11   O  BDP B   1      30.239  58.063  39.5950  0.00  0.00     0.000 O
ATOM     13  HD  BDP B   1      31.096  58.150  39.6790  0.00  0.00     0.000 HD
ENDROOT
BRANCH 5 13
ATOM     13   C  BDP B   1      27.438  60.092  38.8200  0.00  0.00     0.000 C
ATOM     14   O  BDP B   1      26.866  60.938  39.5380  0.00  0.00     0.000 OA
ATOM     15   O  BDP B   1      26.822  59.364  38.0120  0.00  0.00     0.000 OA
ENDBRANCH 5 13
BRANCH 1 16
ATOM     16  O3  NAG B   2      31.941  61.178  38.8540  0.00  0.00     0.000 O
BRANCH 16 19
ATOM     17  C1  NAG B   2      32.730  58.903  36.1240  0.00  0.00     0.000 C
ATOM     18  C2  NAG B   2      31.803  59.938  36.7620  0.00  0.00     0.000 C
ATOM     19  C3  NAG B   2      32.598  60.916  37.6130  0.00  0.00     0.000 C
ATOM     20  C4  NAG B   2      34.020  60.412  37.8790  0.00  0.00     0.000 C
ATOM     21  C5  NAG B   2      34.151  58.893  38.0500  0.00  0.00     0.000 C
ATOM     22  O5  NAG B   2      33.256  58.146  37.2170  0.00  0.00     0.000 O
ATOM     23   O  NAG B   2      34.865  60.855  36.8120  0.00  0.00     0.000 O
ATOM     25  HD  NAG B   2      34.281  60.701  36.1910  0.00  0.00     0.000 HD
ATOM     25   C  NAG B   2      33.910  58.490  39.5120  0.00  0.00     0.000 C
ATOM     26   O  NAG B   2      35.105  58.603  40.2980  0.00  0.00     0.000 O
ATOM     28  HD  NAG B   2      34.521  58.449  39.6770  0.00  0.00     0.000 HD
BRANCH 18 30
ATOM     28   N  NAG B   2      30.977  60.512  35.7010  0.00  0.00     0.000 N
ATOM     30  HD  NAG B   2      30.484  60.291  35.0230  0.00  0.00     0.000 HD
ATOM     30   C  NAG B   2      31.443  61.226  34.6660  0.00  0.00     0.000 C
ATOM     31   C  NAG B   2      30.391  61.717  33.7120  0.00  0.00     0.000 C
ATOM     32   O  NAG B   2      32.616  61.460  34.4930  0.00  0.00     0.000 OA
ENDBRANCH 18 30
BRANCH 17 33
ATOM     33  O4  BDP B   3      32.984  57.616  35.5200  0.00  0.00     0.000 O
BRANCH 33 37
ATOM     34  C1  BDP B   3      30.672  54.045  35.1380  0.00  0.00     0.000 C
ATOM     35  C2  BDP B   3      32.062  53.914  35.7510  0.00  0.00     0.000 C
ATOM     36  C3  BDP B   3      32.641  55.237  36.2390  0.00  0.00     0.000 C
ATOM     37  C4  BDP B   3      32.429  56.316  35.1670  0.00  0.00     0.000 C
ATOM     38  C5  BDP B   3      30.917  56.377  34.8720  0.00  0.00     0.000 C
ATOM     39  O5  BDP B   3      30.601  55.145  34.2240  0.00  0.00     0.000 O
ATOM     40   O  BDP B   3      31.945  52.953  36.8030  0.00  0.00     0.000 O
ATOM     42  HD  BDP B   3      32.006  52.426  36.1190  0.00  0.00     0.000 HD
ATOM     42   O  BDP B   3      34.026  55.008  36.4950  0.00  0.00     0.000 O
ATOM     44  HD  BDP B   3      34.087  54.481  35.8110  0.00  0.00     0.000 HD
BRANCH 38 44
ATOM     44   C  BDP B   3      30.501  57.526  34.0090  0.00  0.00     0.000 C
ATOM     45   O  BDP B   3      29.553  58.240  34.4020  0.00  0.00     0.000 OA
ATOM     46   O  BDP B   3      31.101  57.740  32.9330  0.00  0.00     0.000 OA
ENDBRANCH 38 44
BRANCH 34 47
ATOM     47  O3  NAG B   4      30.500  53.180  34.0170  0.00  0.00     0.000 O
BRANCH 47 50
ATOM     48  C1  NAG B   4      26.865  52.228  33.8440  0.00  0.00     0.000 C
ATOM     49  C2  NAG B   4      28.210  52.506  34.4930  0.00  0.00     0.000 C
ATOM     50  C3  NAG B   4      29.198  52.975  33.4310  0.00  0.00     0.000 C
ATOM     51  C4  NAG B   4      29.307  51.977  32.2890  0.00  0.00     0.000 C
ATOM     52  C5  NAG B   4      27.918  51.683  31.7230  0.00  0.00     0.000 C
ATOM     53  O5  NAG B   4      27.026  51.281  32.7700  0.00  0.00     0.000 O
ATOM     54   O  NAG B   4      30.161  52.518  31.2780  0.00  0.00     0.000 O
ATOM     56  HD  NAG B   4      30.013  51.671  31.1720  0.00  0.00     0.000 HD
ATOM     56   C  NAG B   4      27.973  50.593  30.6590  0.00  0.00     0.000 C
ATOM     57   O  NAG B   4      28.495  49.393  31.2450  0.00  0.00     0.000 O
ATOM     59  HD  NAG B   4      28.347  48.547  31.1390  0.00  0.00     0.000 HD
BRANCH 49 61
ATOM     59   N  NAG B   4      28.151  51.305  35.3280  0.00  0.00     0.000 N
ATOM     61  HD  NAG B   4      28.696  51.959  35.1660  0.00  0.00     0.000 HD
ATOM     61   O  NAG B   4      29.024  52.229  37.1950  0.00  0.00     0.000 OA
ATOM     62   C  NAG B   4      28.493  51.289  36.6210  0.00  0.00     0.000 C
ATOM     63   C  NAG B   4      28.165  50.031  37.3610  0.00  0.00     0.000 C
ENDBRANCH 49 61
BRANCH 48 64
ATOM     64  O4  BDP B   5      25.525  52.295  34.3210  0.00  0.00     0.000 O
BRANCH 64 68
ATOM     65  C1  BDP B   5      24.374  53.940  37.9740  0.00  0.00     0.000 C
ATOM     66  C2  BDP B   5      23.917  52.511  37.7120  0.00  0.00     0.000 C
ATOM     67  C3  BDP B   5      24.744  51.907  36.5840  0.00  0.00     0.000 C
ATOM     68  C4  BDP B   5      24.653  52.783  35.3400  0.00  0.00     0.000 C
ATOM     69  C5  BDP B   5      25.011  54.235  35.6320  0.00  0.00     0.000 C
ATOM     70  O5  BDP B   5      24.277  54.718  36.7700  0.00  0.00     0.000 O
ATOM     71   O  BDP B   5      24.024  51.742  38.9200  0.00  0.00     0.000 O
ATOM     73  HD  BDP B   5      24.128  51.320  39.6690  0.00  0.00     0.000 HD
ATOM     73   O  BDP B   5      24.278  50.589  36.2690  0.00  0.00     0.000 O
ATOM     75  HD  BDP B   5      24.381  50.167  37.0180  0.00  0.00     0.000 HD
BRANCH 69 75
ATOM     75   C  BDP B   5      24.662  55.061  34.4200  0.00  0.00     0.000 C
ATOM     76   O  BDP B   5      23.467  55.136  34.0690  0.00  0.00     0.000 OA
ATOM     77   O  BDP B   5      25.573  55.648  33.8070  0.00  0.00     0.000 OA
ENDBRANCH 69 75
BRANCH 65 78
ATOM     78  O3  NAG B   6      23.566  55.014  38.4640  0.00  0.00     0.000 O
BRANCH 78 81
ATOM     79  C1  NAG B   6      23.664  57.413  41.3910  0.00  0.00     0.000 C
ATOM     80  C2  NAG B   6      23.448  56.084  40.6490  0.00  0.00     0.000 C
ATOM     81  C3  NAG B   6      23.907  56.205  39.2050  0.00  0.00     0.000 C
ATOM     82  C4  NAG B   6      23.282  57.434  38.5360  0.00  0.00     0.000 C
ATOM     83  C5  NAG B   6      23.586  58.674  39.3690  0.00  0.00     0.000 C
ATOM     84  O5  NAG B   6      23.019  58.474  40.6640  0.00  0.00     0.000 O
BRANCH 80 87
ATOM     85   N  NAG B   6      24.101  55.067  41.4700  0.00  0.00     0.000 N
ATOM     87  HD  NAG B   6      24.094  54.546  42.1610  0.00  0.00     0.000 HD
ATOM     87   C  NAG B   6      23.641  53.819  41.6220  0.00  0.00     0.000 C
ATOM     88   C  NAG B   6      24.477  52.920  42.4770  0.00  0.00     0.000 C
ATOM     89   O  NAG B   6      22.613  53.416  41.0920  0.00  0.00     0.000 OA
ENDBRANCH 80 87
ATOM     90   O  NAG B   6      24.111  60.796  38.3340  0.00  0.00     0.000 O
ATOM     92  HD  NAG B   6      24.235  60.283  39.0210  0.00  0.00     0.000 HD
ATOM     92   O  NAG B   6      24.111  60.796  38.3340  0.00  0.00     0.000 O
ATOM     94  HD  NAG B   6      24.235  60.283  39.0210  0.00  0.00     0.000 HD
ENDBRANCH 78 81
ENDBRANCH 65 78
ENDBRANCH 64 68
ENDBRANCH 48 64
ENDBRANCH 47 50
ENDBRANCH 34 47
ENDBRANCH 33 37
ENDBRANCH 17 33
ENDBRANCH 16 19
ENDBRANCH 1 16
TORSDOF 16
ENDMDL
MODEL 67
REMARK VINA RESULT:      -1.3     96.528    100.595
ROOT
ATOM      1  C1  BDP B   1      15.590 112.260  50.4080  0.00  0.00     0.000 C
ATOM      2  C2  BDP B   1      16.252 113.165  51.4320  0.00  0.00     0.000 C
ATOM      3  C3  BDP B   1      16.721 112.398  52.6500  0.00  0.00     0.000 C
ATOM      4  C4  BDP B   1      16.762 110.887  52.4560  0.00  0.00     0.000 C
ATOM      5  C5  BDP B   1      15.496 110.341  51.8020  0.00  0.00     0.000 C
ATOM      6  O5  BDP B   1      14.751 111.367  51.1250  0.00  0.00     0.000 O
ATOM      7   O  BDP B   1      17.361 113.845  50.8350  0.00  0.00     0.000 O
ATOM      9  HD  BDP B   1      17.721 114.283  50.1800  0.00  0.00     0.000 HD
ATOM      9   O  BDP B   1      15.856 112.671  53.7640  0.00  0.00     0.000 O
ATOM     11  HD  BDP B   1      16.216 113.109  53.1090  0.00  0.00     0.000 HD
ATOM     11   O  BDP B   1      17.906 110.514  51.6780  0.00  0.00     0.000 O
ATOM     13  HD  BDP B   1      18.266 110.951  51.0230  0.00  0.00     0.000 HD
ENDROOT
BRANCH 5 13
ATOM     13   C  BDP B   1      14.663 109.747  52.8840  0.00  0.00     0.000 C
ATOM     14   O  BDP B   1      14.797 108.530  53.1300  0.00  0.00     0.000 OA
ATOM     15   O  BDP B   1      13.882 110.483  53.5240  0.00  0.00     0.000 OA
ENDBRANCH 5 13
BRANCH 1 16
ATOM     16  O3  NAG B   2      15.916 112.011  49.0420  0.00  0.00     0.000 O
BRANCH 16 19
ATOM     17  C1  NAG B   2      17.550 109.115  47.5600  0.00  0.00     0.000 C
ATOM     18  C2  NAG B   2      16.401 109.721  48.3640  0.00  0.00     0.000 C
ATOM     19  C3  NAG B   2      16.134 111.152  47.9210  0.00  0.00     0.000 C
ATOM     20  C4  NAG B   2      17.275 111.702  47.0630  0.00  0.00     0.000 C
ATOM     21  C5  NAG B   2      18.679 111.223  47.4590  0.00  0.00     0.000 C
ATOM     22  O5  NAG B   2      18.706 109.870  47.9290  0.00  0.00     0.000 O
ATOM     23   O  NAG B   2      17.017 111.368  45.6950  0.00  0.00     0.000 O
ATOM     25  HD  NAG B   2      16.731 110.570  45.8710  0.00  0.00     0.000 HD
ATOM     25   C  NAG B   2      19.274 112.131  48.5440  0.00  0.00     0.000 C
ATOM     26   O  NAG B   2      19.914 113.284  47.9800  0.00  0.00     0.000 O
ATOM     28  HD  NAG B   2      19.628 112.486  48.1560  0.00  0.00     0.000 HD
BRANCH 18 30
ATOM     28   N  NAG B   2      15.901 108.812  47.3340  0.00  0.00     0.000 N
ATOM     30  HD  NAG B   2      15.775 108.751  46.4790  0.00  0.00     0.000 HD
ATOM     30   C  NAG B   2      14.618 108.455  47.1810  0.00  0.00     0.000 C
ATOM     31   C  NAG B   2      14.358 107.498  46.0530  0.00  0.00     0.000 C
ATOM     32   O  NAG B   2      13.724 108.867  47.8830  0.00  0.00     0.000 OA
ENDBRANCH 18 30
BRANCH 17 33
ATOM     33  O4  BDP B   3      18.619 108.160  47.3800  0.00  0.00     0.000 O
BRANCH 33 37
ATOM     34  C1  BDP B   3      20.568 105.395  49.9870  0.00  0.00     0.000 C
ATOM     35  C2  BDP B   3      21.455 106.339  49.1840  0.00  0.00     0.000 C
ATOM     36  C3  BDP B   3      20.711 107.545  48.6220  0.00  0.00     0.000 C
ATOM     37  C4  BDP B   3      19.392 107.082  47.9840  0.00  0.00     0.000 C
ATOM     38  C5  BDP B   3      18.603 106.322  49.0670  0.00  0.00     0.000 C
ATOM     39  O5  BDP B   3      19.337 105.121  49.3080  0.00  0.00     0.000 O
ATOM     40   O  BDP B   3      22.524 106.719  50.0530  0.00  0.00     0.000 O
ATOM     42  HD  BDP B   3      22.808 105.946  49.7870  0.00  0.00     0.000 HD
ATOM     42   O  BDP B   3      21.578 108.152  47.6660  0.00  0.00     0.000 O
ATOM     44  HD  BDP B   3      21.863 107.379  47.4000  0.00  0.00     0.000 HD
BRANCH 38 44
ATOM     44   C  BDP B   3      17.194 105.987  48.6860  0.00  0.00     0.000 C
ATOM     45   O  BDP B   3      16.276 106.378  49.4400  0.00  0.00     0.000 OA
ATOM     46   O  BDP B   3      16.975 105.335  47.6430  0.00  0.00     0.000 OA
ENDBRANCH 38 44
BRANCH 34 47
ATOM     47  O3  NAG B   4      20.917 104.028  49.7780  0.00  0.00     0.000 O
BRANCH 47 50
ATOM     48  C1  NAG B   4      19.560 101.873  52.5460  0.00  0.00     0.000 C
ATOM     49  C2  NAG B   4      20.301 103.039  51.9160  0.00  0.00     0.000 C
ATOM     50  C3  NAG B   4      20.164 102.966  50.3990  0.00  0.00     0.000 C
ATOM     51  C4  NAG B   4      20.635 101.626  49.8590  0.00  0.00     0.000 C
ATOM     52  C5  NAG B   4      19.907 100.490  50.5790  0.00  0.00     0.000 C
ATOM     53  O5  NAG B   4      20.043 100.631  51.9990  0.00  0.00     0.000 O
ATOM     54   O  NAG B   4      20.383 101.575  48.4520  0.00  0.00     0.000 O
ATOM     56  HD  NAG B   4      20.917 100.948  48.7180  0.00  0.00     0.000 HD
ATOM     56   C  NAG B   4      20.444  99.129  50.1520  0.00  0.00     0.000 C
ATOM     57   O  NAG B   4      21.840  99.057  50.4700  0.00  0.00     0.000 O
ATOM     59  HD  NAG B   4      22.375  98.429  50.7360  0.00  0.00     0.000 HD
BRANCH 49 61
ATOM     59   N  NAG B   4      21.484 102.906  52.7670  0.00  0.00     0.000 N
ATOM     61  HD  NAG B   4      21.203 103.406  52.1180  0.00  0.00     0.000 HD
ATOM     61   O  NAG B   4      21.810 105.112  53.1260  0.00  0.00     0.000 OA
ATOM     62   C  NAG B   4      22.090 103.944  53.3550  0.00  0.00     0.000 C
ATOM     63   C  NAG B   4      23.146 103.595  54.3550  0.00  0.00     0.000 C
ENDBRANCH 49 61
BRANCH 48 64
ATOM     64  O4  BDP B   5      18.907 101.703  53.8010  0.00  0.00     0.000 O
BRANCH 64 68
ATOM     65  C1  BDP B   5      17.837 104.822  56.3500  0.00  0.00     0.000 C
ATOM     66  C2  BDP B   5      18.793 103.787  56.9280  0.00  0.00     0.000 C
ATOM     67  C3  BDP B   5      19.421 102.982  55.7970  0.00  0.00     0.000 C
ATOM     68  C4  BDP B   5      18.333 102.351  54.9350  0.00  0.00     0.000 C
ATOM     69  C5  BDP B   5      17.319 103.378  54.4470  0.00  0.00     0.000 C
ATOM     70  O5  BDP B   5      16.840 104.177  55.5430  0.00  0.00     0.000 O
ATOM     71   O  BDP B   5      19.789 104.443  57.7280  0.00  0.00     0.000 O
ATOM     73  HD  BDP B   5      20.376 104.890  58.1810  0.00  0.00     0.000 HD
ATOM     73   O  BDP B   5      20.265 101.951  56.3220  0.00  0.00     0.000 O
ATOM     75  HD  BDP B   5      20.852 102.398  56.7750  0.00  0.00     0.000 HD
BRANCH 69 75
ATOM     75   C  BDP B   5      16.163 102.641  53.8190  0.00  0.00     0.000 C
ATOM     76   O  BDP B   5      15.475 101.884  54.5330  0.00  0.00     0.000 OA
ATOM     77   O  BDP B   5      15.926 102.810  52.6080  0.00  0.00     0.000 OA
ENDBRANCH 69 75
BRANCH 65 78
ATOM     78  O3  NAG B   6      16.664 105.340  56.9830  0.00  0.00     0.000 O
BRANCH 78 81
ATOM     79  C1  NAG B   6      15.304 108.681  58.1340  0.00  0.00     0.000 C
ATOM     80  C2  NAG B   6      16.136 107.390  58.1910  0.00  0.00     0.000 C
ATOM     81  C3  NAG B   6      16.011 106.625  56.8830  0.00  0.00     0.000 C
ATOM     82  C4  NAG B   6      14.540 106.435  56.5010  0.00  0.00     0.000 C
ATOM     83  C5  NAG B   6      13.845 107.791  56.4710  0.00  0.00     0.000 C
ATOM     84  O5  NAG B   6      13.948 108.358  57.7780  0.00  0.00     0.000 O
BRANCH 80 87
ATOM     85   N  NAG B   6      16.960 106.894  59.2900  0.00  0.00     0.000 N
ATOM     87  HD  NAG B   6      17.590 106.375  59.5780  0.00  0.00     0.000 HD
ATOM     87   C  NAG B   6      18.282 107.086  59.3810  0.00  0.00     0.000 C
ATOM     88   C  NAG B   6      18.935 106.527  60.6050  0.00  0.00     0.000 C
ATOM     89   O  NAG B   6      18.930 107.689  58.5340  0.00  0.00     0.000 OA
ENDBRANCH 80 87
ATOM     90   O  NAG B   6      12.193 108.330  54.7890  0.00  0.00     0.000 O
ATOM     92  HD  NAG B   6      12.810 108.639  55.3120  0.00  0.00     0.000 HD
ATOM     92   O  NAG B   6      12.193 108.330  54.7890  0.00  0.00     0.000 O
ATOM     94  HD  NAG B   6      12.810 108.639  55.3120  0.00  0.00     0.000 HD
ENDBRANCH 78 81
ENDBRANCH 65 78
ENDBRANCH 64 68
ENDBRANCH 48 64
ENDBRANCH 47 50
ENDBRANCH 34 47
ENDBRANCH 33 37
ENDBRANCH 17 33
ENDBRANCH 16 19
ENDBRANCH 1 16
TORSDOF 16
ENDMDL
MODEL 68
REMARK VINA RESULT:      -1.3     96.612    100.702
ROOT
ATOM      1  C1  BDP B   1      42.256  87.250  86.5040  0.00  0.00     0.000 C
ATOM      2  C2  BDP B   1      41.286  86.991  85.3650  0.00  0.00     0.000 C
ATOM      3  C3  BDP B   1      41.982  86.950  84.0210  0.00  0.00     0.000 C
ATOM      4  C4  BDP B   1      43.498  86.818  84.1110  0.00  0.00     0.000 C
ATOM      5  C5  BDP B   1      44.115  87.778  85.1250  0.00  0.00     0.000 C
ATOM      6  O5  BDP B   1      43.146  88.267  86.0670  0.00  0.00     0.000 O
ATOM      7   O  BDP B   1      40.594  85.757  85.5860  0.00  0.00     0.000 O
ATOM      9  HD  BDP B   1      40.173  85.205  86.1030  0.00  0.00     0.000 HD
ATOM      9   O  BDP B   1      41.691  88.146  83.2820  0.00  0.00     0.000 O
ATOM     11  HD  BDP B   1      41.270  87.594  83.7990  0.00  0.00     0.000 HD
ATOM     11   O  BDP B   1      43.865  85.472  84.4350  0.00  0.00     0.000 O
ATOM     13  HD  BDP B   1      43.444  84.919  84.9520  0.00  0.00     0.000 HD
ENDROOT
BRANCH 5 13
ATOM     13   C  BDP B   1      44.691  88.917  84.3590  0.00  0.00     0.000 C
ATOM     14   O  BDP B   1      45.909  88.888  84.0850  0.00  0.00     0.000 OA
ATOM     15   O  BDP B   1      43.939  89.846  83.9950  0.00  0.00     0.000 OA
ENDBRANCH 5 13
BRANCH 1 16
ATOM     16  O3  NAG B   2      42.553  86.474  87.6630  0.00  0.00     0.000 O
BRANCH 16 19
ATOM     17  C1  NAG B   2      45.567  84.538  88.3100  0.00  0.00     0.000 C
ATOM     18  C2  NAG B   2      44.881  85.883  88.0670  0.00  0.00     0.000 C
ATOM     19  C3  NAG B   2      43.451  85.856  88.5850  0.00  0.00     0.000 C
ATOM     20  C4  NAG B   2      42.983  84.429  88.8840  0.00  0.00     0.000 C
ATOM     21  C5  NAG B   2      43.523  83.353  87.9310  0.00  0.00     0.000 C
ATOM     22  O5  NAG B   2      44.862  83.604  87.4890  0.00  0.00     0.000 O
ATOM     23   O  NAG B   2      43.341  84.106  90.2320  0.00  0.00     0.000 O
ATOM     25  HD  NAG B   2      44.118  84.485  90.1910  0.00  0.00     0.000 HD
ATOM     25   C  NAG B   2      42.617  83.218  86.6990  0.00  0.00     0.000 C
ATOM     26   O  NAG B   2      41.513  82.335  86.9450  0.00  0.00     0.000 O
ATOM     28  HD  NAG B   2      42.291  82.714  86.9040  0.00  0.00     0.000 HD
BRANCH 18 30
ATOM     28   N  NAG B   2      45.750  86.933  88.5970  0.00  0.00     0.000 N
ATOM     30  HD  NAG B   2      46.572  87.205  88.5960  0.00  0.00     0.000 HD
ATOM     30   C  NAG B   2      46.087  87.072  89.8870  0.00  0.00     0.000 C
ATOM     31   C  NAG B   2      46.985  88.239  90.1840  0.00  0.00     0.000 C
ATOM     32   O  NAG B   2      45.713  86.321  90.7580  0.00  0.00     0.000 OA
ENDBRANCH 18 30
BRANCH 17 33
ATOM     33  O4  BDP B   3      46.580  83.550  88.0190  0.00  0.00     0.000 O
BRANCH 33 37
ATOM     34  C1  BDP B   3      49.164  82.872  84.6870  0.00  0.00     0.000 C
ATOM     35  C2  BDP B   3      48.339  81.689  85.1810  0.00  0.00     0.000 C
ATOM     36  C3  BDP B   3      47.162  82.091  86.0620  0.00  0.00     0.000 C
ATOM     37  C4  BDP B   3      47.627  83.126  87.0980  0.00  0.00     0.000 C
ATOM     38  C5  BDP B   3      48.246  84.304  86.3220  0.00  0.00     0.000 C
ATOM     39  O5  BDP B   3      49.448  83.796  85.7430  0.00  0.00     0.000 O
ATOM     40   O  BDP B   3      47.924  80.976  84.0150  0.00  0.00     0.000 O
ATOM     42  HD  BDP B   3      48.731  80.674  84.1010  0.00  0.00     0.000 HD
ATOM     42   O  BDP B   3      46.686  80.897  86.6810  0.00  0.00     0.000 O
ATOM     44  HD  BDP B   3      47.493  80.595  86.7680  0.00  0.00     0.000 HD
BRANCH 38 44
ATOM     44   C  BDP B   3      48.555  85.505  87.1610  0.00  0.00     0.000 C
ATOM     45   O  BDP B   3      49.243  85.336  88.1920  0.00  0.00     0.000 OA
ATOM     46   O  BDP B   3      48.124  86.627  86.8180  0.00  0.00     0.000 OA
ENDBRANCH 38 44
BRANCH 34 47
ATOM     47  O3  NAG B   4      50.558  82.574  84.6540  0.00  0.00     0.000 O
BRANCH 47 50
ATOM     48  C1  NAG B   4      52.063  84.750  81.9810  0.00  0.00     0.000 C
ATOM     49  C2  NAG B   4      51.028  83.854  82.6370  0.00  0.00     0.000 C
ATOM     50  C3  NAG B   4      51.497  83.480  84.0380  0.00  0.00     0.000 C
ATOM     51  C4  NAG B   4      52.877  82.843  84.0160  0.00  0.00     0.000 C
ATOM     52  C5  NAG B   4      53.859  83.758  83.2820  0.00  0.00     0.000 C
ATOM     53  O5  NAG B   4      53.350  84.101  81.9870  0.00  0.00     0.000 O
ATOM     54   O  NAG B   4      53.307  82.615  85.3600  0.00  0.00     0.000 O
ATOM     56  HD  NAG B   4      53.791  82.193  84.7790  0.00  0.00     0.000 HD
ATOM     56   C  NAG B   4      55.223  83.096  83.1300  0.00  0.00     0.000 C
ATOM     57   O  NAG B   4      55.074  81.884  82.3800  0.00  0.00     0.000 O
ATOM     59  HD  NAG B   4      55.558  81.461  81.7990  0.00  0.00     0.000 HD
BRANCH 49 61
ATOM     59   N  NAG B   4      50.824  83.011  81.4580  0.00  0.00     0.000 N
ATOM     61  HD  NAG B   4      50.533  83.072  82.2710  0.00  0.00     0.000 HD
ATOM     61   O  NAG B   4      48.577  82.850  81.6240  0.00  0.00     0.000 OA
ATOM     62   C  NAG B   4      49.616  82.645  81.0130  0.00  0.00     0.000 C
ATOM     63   C  NAG B   4      49.595  81.967  79.6800  0.00  0.00     0.000 C
ENDBRANCH 49 61
BRANCH 48 64
ATOM     64  O4  BDP B   5      51.973  85.780  81.0010  0.00  0.00     0.000 O
BRANCH 64 68
ATOM     65  C1  BDP B   5      48.767  88.419  80.6400  0.00  0.00     0.000 C
ATOM     66  C2  BDP B   5      48.971  87.455  79.4790  0.00  0.00     0.000 C
ATOM     67  C3  BDP B   5      49.865  86.304  79.9200  0.00  0.00     0.000 C
ATOM     68  C4  BDP B   5      51.183  86.842  80.4670  0.00  0.00     0.000 C
ATOM     69  C5  BDP B   5      50.970  87.885  81.5570  0.00  0.00     0.000 C
ATOM     70  O5  BDP B   5      50.037  88.889  81.1200  0.00  0.00     0.000 O
ATOM     71   O  BDP B   5      47.697  86.988  79.0100  0.00  0.00     0.000 O
ATOM     73  HD  BDP B   5      46.905  86.723  78.7810  0.00  0.00     0.000 HD
ATOM     73   O  BDP B   5      50.133  85.425  78.8210  0.00  0.00     0.000 O
ATOM     75  HD  BDP B   5      49.341  85.160  78.5920  0.00  0.00     0.000 HD
BRANCH 69 75
ATOM     75   C  BDP B   5      52.298  88.530  81.8610  0.00  0.00     0.000 C
ATOM     76   O  BDP B   5      52.865  89.187  80.9650  0.00  0.00     0.000 OA
ATOM     77   O  BDP B   5      52.789  88.393  82.9970  0.00  0.00     0.000 OA
ENDBRANCH 69 75
BRANCH 65 78
ATOM     78  O3  NAG B   6      48.539  89.828  80.5430  0.00  0.00     0.000 O
BRANCH 78 81
ATOM     79  C1  NAG B   6      46.005  92.203  82.0510  0.00  0.00     0.000 C
ATOM     80  C2  NAG B   6      46.536  91.077  81.1500  0.00  0.00     0.000 C
ATOM     81  C3  NAG B   6      47.988  90.774  81.4850  0.00  0.00     0.000 C
ATOM     82  C4  NAG B   6      48.826  92.057  81.4880  0.00  0.00     0.000 C
ATOM     83  C5  NAG B   6      48.191  93.074  82.4300  0.00  0.00     0.000 C
ATOM     84  O5  NAG B   6      46.874  93.345  81.9500  0.00  0.00     0.000 O
BRANCH 80 87
ATOM     85   N  NAG B   6      45.589  89.974  81.2900  0.00  0.00     0.000 N
ATOM     87  HD  NAG B   6      44.827  89.612  81.0940  0.00  0.00     0.000 HD
ATOM     87   C  NAG B   6      45.238  89.156  80.2900  0.00  0.00     0.000 C
ATOM     88   C  NAG B   6      44.279  88.066  80.6500  0.00  0.00     0.000 C
ATOM     89   O  NAG B   6      45.674  89.268  79.1510  0.00  0.00     0.000 OA
ENDBRANCH 80 87
ATOM     90   O  NAG B   6      49.539  94.507  83.8370  0.00  0.00     0.000 O
ATOM     92  HD  NAG B   6      48.784  94.091  83.7520  0.00  0.00     0.000 HD
ATOM     92   O  NAG B   6      49.539  94.507  83.8370  0.00  0.00     0.000 O
ATOM     94  HD  NAG B   6      48.784  94.091  83.7520  0.00  0.00     0.000 HD
ENDBRANCH 78 81
ENDBRANCH 65 78
ENDBRANCH 64 68
ENDBRANCH 48 64
ENDBRANCH 47 50
ENDBRANCH 34 47
ENDBRANCH 33 37
ENDBRANCH 17 33
ENDBRANCH 16 19
ENDBRANCH 1 16
TORSDOF 16
ENDMDL
MODEL 69
REMARK VINA RESULT:      -1.2     98.608    102.366
ROOT
ATOM      1  C1  BDP B   1      28.373 110.422  45.1380  0.00  0.00     0.000 C
ATOM      2  C2  BDP B   1      28.504 111.928  45.2830  0.00  0.00     0.000 C
ATOM      3  C3  BDP B   1      28.425 112.369  46.7290  0.00  0.00     0.000 C
ATOM      4  C4  BDP B   1      28.589 111.236  47.7350  0.00  0.00     0.000 C
ATOM      5  C5  BDP B   1      27.744 110.014  47.3910  0.00  0.00     0.000 C
ATOM      6  O5  BDP B   1      27.334 110.009  46.0130  0.00  0.00     0.000 O
ATOM      7   O  BDP B   1      29.742 112.366  44.7140  0.00  0.00     0.000 O
ATOM      9  HD  BDP B   1      30.336 112.351  44.0840  0.00  0.00     0.000 HD
ATOM      9   O  BDP B   1      27.157 112.996  46.9810  0.00  0.00     0.000 O
ATOM     11  HD  BDP B   1      27.751 112.981  46.3510  0.00  0.00     0.000 HD
ATOM     11   O  BDP B   1      29.967 110.857  47.8410  0.00  0.00     0.000 O
ATOM     13  HD  BDP B   1      30.560 110.842  47.2100  0.00  0.00     0.000 HD
ENDROOT
BRANCH 5 13
ATOM     13   C  BDP B   1      26.544 110.045  48.2720  0.00  0.00     0.000 C
ATOM     14   O  BDP B   1      26.563 109.362  49.3170  0.00  0.00     0.000 OA
ATOM     15   O  BDP B   1      25.575 110.767  47.9540  0.00  0.00     0.000 OA
ENDBRANCH 5 13
BRANCH 1 16
ATOM     16  O3  NAG B   2      29.264 109.465  44.5670  0.00  0.00     0.000 O
BRANCH 16 19
ATOM     17  C1  NAG B   2      31.331 107.047  46.3370  0.00  0.00     0.000 C
ATOM     18  C2  NAG B   2      29.952 107.586  45.9560  0.00  0.00     0.000 C
ATOM     19  C3  NAG B   2      29.992 108.236  44.5810  0.00  0.00     0.000 C
ATOM     20  C4  NAG B   2      31.429 108.482  44.1120  0.00  0.00     0.000 C
ATOM     21  C5  NAG B   2      32.420 108.862  45.2210  0.00  0.00     0.000 C
ATOM     22  O5  NAG B   2      32.162 108.202  46.4660  0.00  0.00     0.000 O
ATOM     23   O  NAG B   2      31.890 107.312  43.4290  0.00  0.00     0.000 O
ATOM     25  HD  NAG B   2      31.529 106.758  43.9870  0.00  0.00     0.000 HD
ATOM     25   C  NAG B   2      32.411 110.378  45.4580  0.00  0.00     0.000 C
ATOM     26   O  NAG B   2      33.286 111.064  44.5510  0.00  0.00     0.000 O
ATOM     28  HD  NAG B   2      32.924 110.509  45.1090  0.00  0.00     0.000 HD
BRANCH 18 30
ATOM     28   N  NAG B   2      28.998 106.496  46.1610  0.00  0.00     0.000 N
ATOM     30  HD  NAG B   2      28.777 105.879  46.7270  0.00  0.00     0.000 HD
ATOM     30   C  NAG B   2      28.977 105.353  45.4610  0.00  0.00     0.000 C
ATOM     31   C  NAG B   2      27.891 104.391  45.8540  0.00  0.00     0.000 C
ATOM     32   O  NAG B   2      29.766 105.095  44.5820  0.00  0.00     0.000 OA
ENDBRANCH 18 30
BRANCH 17 33
ATOM     33  O4  BDP B   3      32.312 106.619  47.3070  0.00  0.00     0.000 O
BRANCH 33 37
ATOM     34  C1  BDP B   3      32.723 107.179  51.5210  0.00  0.00     0.000 C
ATOM     35  C2  BDP B   3      33.925 107.527  50.6510  0.00  0.00     0.000 C
ATOM     36  C3  BDP B   3      33.580 107.709  49.1770  0.00  0.00     0.000 C
ATOM     37  C4  BDP B   3      32.670 106.560  48.7180  0.00  0.00     0.000 C
ATOM     38  C5  BDP B   3      31.438 106.555  49.6430  0.00  0.00     0.000 C
ATOM     39  O5  BDP B   3      31.919 106.153  50.9260  0.00  0.00     0.000 O
ATOM     40   O  BDP B   3      34.503 108.703  51.2210  0.00  0.00     0.000 O
ATOM     42  HD  BDP B   3      34.836 108.098  51.7440  0.00  0.00     0.000 HD
ATOM     42   O  BDP B   3      34.816 107.724  48.4660  0.00  0.00     0.000 O
ATOM     44  HD  BDP B   3      35.149 107.119  48.9890  0.00  0.00     0.000 HD
BRANCH 38 44
ATOM     44   C  BDP B   3      30.339 105.638  49.2050  0.00  0.00     0.000 C
ATOM     45   O  BDP B   3      29.185 106.111  49.1070  0.00  0.00     0.000 OA
ATOM     46   O  BDP B   3      30.596 104.441  48.9520  0.00  0.00     0.000 OA
ENDBRANCH 38 44
BRANCH 34 47
ATOM     47  O3  NAG B   4      33.057 106.240  52.5420  0.00  0.00     0.000 O
BRANCH 47 50
ATOM     48  C1  NAG B   4      30.654 106.807  55.3800  0.00  0.00     0.000 C
ATOM     49  C2  NAG B   4      31.588 107.179  54.2420  0.00  0.00     0.000 C
ATOM     50  C3  NAG B   4      32.114 105.909  53.5830  0.00  0.00     0.000 C
ATOM     51  C4  NAG B   4      32.778 104.988  54.5940  0.00  0.00     0.000 C
ATOM     52  C5  NAG B   4      31.817 104.705  55.7480  0.00  0.00     0.000 C
ATOM     53  O5  NAG B   4      31.330 105.933  56.3050  0.00  0.00     0.000 O
ATOM     54   O  NAG B   4      33.153 103.772  53.9400  0.00  0.00     0.000 O
ATOM     56  HD  NAG B   4      33.525 103.861  54.7170  0.00  0.00     0.000 HD
ATOM     56   C  NAG B   4      32.491 103.886  56.8430  0.00  0.00     0.000 C
ATOM     57   O  NAG B   4      33.616 104.617  57.3480  0.00  0.00     0.000 O
ATOM     59  HD  NAG B   4      33.988 104.707  58.1250  0.00  0.00     0.000 HD
BRANCH 49 61
ATOM     59   N  NAG B   4      32.290 108.217  54.9990  0.00  0.00     0.000 N
ATOM     61  HD  NAG B   4      32.315 107.858  54.2110  0.00  0.00     0.000 HD
ATOM     61   O  NAG B   4      32.424 109.729  53.3260  0.00  0.00     0.000 OA
ATOM     62   C  NAG B   4      32.580 109.424  54.5000  0.00  0.00     0.000 C
ATOM     63   C  NAG B   4      33.104 110.422  55.4830  0.00  0.00     0.000 C
ENDBRANCH 49 61
BRANCH 48 64
ATOM     64  O4  BDP B   5      29.527 107.456  55.9610  0.00  0.00     0.000 O
BRANCH 64 68
ATOM     65  C1  BDP B   5      26.762 109.739  53.8360  0.00  0.00     0.000 C
ATOM     66  C2  BDP B   5      27.608 110.493  54.8530  0.00  0.00     0.000 C
ATOM     67  C3  BDP B   5      28.827 109.659  55.2240  0.00  0.00     0.000 C
ATOM     68  C4  BDP B   5      28.391 108.289  55.7330  0.00  0.00     0.000 C
ATOM     69  C5  BDP B   5      27.460 107.583  54.7560  0.00  0.00     0.000 C
ATOM     70  O5  BDP B   5      26.386 108.456  54.3600  0.00  0.00     0.000 O
ATOM     71   O  BDP B   5      27.983 111.770  54.3160  0.00  0.00     0.000 O
ATOM     73  HD  BDP B   5      28.197 112.519  53.9370  0.00  0.00     0.000 HD
ATOM     73   O  BDP B   5      29.597 110.316  56.2390  0.00  0.00     0.000 O
ATOM     75  HD  BDP B   5      29.811 111.065  55.8600  0.00  0.00     0.000 HD
BRANCH 69 75
ATOM     75   C  BDP B   5      26.892 106.365  55.4380  0.00  0.00     0.000 C
ATOM     76   O  BDP B   5      27.166 105.238  54.9780  0.00  0.00     0.000 OA
ATOM     77   O  BDP B   5      26.172 106.516  56.4420  0.00  0.00     0.000 OA
ENDBRANCH 69 75
BRANCH 65 78
ATOM     78  O3  NAG B   6      25.345 109.834  53.6730  0.00  0.00     0.000 O
BRANCH 78 81
ATOM     79  C1  NAG B   6      23.060 110.355  50.6990  0.00  0.00     0.000 C
ATOM     80  C2  NAG B   6      24.104 110.714  51.7690  0.00  0.00     0.000 C
ATOM     81  C3  NAG B   6      24.483 109.478  52.5700  0.00  0.00     0.000 C
ATOM     82  C4  NAG B   6      23.233 108.763  53.0930  0.00  0.00     0.000 C
ATOM     83  C5  NAG B   6      22.298 108.460  51.9280  0.00  0.00     0.000 C
ATOM     84  O5  NAG B   6      21.940 109.704  51.3250  0.00  0.00     0.000 O
BRANCH 80 87
ATOM     85   N  NAG B   6      25.186 111.388  51.0580  0.00  0.00     0.000 N
ATOM     87  HD  NAG B   6      25.503 112.099  50.6770  0.00  0.00     0.000 HD
ATOM     87   C  NAG B   6      25.887 112.413  51.5590  0.00  0.00     0.000 C
ATOM     88   C  NAG B   6      26.979 112.941  50.6840  0.00  0.00     0.000 C
ATOM     89   O  NAG B   6      25.674 112.891  52.6670  0.00  0.00     0.000 OA
ENDBRANCH 80 87
ATOM     90   O  NAG B   6      21.056 106.388  51.8100  0.00  0.00     0.000 O
ATOM     92  HD  NAG B   6      21.439 107.021  51.3590  0.00  0.00     0.000 HD
ATOM     92   O  NAG B   6      21.056 106.388  51.8100  0.00  0.00     0.000 O
ATOM     94  HD  NAG B   6      21.439 107.021  51.3590  0.00  0.00     0.000 HD
ENDBRANCH 78 81
ENDBRANCH 65 78
ENDBRANCH 64 68
ENDBRANCH 48 64
ENDBRANCH 47 50
ENDBRANCH 34 47
ENDBRANCH 33 37
ENDBRANCH 17 33
ENDBRANCH 16 19
ENDBRANCH 1 16
TORSDOF 16
ENDMDL
MODEL 70
REMARK VINA RESULT:      -1.2     99.556    103.347
ROOT
ATOM      1  C1  BDP B   1      28.736 110.561  47.0270  0.00  0.00     0.000 C
ATOM      2  C2  BDP B   1      29.182 112.012  47.0320  0.00  0.00     0.000 C
ATOM      3  C3  BDP B   1      29.246 112.585  48.4320  0.00  0.00     0.000 C
ATOM      4  C4  BDP B   1      29.205 111.534  49.5360  0.00  0.00     0.000 C
ATOM      5  C5  BDP B   1      28.112 110.491  49.3170  0.00  0.00     0.000 C
ATOM      6  O5  BDP B   1      27.664 110.454  47.9520  0.00  0.00     0.000 O
ATOM      7   O  BDP B   1      30.464 112.130  46.4060  0.00  0.00     0.000 O
ATOM      9  HD  BDP B   1      31.020 111.935  45.7710  0.00  0.00     0.000 HD
ATOM      9   O  BDP B   1      28.145 113.483  48.6440  0.00  0.00     0.000 O
ATOM     11  HD  BDP B   1      28.701 113.289  48.0090  0.00  0.00     0.000 HD
ATOM     11   O  BDP B   1      30.476 110.884  49.6540  0.00  0.00     0.000 O
ATOM     13  HD  BDP B   1      31.032 110.690  49.0190  0.00  0.00     0.000 HD
ENDROOT
BRANCH 5 13
ATOM     13   C  BDP B   1      26.976 110.850  50.2100  0.00  0.00     0.000 C
ATOM     14   O  BDP B   1      26.888 110.272  51.3130  0.00  0.00     0.000 OA
ATOM     15   O  BDP B   1      26.168 111.729  49.8410  0.00  0.00     0.000 OA
ENDBRANCH 5 13
BRANCH 1 16
ATOM     16  O3  NAG B   2      29.388 109.393  46.5330  0.00  0.00     0.000 O
BRANCH 16 19
ATOM     17  C1  NAG B   2      30.966 106.756  48.4870  0.00  0.00     0.000 C
ATOM     18  C2  NAG B   2      29.716 107.538  48.0790  0.00  0.00     0.000 C
ATOM     19  C3  NAG B   2      29.845 108.044  46.6500  0.00  0.00     0.000 C
ATOM     20  C4  NAG B   2      31.284 107.940  46.1390  0.00  0.00     0.000 C
ATOM     21  C5  NAG B   2      32.370 108.198  47.1920  0.00  0.00     0.000 C
ATOM     22  O5  NAG B   2      32.023 107.718  48.4970  0.00  0.00     0.000 O
ATOM     23   O  NAG B   2      31.469 106.645  45.5590  0.00  0.00     0.000 O
ATOM     25  HD  NAG B   2      31.019 106.230  46.1710  0.00  0.00     0.000 HD
ATOM     25   C  NAG B   2      32.685 109.697  47.2900  0.00  0.00     0.000 C
ATOM     26   O  NAG B   2      33.652 110.102  46.3100  0.00  0.00     0.000 O
ATOM     28  HD  NAG B   2      33.202 109.687  46.9230  0.00  0.00     0.000 HD
BRANCH 18 30
ATOM     28   N  NAG B   2      28.565 106.695  48.3970  0.00  0.00     0.000 N
ATOM     30  HD  NAG B   2      28.240 106.190  49.0210  0.00  0.00     0.000 HD
ATOM     30   C  NAG B   2      28.282 105.526  47.8050  0.00  0.00     0.000 C
ATOM     31   C  NAG B   2      27.034 104.852  48.3010  0.00  0.00     0.000 C
ATOM     32   O  NAG B   2      28.970 105.033  46.9420  0.00  0.00     0.000 OA
ENDBRANCH 18 30
BRANCH 17 33
ATOM     33  O4  BDP B   3      31.868 106.218  49.4770  0.00  0.00     0.000 O
BRANCH 33 37
ATOM     34  C1  BDP B   3      32.529 107.042  53.6160  0.00  0.00     0.000 C
ATOM     35  C2  BDP B   3      33.747 107.053  52.7000  0.00  0.00     0.000 C
ATOM     36  C3  BDP B   3      33.398 107.175  51.2210  0.00  0.00     0.000 C
ATOM     37  C4  BDP B   3      32.254 106.207  50.8830  0.00  0.00     0.000 C
ATOM     38  C5  BDP B   3      31.080 106.541  51.8220  0.00  0.00     0.000 C
ATOM     39  O5  BDP B   3      31.510 106.160  53.1290  0.00  0.00     0.000 O
ATOM     40   O  BDP B   3      34.577 108.126  53.1500  0.00  0.00     0.000 O
ATOM     42  HD  BDP B   3      34.794 107.512  53.7210  0.00  0.00     0.000 HD
ATOM     42   O  BDP B   3      34.586 106.868  50.4930  0.00  0.00     0.000 O
ATOM     44  HD  BDP B   3      34.803 106.254  51.0640  0.00  0.00     0.000 HD
BRANCH 38 44
ATOM     44   C  BDP B   3      29.800 105.842  51.4870  0.00  0.00     0.000 C
ATOM     45   O  BDP B   3      28.768 106.537  51.3630  0.00  0.00     0.000 OA
ATOM     46   O  BDP B   3      29.794 104.600  51.3420  0.00  0.00     0.000 OA
ENDBRANCH 38 44
BRANCH 34 47
ATOM     47  O3  NAG B   4      32.695 106.146  54.7130  0.00  0.00     0.000 O
BRANCH 47 50
ATOM     48  C1  NAG B   4      30.561 107.449  57.5230  0.00  0.00     0.000 C
ATOM     49  C2  NAG B   4      31.513 107.516  56.3420  0.00  0.00     0.000 C
ATOM     50  C3  NAG B   4      31.741 106.112  55.7940  0.00  0.00     0.000 C
ATOM     51  C4  NAG B   4      32.232 105.163  56.8750  0.00  0.00     0.000 C
ATOM     52  C5  NAG B   4      31.272 105.190  58.0660  0.00  0.00     0.000 C
ATOM     53  O5  NAG B   4      31.071 106.537  58.5140  0.00  0.00     0.000 O
ATOM     54   O  NAG B   4      32.323 103.844  56.3310  0.00  0.00     0.000 O
ATOM     56  HD  NAG B   4      32.731 103.920  57.0910  0.00  0.00     0.000 HD
ATOM     56   C  NAG B   4      31.798 104.346  59.2200  0.00  0.00     0.000 C
ATOM     57   O  NAG B   4      33.068 104.865  59.6390  0.00  0.00     0.000 O
ATOM     59  HD  NAG B   4      33.476 104.941  60.3990  0.00  0.00     0.000 HD
BRANCH 49 61
ATOM     59   N  NAG B   4      32.440 108.445  56.9890  0.00  0.00     0.000 N
ATOM     61  HD  NAG B   4      32.363 108.022  56.2380  0.00  0.00     0.000 HD
ATOM     61   O  NAG B   4      32.830 109.744  55.1830  0.00  0.00     0.000 OA
ATOM     62   C  NAG B   4      32.959 109.516  56.3770  0.00  0.00     0.000 C
ATOM     63   C  NAG B   4      33.711 110.463  57.2570  0.00  0.00     0.000 C
ENDBRANCH 49 61
BRANCH 48 64
ATOM     64  O4  BDP B   5      29.614 108.369  58.0590  0.00  0.00     0.000 O
BRANCH 64 68
ATOM     65  C1  BDP B   5      27.314 110.989  55.7740  0.00  0.00     0.000 C
ATOM     66  C2  BDP B   5      28.332 111.633  56.7050  0.00  0.00     0.000 C
ATOM     67  C3  BDP B   5      29.363 110.597  57.1330  0.00  0.00     0.000 C
ATOM     68  C4  BDP B   5      28.669 109.399  57.7720  0.00  0.00     0.000 C
ATOM     69  C5  BDP B   5      27.579 108.823  56.8780  0.00  0.00     0.000 C
ATOM     70  O5  BDP B   5      26.697 109.864  56.4200  0.00  0.00     0.000 O
ATOM     71   O  BDP B   5      28.947 112.752  56.0470  0.00  0.00     0.000 O
ATOM     73  HD  BDP B   5      29.299 113.403  55.5980  0.00  0.00     0.000 HD
ATOM     73   O  BDP B   5      30.286 111.163  58.0710  0.00  0.00     0.000 O
ATOM     75  HD  BDP B   5      30.639 111.814  57.6220  0.00  0.00     0.000 HD
BRANCH 69 75
ATOM     75   C  BDP B   5      26.794 107.815  57.6780  0.00  0.00     0.000 C
ATOM     76   O  BDP B   5      26.811 106.620  57.3190  0.00  0.00     0.000 OA
ATOM     77   O  BDP B   5      26.155 108.201  58.6740  0.00  0.00     0.000 OA
ENDBRANCH 69 75
BRANCH 65 78
ATOM     78  O3  NAG B   6      25.943 111.366  55.6240  0.00  0.00     0.000 O
BRANCH 78 81
ATOM     79  C1  NAG B   6      23.717 112.096  52.6500  0.00  0.00     0.000 C
ATOM     80  C2  NAG B   6      24.848 112.318  53.6660  0.00  0.00     0.000 C
ATOM     81  C3  NAG B   6      24.989 111.105  54.5720  0.00  0.00     0.000 C
ATOM     82  C4  NAG B   6      23.636 110.717  55.1770  0.00  0.00     0.000 C
ATOM     83  C5  NAG B   6      22.619 110.517  54.0590  0.00  0.00     0.000 C
ATOM     84  O5  NAG B   6      22.508 111.752  53.3500  0.00  0.00     0.000 O
BRANCH 80 87
ATOM     85   N  NAG B   6      26.023 112.686  52.8800  0.00  0.00     0.000 N
ATOM     87  HD  NAG B   6      26.468 113.278  52.4320  0.00  0.00     0.000 HD
ATOM     87   C  NAG B   6      26.938 113.579  53.2750  0.00  0.00     0.000 C
ATOM     88   C  NAG B   6      28.086 113.789  52.3390  0.00  0.00     0.000 C
ATOM     89   O  NAG B   6      26.866 114.186  54.3370  0.00  0.00     0.000 OA
ENDBRANCH 80 87
ATOM     90   O  NAG B   6      20.970 108.751  54.1500  0.00  0.00     0.000 O
ATOM     92  HD  NAG B   6      21.461 109.247  53.6380  0.00  0.00     0.000 HD
ATOM     92   O  NAG B   6      20.970 108.751  54.1500  0.00  0.00     0.000 O
ATOM     94  HD  NAG B   6      21.461 109.247  53.6380  0.00  0.00     0.000 HD
ENDBRANCH 78 81
ENDBRANCH 65 78
ENDBRANCH 64 68
ENDBRANCH 48 64
ENDBRANCH 47 50
ENDBRANCH 34 47
ENDBRANCH 33 37
ENDBRANCH 17 33
ENDBRANCH 16 19
ENDBRANCH 1 16
TORSDOF 16
ENDMDL
MODEL 71
REMARK VINA RESULT:      -1.2     92.956     98.296
ROOT
ATOM      1  C1  BDP B   1      14.097  77.045  91.1250  0.00  0.00     0.000 C
ATOM      2  C2  BDP B   1      13.044  77.869  91.8440  0.00  0.00     0.000 C
ATOM      3  C3  BDP B   1      13.067  77.642  93.3400  0.00  0.00     0.000 C
ATOM      4  C4  BDP B   1      14.324  76.942  93.8440  0.00  0.00     0.000 C
ATOM      5  C5  BDP B   1      14.698  75.724  93.0040  0.00  0.00     0.000 C
ATOM      6  O5  BDP B   1      14.079  75.750  91.7070  0.00  0.00     0.000 O
ATOM      7   O  BDP B   1      13.241  79.260  91.5650  0.00  0.00     0.000 O
ATOM      9  HD  BDP B   1      13.408  79.908  91.0160  0.00  0.00     0.000 HD
ATOM      9   O  BDP B   1      11.937  76.846  93.7320  0.00  0.00     0.000 O
ATOM     11  HD  BDP B   1      12.105  77.494  93.1830  0.00  0.00     0.000 HD
ATOM     11   O  BDP B   1      15.424  77.859  93.8830  0.00  0.00     0.000 O
ATOM     13  HD  BDP B   1      15.592  78.507  93.3340  0.00  0.00     0.000 HD
ENDROOT
BRANCH 5 13
ATOM     13   C  BDP B   1      14.247  74.518  93.7520  0.00  0.00     0.000 C
ATOM     14   O  BDP B   1      13.097  74.085  93.5330  0.00  0.00     0.000 OA
ATOM     15   O  BDP B   1      15.036  73.967  94.5490  0.00  0.00     0.000 OA
ENDBRANCH 5 13
BRANCH 1 16
ATOM     16  O3  NAG B   2      15.179  77.449  90.2880  0.00  0.00     0.000 O
BRANCH 16 19
ATOM     17  C1  NAG B   2      17.400  80.325  90.5260  0.00  0.00     0.000 C
ATOM     18  C2  NAG B   2      16.793  79.063  91.1410  0.00  0.00     0.000 C
ATOM     19  C3  NAG B   2      16.455  78.049  90.0580  0.00  0.00     0.000 C
ATOM     20  C4  NAG B   2      16.486  78.679  88.6620  0.00  0.00     0.000 C
ATOM     21  C5  NAG B   2      16.002  80.134  88.5930  0.00  0.00     0.000 C
ATOM     22  O5  NAG B   2      16.350  80.905  89.7490  0.00  0.00     0.000 O
ATOM     23   O  NAG B   2      17.819  78.586  88.1510  0.00  0.00     0.000 O
ATOM     25  HD  NAG B   2      18.197  78.782  88.9050  0.00  0.00     0.000 HD
ATOM     25   C  NAG B   2      14.479  80.189  88.4070  0.00  0.00     0.000 C
ATOM     26   O  NAG B   2      14.108  80.084  87.0250  0.00  0.00     0.000 O
ATOM     28  HD  NAG B   2      14.486  80.280  87.7790  0.00  0.00     0.000 HD
BRANCH 18 30
ATOM     28   N  NAG B   2      18.224  79.152  91.4270  0.00  0.00     0.000 N
ATOM     30  HD  NAG B   2      18.999  79.167  91.0390  0.00  0.00     0.000 HD
ATOM     30   C  NAG B   2      18.948  78.197  92.0280  0.00  0.00     0.000 C
ATOM     31   C  NAG B   2      20.401  78.531  92.2190  0.00  0.00     0.000 C
ATOM     32   O  NAG B   2      18.487  77.140  92.3890  0.00  0.00     0.000 OA
ENDBRANCH 18 30
BRANCH 17 33
ATOM     33  O4  BDP B   3      17.727  81.731  90.5590  0.00  0.00     0.000 O
BRANCH 33 37
ATOM     34  C1  BDP B   3      16.471  85.078  92.8950  0.00  0.00     0.000 C
ATOM     35  C2  BDP B   3      16.729  85.321  91.4130  0.00  0.00     0.000 C
ATOM     36  C3  BDP B   3      16.754  84.044  90.5800  0.00  0.00     0.000 C
ATOM     37  C4  BDP B   3      17.607  82.984  91.2940  0.00  0.00     0.000 C
ATOM     38  C5  BDP B   3      17.011  82.789  92.7020  0.00  0.00     0.000 C
ATOM     39  O5  BDP B   3      17.273  84.005  93.4030  0.00  0.00     0.000 O
ATOM     40   O  BDP B   3      15.720  86.232  90.9750  0.00  0.00     0.000 O
ATOM     42  HD  BDP B   3      16.278  86.784  91.3410  0.00  0.00     0.000 HD
ATOM     42   O  BDP B   3      17.298  84.394  89.3090  0.00  0.00     0.000 O
ATOM     44  HD  BDP B   3      17.856  84.946  89.6750  0.00  0.00     0.000 HD
BRANCH 38 44
ATOM     44   C  BDP B   3      17.582  81.633  93.4620  0.00  0.00     0.000 C
ATOM     45   O  BDP B   3      18.826  81.558  93.5650  0.00  0.00     0.000 OA
ATOM     46   O  BDP B   3      16.815  80.784  93.9650  0.00  0.00     0.000 OA
ENDBRANCH 38 44
BRANCH 34 47
ATOM     47  O3  NAG B   4      17.233  85.957  93.7210  0.00  0.00     0.000 O
BRANCH 47 50
ATOM     48  C1  NAG B   4      16.144  85.559  97.2990  0.00  0.00     0.000 C
ATOM     49  C2  NAG B   4      15.984  85.738  95.7990  0.00  0.00     0.000 C
ATOM     50  C3  NAG B   4      17.358  85.722  95.1380  0.00  0.00     0.000 C
ATOM     51  C4  NAG B   4      18.283  86.764  95.7460  0.00  0.00     0.000 C
ATOM     52  C5  NAG B   4      18.349  86.579  97.2620  0.00  0.00     0.000 C
ATOM     53  O5  NAG B   4      17.030  86.568  97.8220  0.00  0.00     0.000 O
ATOM     54   O  NAG B   4      19.582  86.630  95.1640  0.00  0.00     0.000 O
ATOM     56  HD  NAG B   4      19.487  87.373  95.5980  0.00  0.00     0.000 HD
ATOM     56   C  NAG B   4      19.168  87.683  97.9200  0.00  0.00     0.000 C
ATOM     57   O  NAG B   4      18.559  88.950  97.6360  0.00  0.00     0.000 O
ATOM     59  HD  NAG B   4      18.464  89.693  98.0700  0.00  0.00     0.000 HD
BRANCH 49 61
ATOM     59   N  NAG B   4      14.981  86.795  95.9320  0.00  0.00     0.000 N
ATOM     61  HD  NAG B   4      15.405  86.376  95.3030  0.00  0.00     0.000 HD
ATOM     61   O  NAG B   4      13.643  86.113  94.2450  0.00  0.00     0.000 OA
ATOM     62   C  NAG B   4      13.865  86.849  95.1950  0.00  0.00     0.000 C
ATOM     63   C  NAG B   4      12.860  87.873  95.6170  0.00  0.00     0.000 C
ENDBRANCH 49 61
BRANCH 48 64
ATOM     64  O4  BDP B   5      15.309  84.987  98.3020  0.00  0.00     0.000 O
BRANCH 64 68
ATOM     65  C1  BDP B   5      12.641  81.853  97.6470  0.00  0.00     0.000 C
ATOM     66  C2  BDP B   5      12.025  83.170  98.1010  0.00  0.00     0.000 C
ATOM     67  C3  BDP B   5      13.020  84.303  97.8850  0.00  0.00     0.000 C
ATOM     68  C4  BDP B   5      14.329  83.995  98.6040  0.00  0.00     0.000 C
ATOM     69  C5  BDP B   5      14.887  82.630  98.2240  0.00  0.00     0.000 C
ATOM     70  O5  BDP B   5      13.873  81.617  98.3470  0.00  0.00     0.000 O
ATOM     71   O  BDP B   5      10.798  83.398  97.3910  0.00  0.00     0.000 O
ATOM     73  HD  BDP B   5      10.078  83.497  96.9210  0.00  0.00     0.000 HD
ATOM     73   O  BDP B   5      12.490  85.539  98.3770  0.00  0.00     0.000 O
ATOM     75  HD  BDP B   5      11.769  85.637  97.9070  0.00  0.00     0.000 HD
BRANCH 69 75
ATOM     75   C  BDP B   5      16.032  82.311  99.1510  0.00  0.00     0.000 C
ATOM     76   O  BDP B   5      15.799  82.183 100.3700  0.00  0.00     0.000 OA
ATOM     77   O  BDP B   5      17.175  82.181  98.6750  0.00  0.00     0.000 OA
ENDBRANCH 69 75
BRANCH 65 78
ATOM     78  O3  NAG B   6      12.355  80.555  98.1750  0.00  0.00     0.000 O
BRANCH 78 81
ATOM     79  C1  NAG B   6      10.768  77.290  97.1020  0.00  0.00     0.000 C
ATOM     80  C2  NAG B   6      10.834  78.730  97.6360  0.00  0.00     0.000 C
ATOM     81  C3  NAG B   6      12.254  79.264  97.5370  0.00  0.00     0.000 C
ATOM     82  C4  NAG B   6      13.250  78.287  98.1710  0.00  0.00     0.000 C
ATOM     83  C5  NAG B   6      13.081  76.910  97.5400  0.00  0.00     0.000 C
ATOM     84  O5  NAG B   6      11.741  76.482  97.7880  0.00  0.00     0.000 O
BRANCH 80 87
ATOM     85   N  NAG B   6       9.656  79.444  98.1200  0.00  0.00     0.000 N
ATOM     87  HD  NAG B   6       9.288  80.176  98.4030  0.00  0.00     0.000 HD
ATOM     87   C  NAG B   6       9.058  80.439  97.4540  0.00  0.00     0.000 C
ATOM     88   C  NAG B   6       7.842  81.017  98.1060  0.00  0.00     0.000 C
ATOM     89   O  NAG B   6       9.455  80.853  96.3710  0.00  0.00     0.000 OA
ENDBRANCH 80 87
ATOM     90   O  NAG B   6      14.984  75.496  97.0620  0.00  0.00     0.000 O
ATOM     92  HD  NAG B   6      14.181  75.720  96.8280  0.00  0.00     0.000 HD
ATOM     92   O  NAG B   6      14.984  75.496  97.0620  0.00  0.00     0.000 O
ATOM     94  HD  NAG B   6      14.181  75.720  96.8280  0.00  0.00     0.000 HD
ENDBRANCH 78 81
ENDBRANCH 65 78
ENDBRANCH 64 68
ENDBRANCH 48 64
ENDBRANCH 47 50
ENDBRANCH 34 47
ENDBRANCH 33 37
ENDBRANCH 17 33
ENDBRANCH 16 19
ENDBRANCH 1 16
TORSDOF 16
ENDMDL
MODEL 72
REMARK VINA RESULT:      -1.1     82.233     88.771
ROOT
ATOM      1  C1  BDP B   1      88.187  51.647  42.6850  0.00  0.00     0.000 C
ATOM      2  C2  BDP B   1      89.034  51.423  43.9260  0.00  0.00     0.000 C
ATOM      3  C3  BDP B   1      90.494  51.739  43.6830  0.00  0.00     0.000 C
ATOM      4  C4  BDP B   1      90.755  52.532  42.4070  0.00  0.00     0.000 C
ATOM      5  C5  BDP B   1      90.012  51.969  41.2000  0.00  0.00     0.000 C
ATOM      6  O5  BDP B   1      88.916  51.121  41.5860  0.00  0.00     0.000 O
ATOM      7   O  BDP B   1      88.540  52.227  45.0030  0.00  0.00     0.000 O
ATOM      9  HD  BDP B   1      87.889  52.547  45.4750  0.00  0.00     0.000 HD
ATOM      9   O  BDP B   1      91.252  50.522  43.6030  0.00  0.00     0.000 O
ATOM     11  HD  BDP B   1      90.601  50.842  44.0760  0.00  0.00     0.000 HD
ATOM     11   O  BDP B   1      90.403  53.908  42.5930  0.00  0.00     0.000 O
ATOM     13  HD  BDP B   1      89.752  54.228  43.0660  0.00  0.00     0.000 HD
ENDROOT
BRANCH 5 13
ATOM     13   C  BDP B   1      90.995  51.186  40.4030  0.00  0.00     0.000 C
ATOM     14   O  BDP B   1      91.170  49.985  40.6960  0.00  0.00     0.000 OA
ATOM     15   O  BDP B   1      91.591  51.743  39.4560  0.00  0.00     0.000 OA
ENDBRANCH 5 13
BRANCH 1 16
ATOM     16  O3  NAG B   2      87.064  52.499  42.4710  0.00  0.00     0.000 O
BRANCH 16 19
ATOM     17  C1  NAG B   2      86.973  55.607  40.5760  0.00  0.00     0.000 C
ATOM     18  C2  NAG B   2      87.183  54.094  40.6320  0.00  0.00     0.000 C
ATOM     19  C3  NAG B   2      86.330  53.475  41.7300  0.00  0.00     0.000 C
ATOM     20  C4  NAG B   2      85.774  54.537  42.6830  0.00  0.00     0.000 C
ATOM     21  C5  NAG B   2      86.710  55.724  42.9520  0.00  0.00     0.000 C
ATOM     22  O5  NAG B   2      87.491  56.103  41.8130  0.00  0.00     0.000 O
ATOM     23   O  NAG B   2      84.529  55.010  42.1610  0.00  0.00     0.000 O
ATOM     25  HD  NAG B   2      84.799  55.026  41.3380  0.00  0.00     0.000 HD
ATOM     25   C  NAG B   2      87.661  55.410  44.1160  0.00  0.00     0.000 C
ATOM     26   O  NAG B   2      87.059  55.698  45.3860  0.00  0.00     0.000 O
ATOM     28  HD  NAG B   2      87.330  55.714  44.5640  0.00  0.00     0.000 HD
BRANCH 18 30
ATOM     28   N  NAG B   2      86.327  54.468  39.5070  0.00  0.00     0.000 N
ATOM     30  HD  NAG B   2      85.529  54.747  39.3190  0.00  0.00     0.000 HD
ATOM     30   C  NAG B   2      85.851  53.616  38.5880  0.00  0.00     0.000 C
ATOM     31   C  NAG B   2      85.000  54.246  37.5230  0.00  0.00     0.000 C
ATOM     32   O  NAG B   2      86.073  52.427  38.6030  0.00  0.00     0.000 OA
ENDBRANCH 18 30
BRANCH 17 33
ATOM     33  O4  BDP B   3      87.395  56.943  40.2250  0.00  0.00     0.000 O
BRANCH 33 37
ATOM     34  C1  BDP B   3      91.107  58.602  38.9190  0.00  0.00     0.000 C
ATOM     35  C2  BDP B   3      90.442  59.249  40.1280  0.00  0.00     0.000 C
ATOM     36  C3  BDP B   3      89.380  58.373  40.7830  0.00  0.00     0.000 C
ATOM     37  C4  BDP B   3      88.473  57.771  39.6990  0.00  0.00     0.000 C
ATOM     38  C5  BDP B   3      89.380  57.009  38.7140  0.00  0.00     0.000 C
ATOM     39  O5  BDP B   3      90.144  58.008  38.0410  0.00  0.00     0.000 O
ATOM     40   O  BDP B   3      91.496  59.589  41.0310  0.00  0.00     0.000 O
ATOM     42  HD  BDP B   3      91.543  60.256  40.4810  0.00  0.00     0.000 HD
ATOM     42   O  BDP B   3      88.653  59.210  41.6790  0.00  0.00     0.000 O
ATOM     44  HD  BDP B   3      88.700  59.877  41.1290  0.00  0.00     0.000 HD
BRANCH 38 44
ATOM     44   C  BDP B   3      88.643  56.174  37.7130  0.00  0.00     0.000 C
ATOM     45   O  BDP B   3      88.925  54.958  37.6450  0.00  0.00     0.000 OA
ATOM     46   O  BDP B   3      87.779  56.706  36.9820  0.00  0.00     0.000 OA
ENDBRANCH 38 44
BRANCH 34 47
ATOM     47  O3  NAG B   4      91.375  59.549  37.8870  0.00  0.00     0.000 O
BRANCH 47 50
ATOM     48  C1  NAG B   4      94.460  58.424  36.0510  0.00  0.00     0.000 C
ATOM     49  C2  NAG B   4      93.571  58.713  37.2480  0.00  0.00     0.000 C
ATOM     50  C3  NAG B   4      92.212  59.206  36.7630  0.00  0.00     0.000 C
ATOM     51  C4  NAG B   4      92.349  60.410  35.8460  0.00  0.00     0.000 C
ATOM     52  C5  NAG B   4      93.309  60.084  34.7010  0.00  0.00     0.000 C
ATOM     53  O5  NAG B   4      94.553  59.595  35.2160  0.00  0.00     0.000 O
ATOM     54   O  NAG B   4      91.058  60.759  35.3390  0.00  0.00     0.000 O
ATOM     56  HD  NAG B   4      91.647  61.379  35.2060  0.00  0.00     0.000 HD
ATOM     56   C  NAG B   4      93.568  61.308  33.8300  0.00  0.00     0.000 C
ATOM     57   O  NAG B   4      94.147  62.342  34.6370  0.00  0.00     0.000 O
ATOM     59  HD  NAG B   4      94.736  62.962  34.5040  0.00  0.00     0.000 HD
BRANCH 49 61
ATOM     59   N  NAG B   4      94.618  59.397  38.0080  0.00  0.00     0.000 N
ATOM     61  HD  NAG B   4      93.782  59.190  38.0950  0.00  0.00     0.000 HD
ATOM     61   O  NAG B   4      94.120  58.505  40.0220  0.00  0.00     0.000 OA
ATOM     62   C  NAG B   4      94.848  59.180  39.3080  0.00  0.00     0.000 C
ATOM     63   C  NAG B   4      96.090  59.805  39.8590  0.00  0.00     0.000 C
ENDBRANCH 49 61
BRANCH 48 64
ATOM     64  O4  BDP B   5      95.529  57.509  35.8360  0.00  0.00     0.000 O
BRANCH 64 68
ATOM     65  C1  BDP B   5      96.008  53.914  37.8910  0.00  0.00     0.000 C
ATOM     66  C2  BDP B   5      97.104  54.951  38.0970  0.00  0.00     0.000 C
ATOM     67  C3  BDP B   5      96.602  56.321  37.6590  0.00  0.00     0.000 C
ATOM     68  C4  BDP B   5      96.119  56.266  36.2140  0.00  0.00     0.000 C
ATOM     69  C5  BDP B   5      95.100  55.156  35.9910  0.00  0.00     0.000 C
ATOM     70  O5  BDP B   5      95.585  53.909  36.5180  0.00  0.00     0.000 O
ATOM     71   O  BDP B   5      97.515  54.952  39.4730  0.00  0.00     0.000 O
ATOM     73  HD  BDP B   5      97.710  54.925  40.3160  0.00  0.00     0.000 HD
ATOM     73   O  BDP B   5      97.644  57.298  37.7720  0.00  0.00     0.000 O
ATOM     75  HD  BDP B   5      97.839  57.271  38.6150  0.00  0.00     0.000 HD
BRANCH 69 75
ATOM     75   C  BDP B   5      94.866  55.019  34.5080  0.00  0.00     0.000 C
ATOM     76   O  BDP B   5      93.729  55.261  34.0550  0.00  0.00     0.000 OA
ATOM     77   O  BDP B   5      95.813  54.673  33.7780  0.00  0.00     0.000 OA
ENDBRANCH 69 75
BRANCH 65 78
ATOM     78  O3  NAG B   6      96.196  52.526  37.6020  0.00  0.00     0.000 O
BRANCH 78 81
ATOM     79  C1  NAG B   6      94.234  49.432  38.5570  0.00  0.00     0.000 C
ATOM     80  C2  NAG B   6      95.112  50.678  38.7610  0.00  0.00     0.000 C
ATOM     81  C3  NAG B   6      95.252  51.443  37.4550  0.00  0.00     0.000 C
ATOM     82  C4  NAG B   6      95.696  50.512  36.3220  0.00  0.00     0.000 C
ATOM     83  C5  NAG B   6      94.732  49.335  36.2270  0.00  0.00     0.000 C
ATOM     84  O5  NAG B   6      94.768  48.645  37.4770  0.00  0.00     0.000 O
BRANCH 80 87
ATOM     85   N  NAG B   6      94.521  51.473  39.8340  0.00  0.00     0.000 N
ATOM     87  HD  NAG B   6      94.348  51.584  40.6750  0.00  0.00     0.000 HD
ATOM     87   C  NAG B   6      95.229  52.064  40.8050  0.00  0.00     0.000 C
ATOM     88   C  NAG B   6      94.437  52.864  41.7900  0.00  0.00     0.000 C
ATOM     89   O  NAG B   6      96.448  51.979  40.8890  0.00  0.00     0.000 OA
ENDBRANCH 80 87
ATOM     90   O  NAG B   6      94.059  48.420  34.0920  0.00  0.00     0.000 O
ATOM     92  HD  NAG B   6      93.830  48.563  34.9150  0.00  0.00     0.000 HD
ATOM     92   O  NAG B   6      94.059  48.420  34.0920  0.00  0.00     0.000 O
ATOM     94  HD  NAG B   6      93.830  48.563  34.9150  0.00  0.00     0.000 HD
ENDBRANCH 78 81
ENDBRANCH 65 78
ENDBRANCH 64 68
ENDBRANCH 48 64
ENDBRANCH 47 50
ENDBRANCH 34 47
ENDBRANCH 33 37
ENDBRANCH 17 33
ENDBRANCH 16 19
ENDBRANCH 1 16
TORSDOF 16
ENDMDL
MODEL 73
REMARK VINA RESULT:      -1.1     77.127     80.896
ROOT
ATOM      1  C1  BDP B   1      50.733  66.873  73.2380  0.00  0.00     0.000 C
ATOM      2  C2  BDP B   1      49.241  66.843  73.5160  0.00  0.00     0.000 C
ATOM      3  C3  BDP B   1      48.783  65.495  74.0290  0.00  0.00     0.000 C
ATOM      4  C4  BDP B   1      49.918  64.588  74.4920  0.00  0.00     0.000 C
ATOM      5  C5  BDP B   1      51.076  64.538  73.4990  0.00  0.00     0.000 C
ATOM      6  O5  BDP B   1      51.059  65.652  72.5900  0.00  0.00     0.000 O
ATOM      7   O  BDP B   1      48.902  67.860  74.4650  0.00  0.00     0.000 O
ATOM      9  HD  BDP B   1      48.967  68.669  74.7680  0.00  0.00     0.000 HD
ATOM      9   O  BDP B   1      48.060  64.799  73.0020  0.00  0.00     0.000 O
ATOM     11  HD  BDP B   1      48.125  65.608  73.3040  0.00  0.00     0.000 HD
ATOM     11   O  BDP B   1      50.400  65.006  75.7750  0.00  0.00     0.000 O
ATOM     13  HD  BDP B   1      50.465  65.815  76.0780  0.00  0.00     0.000 HD
ENDROOT
BRANCH 5 13
ATOM     13   C  BDP B   1      50.947  63.266  72.7360  0.00  0.00     0.000 C
ATOM     14   O  BDP B   1      51.724  63.071  71.7790  0.00  0.00     0.000 OA
ATOM     15   O  BDP B   1      50.089  62.428  73.0910  0.00  0.00     0.000 OA
ENDBRANCH 5 13
BRANCH 1 16
ATOM     16  O3  NAG B   2      51.759  67.707  73.7730  0.00  0.00     0.000 O
BRANCH 16 19
ATOM     17  C1  NAG B   2      54.075  66.899  76.4640  0.00  0.00     0.000 C
ATOM     18  C2  NAG B   2      53.533  66.639  75.0580  0.00  0.00     0.000 C
ATOM     19  C3  NAG B   2      53.002  67.926  74.4430  0.00  0.00     0.000 C
ATOM     20  C4  NAG B   2      52.836  69.029  75.4910  0.00  0.00     0.000 C
ATOM     21  C5  NAG B   2      52.392  68.548  76.8790  0.00  0.00     0.000 C
ATOM     22  O5  NAG B   2      52.936  67.274  77.2420  0.00  0.00     0.000 O
ATOM     23   O  NAG B   2      54.072  69.744  75.5980  0.00  0.00     0.000 O
ATOM     25  HD  NAG B   2      54.567  69.035  75.5480  0.00  0.00     0.000 HD
ATOM     25   C  NAG B   2      50.860  68.467  76.9590  0.00  0.00     0.000 C
ATOM     26   O  NAG B   2      50.279  69.734  77.2990  0.00  0.00     0.000 O
ATOM     28  HD  NAG B   2      50.774  69.025  77.2480  0.00  0.00     0.000 HD
BRANCH 18 30
ATOM     28   N  NAG B   2      54.643  67.111  74.2310  0.00  0.00     0.000 N
ATOM     30  HD  NAG B   2      54.858  67.285  73.4110  0.00  0.00     0.000 HD
ATOM     30   C  NAG B   2      55.772  66.426  73.9990  0.00  0.00     0.000 C
ATOM     31   C  NAG B   2      56.769  67.130  73.1230  0.00  0.00     0.000 C
ATOM     32   O  NAG B   2      55.986  65.323  74.4450  0.00  0.00     0.000 OA
ENDBRANCH 18 30
BRANCH 17 33
ATOM     33  O4  BDP B   3      54.446  66.464  77.7900  0.00  0.00     0.000 O
BRANCH 33 37
ATOM     34  C1  BDP B   3      52.717  63.785  80.6320  0.00  0.00     0.000 C
ATOM     35  C2  BDP B   3      53.195  65.136  81.1490  0.00  0.00     0.000 C
ATOM     36  C3  BDP B   3      53.397  66.174  80.0510  0.00  0.00     0.000 C
ATOM     37  C4  BDP B   3      54.166  65.540  78.8820  0.00  0.00     0.000 C
ATOM     38  C5  BDP B   3      53.365  64.306  78.4230  0.00  0.00     0.000 C
ATOM     39  O5  BDP B   3      53.469  63.361  79.4880  0.00  0.00     0.000 O
ATOM     40   O  BDP B   3      52.233  65.555  82.1200  0.00  0.00     0.000 O
ATOM     42  HD  BDP B   3      52.707  65.009  82.5970  0.00  0.00     0.000 HD
ATOM     42   O  BDP B   3      54.119  67.256  80.6370  0.00  0.00     0.000 O
ATOM     44  HD  BDP B   3      54.592  66.710  81.1140  0.00  0.00     0.000 HD
BRANCH 38 44
ATOM     44   C  BDP B   3      53.853  63.690  77.1500  0.00  0.00     0.000 C
ATOM     45   O  BDP B   3      55.069  63.409  77.0630  0.00  0.00     0.000 OA
ATOM     46   O  BDP B   3      53.047  63.476  76.2180  0.00  0.00     0.000 OA
ENDBRANCH 38 44
BRANCH 34 47
ATOM     47  O3  NAG B   4      53.308  62.701  81.3460  0.00  0.00     0.000 O
BRANCH 47 50
ATOM     48  C1  NAG B   4      50.931  59.793  81.1380  0.00  0.00     0.000 C
ATOM     49  C2  NAG B   4      51.360  61.241  81.3010  0.00  0.00     0.000 C
ATOM     50  C3  NAG B   4      52.871  61.343  81.1290  0.00  0.00     0.000 C
ATOM     51  C4  NAG B   4      53.607  60.415  82.0820  0.00  0.00     0.000 C
ATOM     52  C5  NAG B   4      53.085  58.987  81.9220  0.00  0.00     0.000 C
ATOM     53  O5  NAG B   4      51.658  58.958  82.0610  0.00  0.00     0.000 O
ATOM     54   O  NAG B   4      55.008  60.474  81.8000  0.00  0.00     0.000 O
ATOM     56  HD  NAG B   4      54.836  60.092  82.5580  0.00  0.00     0.000 HD
ATOM     56   C  NAG B   4      53.711  58.050  82.9490  0.00  0.00     0.000 C
ATOM     57   O  NAG B   4      53.387  58.516  84.2660  0.00  0.00     0.000 O
ATOM     59  HD  NAG B   4      53.215  58.134  85.0230  0.00  0.00     0.000 HD
BRANCH 49 61
ATOM     59   N  NAG B   4      50.498  61.472  82.4600  0.00  0.00     0.000 N
ATOM     61  HD  NAG B   4      51.078  61.905  81.9860  0.00  0.00     0.000 HD
ATOM     61   O  NAG B   4      49.818  63.547  81.8850  0.00  0.00     0.000 OA
ATOM     62   C  NAG B   4      49.748  62.569  82.6150  0.00  0.00     0.000 C
ATOM     63   C  NAG B   4      48.773  62.533  83.7490  0.00  0.00     0.000 C
ENDBRANCH 49 61
BRANCH 48 64
ATOM     64  O4  BDP B   5      49.728  59.184  80.6780  0.00  0.00     0.000 O
BRANCH 64 68
ATOM     65  C1  BDP B   5      46.831  61.107  78.3800  0.00  0.00     0.000 C
ATOM     66  C2  BDP B   5      46.358  60.541  79.7120  0.00  0.00     0.000 C
ATOM     67  C3  BDP B   5      47.559  60.268  80.6080  0.00  0.00     0.000 C
ATOM     68  C4  BDP B   5      48.543  59.342  79.9000  0.00  0.00     0.000 C
ATOM     69  C5  BDP B   5      48.931  59.862  78.5220  0.00  0.00     0.000 C
ATOM     70  O5  BDP B   5      47.759  60.202  77.7600  0.00  0.00     0.000 O
ATOM     71   O  BDP B   5      45.437  61.456  80.3240  0.00  0.00     0.000 O
ATOM     73  HD  BDP B   5      44.903  62.051  80.6580  0.00  0.00     0.000 HD
ATOM     73   O  BDP B   5      47.143  59.662  81.8380  0.00  0.00     0.000 O
ATOM     75  HD  BDP B   5      46.609  60.258  82.1710  0.00  0.00     0.000 HD
BRANCH 69 75
ATOM     75   C  BDP B   5      49.700  58.781  77.8070  0.00  0.00     0.000 C
ATOM     76   O  BDP B   5      50.888  58.996  77.4940  0.00  0.00     0.000 OA
ATOM     77   O  BDP B   5      49.130  57.703  77.5530  0.00  0.00     0.000 OA
ENDBRANCH 69 75
BRANCH 65 78
ATOM     78  O3  NAG B   6      46.184  60.951  77.1140  0.00  0.00     0.000 O
BRANCH 78 81
ATOM     79  C1  NAG B   6      44.896  63.290  74.4300  0.00  0.00     0.000 C
ATOM     80  C2  NAG B   6      44.928  62.558  75.7810  0.00  0.00     0.000 C
ATOM     81  C3  NAG B   6      46.215  61.761  75.9180  0.00  0.00     0.000 C
ATOM     82  C4  NAG B   6      46.439  60.872  74.6900  0.00  0.00     0.000 C
ATOM     83  C5  NAG B   6      46.395  61.728  73.4300  0.00  0.00     0.000 C
ATOM     84  O5  NAG B   6      45.106  62.341  73.3690  0.00  0.00     0.000 O
BRANCH 80 87
ATOM     85   N  NAG B   6      44.684  63.581  76.7940  0.00  0.00     0.000 N
ATOM     87  HD  NAG B   6      44.134  64.098  77.2190  0.00  0.00     0.000 HD
ATOM     87   C  NAG B   6      43.971  63.376  77.9090  0.00  0.00     0.000 C
ATOM     88   C  NAG B   6      43.868  64.544  78.8370  0.00  0.00     0.000 C
ATOM     89   O  NAG B   6      43.442  62.304  78.1760  0.00  0.00     0.000 OA
ENDBRANCH 80 87
ATOM     90   O  NAG B   6      47.893  61.326  71.5750  0.00  0.00     0.000 O
ATOM     92  HD  NAG B   6      47.438  61.919  72.0130  0.00  0.00     0.000 HD
ATOM     92   O  NAG B   6      47.893  61.326  71.5750  0.00  0.00     0.000 O
ATOM     94  HD  NAG B   6      47.438  61.919  72.0130  0.00  0.00     0.000 HD
ENDBRANCH 78 81
ENDBRANCH 65 78
ENDBRANCH 64 68
ENDBRANCH 48 64
ENDBRANCH 47 50
ENDBRANCH 34 47
ENDBRANCH 33 37
ENDBRANCH 17 33
ENDBRANCH 16 19
ENDBRANCH 1 16
TORSDOF 16
ENDMDL
MODEL 74
REMARK VINA RESULT:      -1.1    110.994    115.296
ROOT
ATOM      1  C1  BDP B   1      45.780  91.668 101.2680  0.00  0.00     0.000 C
ATOM      2  C2  BDP B   1      46.030  92.456 102.5410  0.00  0.00     0.000 C
ATOM      3  C3  BDP B   1      46.278  93.923 102.2640  0.00  0.00     0.000 C
ATOM      4  C4  BDP B   1      45.884  94.365 100.8590  0.00  0.00     0.000 C
ATOM      5  C5  BDP B   1      46.387  93.414  99.7780  0.00  0.00     0.000 C
ATOM      6  O5  BDP B   1      46.724  92.121 100.3080  0.00  0.00     0.000 O
ATOM      7   O  BDP B   1      44.914  92.316 103.4270  0.00  0.00     0.000 O
ATOM      9  HD  BDP B   1      44.308  91.834 103.8150  0.00  0.00     0.000 HD
ATOM      9   O  BDP B   1      47.671  94.227 102.4420  0.00  0.00     0.000 O
ATOM     11  HD  BDP B   1      47.065  93.745 102.8300  0.00  0.00     0.000 HD
ATOM     11   O  BDP B   1      44.461  94.502 100.7590  0.00  0.00     0.000 O
ATOM     13  HD  BDP B   1      43.855  94.020 101.1470  0.00  0.00     0.000 HD
ENDROOT
BRANCH 5 13
ATOM     13   C  BDP B   1      47.595  94.037  99.1690  0.00  0.00     0.000 C
ATOM     14   O  BDP B   1      48.214  93.393  98.2970  0.00  0.00     0.000 OA
ATOM     15   O  BDP B   1      47.932  95.185  99.5280  0.00  0.00     0.000 OA
ENDBRANCH 5 13
BRANCH 1 16
ATOM     16  O3  NAG B   2      44.658  90.883 100.8680  0.00  0.00     0.000 O
BRANCH 16 19
ATOM     17  C1  NAG B   2      42.122  91.697  98.3870  0.00  0.00     0.000 C
ATOM     18  C2  NAG B   2      43.581  91.423  98.7510  0.00  0.00     0.000 C
ATOM     19  C3  NAG B   2      43.668  90.463  99.9280  0.00  0.00     0.000 C
ATOM     20  C4  NAG B   2      42.318  90.308 100.6340  0.00  0.00     0.000 C
ATOM     21  C5  NAG B   2      41.459  91.579 100.6840  0.00  0.00     0.000 C
ATOM     22  O5  NAG B   2      41.579  92.393  99.5110  0.00  0.00     0.000 O
ATOM     23   O  NAG B   2      41.590  89.254  99.9960  0.00  0.00     0.000 O
ATOM     25  HD  NAG B   2      41.824  89.483  99.1940  0.00  0.00     0.000 HD
ATOM     25   C  NAG B   2      41.819  92.429 101.9100  0.00  0.00     0.000 C
ATOM     26   O  NAG B   2      41.110  91.999 103.0810  0.00  0.00     0.000 O
ATOM     28  HD  NAG B   2      41.344  92.228 102.2790  0.00  0.00     0.000 HD
BRANCH 18 30
ATOM     28   N  NAG B   2      44.283  91.026  97.5310  0.00  0.00     0.000 N
ATOM     30  HD  NAG B   2      44.396  91.254  96.7030  0.00  0.00     0.000 HD
ATOM     30   C  NAG B   2      44.010  89.928  96.8110  0.00  0.00     0.000 C
ATOM     31   C  NAG B   2      44.880  89.733  95.6020  0.00  0.00     0.000 C
ATOM     32   O  NAG B   2      43.132  89.147  97.0950  0.00  0.00     0.000 OA
ENDBRANCH 18 30
BRANCH 17 33
ATOM     33  O4  BDP B   3      41.085  92.503  97.7850  0.00  0.00     0.000 O
BRANCH 33 37
ATOM     34  C1  BDP B   3      40.978  96.495  96.2700  0.00  0.00     0.000 C
ATOM     35  C2  BDP B   3      39.932  96.117  97.3120  0.00  0.00     0.000 C
ATOM     36  C3  BDP B   3      40.282  94.859  98.1000  0.00  0.00     0.000 C
ATOM     37  C4  BDP B   3      40.761  93.766  97.1330  0.00  0.00     0.000 C
ATOM     38  C5  BDP B   3      41.947  94.344  96.3390  0.00  0.00     0.000 C
ATOM     39  O5  BDP B   3      41.392  95.359  95.5010  0.00  0.00     0.000 O
ATOM     40   O  BDP B   3      39.779  97.259  98.1570  0.00  0.00     0.000 O
ATOM     42  HD  BDP B   3      39.281  97.493  97.4880  0.00  0.00     0.000 HD
ATOM     42   O  BDP B   3      39.100  94.471  98.7980  0.00  0.00     0.000 O
ATOM     44  HD  BDP B   3      38.602  94.705  98.1290  0.00  0.00     0.000 HD
BRANCH 38 44
ATOM     44   C  BDP B   3      42.680  93.342  95.5030  0.00  0.00     0.000 C
ATOM     45   O  BDP B   3      42.010  92.621  94.7310  0.00  0.00     0.000 OA
ATOM     46   O  BDP B   3      43.924  93.251  95.5960  0.00  0.00     0.000 OA
ENDBRANCH 38 44
BRANCH 34 47
ATOM     47  O3  NAG B   4      40.383  97.007  95.0790  0.00  0.00     0.000 O
BRANCH 47 50
ATOM     48  C1  NAG B   4      42.695  99.558  93.5640  0.00  0.00     0.000 C
ATOM     49  C2  NAG B   4      41.915  98.852  94.6590  0.00  0.00     0.000 C
ATOM     50  C3  NAG B   4      41.184  97.652  94.0670  0.00  0.00     0.000 C
ATOM     51  C4  NAG B   4      40.298  98.057  92.9000  0.00  0.00     0.000 C
ATOM     52  C5  NAG B   4      41.122  98.824  91.8650  0.00  0.00     0.000 C
ATOM     53  O5  NAG B   4      41.811  99.917  92.4840  0.00  0.00     0.000 O
ATOM     54   O  NAG B   4      39.725  96.882  92.3200  0.00  0.00     0.000 O
ATOM     56  HD  NAG B   4      39.338  97.609  92.0530  0.00  0.00     0.000 HD
ATOM     56   C  NAG B   4      40.241  99.354  90.7390  0.00  0.00     0.000 C
ATOM     57   O  NAG B   4      39.257 100.238  91.2930  0.00  0.00     0.000 O
ATOM     59  HD  NAG B   4      38.869 100.965  91.0250  0.00  0.00     0.000 HD
BRANCH 49 61
ATOM     59   N  NAG B   4      41.411 100.093  95.2480  0.00  0.00     0.000 N
ATOM     61  HD  NAG B   4      41.344  99.239  95.3750  0.00  0.00     0.000 HD
ATOM     61   O  NAG B   4      41.651  99.485  97.4100  0.00  0.00     0.000 OA
ATOM     62   C  NAG B   4      41.391 100.329  96.5650  0.00  0.00     0.000 C
ATOM     63   C  NAG B   4      41.044 101.728  96.9660  0.00  0.00     0.000 C
ENDBRANCH 49 61
BRANCH 48 64
ATOM     64  O4  BDP B   5      43.896 100.325  93.5680  0.00  0.00     0.000 O
BRANCH 64 68
ATOM     65  C1  BDP B   5      46.309 100.943  96.9100  0.00  0.00     0.000 C
ATOM     66  C2  BDP B   5      45.810 102.198  96.2060  0.00  0.00     0.000 C
ATOM     67  C3  BDP B   5      44.631 101.847  95.3070  0.00  0.00     0.000 C
ATOM     68  C4  BDP B   5      45.028 100.749  94.3260  0.00  0.00     0.000 C
ATOM     69  C5  BDP B   5      45.624  99.537  95.0310  0.00  0.00     0.000 C
ATOM     70  O5  BDP B   5      46.660  99.941  95.9430  0.00  0.00     0.000 O
ATOM     71   O  BDP B   5      45.457 103.190  97.1820  0.00  0.00     0.000 O
ATOM     73  HD  BDP B   5      45.240 103.744  97.8110  0.00  0.00     0.000 HD
ATOM     73   O  BDP B   5      44.196 103.000  94.5760  0.00  0.00     0.000 O
ATOM     75  HD  BDP B   5      43.979 103.554  95.2050  0.00  0.00     0.000 HD
BRANCH 69 75
ATOM     75   C  BDP B   5      46.203  98.619  93.9840  0.00  0.00     0.000 C
ATOM     76   O  BDP B   5      45.713  97.480  93.8480  0.00  0.00     0.000 OA
ATOM     77   O  BDP B   5      47.150  99.024  93.2850  0.00  0.00     0.000 OA
ENDBRANCH 69 75
BRANCH 65 78
ATOM     78  O3  NAG B   6      47.651 100.683  97.3310  0.00  0.00     0.000 O
BRANCH 78 81
ATOM     79  C1  NAG B   6      49.351  99.777 100.5900  0.00  0.00     0.000 C
ATOM     80  C2  NAG B   6      48.644 100.667  99.5560  0.00  0.00     0.000 C
ATOM     81  C3  NAG B   6      48.178  99.834  98.3740  0.00  0.00     0.000 C
ATOM     82  C4  NAG B   6      49.324  98.979  97.8230  0.00  0.00     0.000 C
ATOM     83  C5  NAG B   6      49.920  98.143  98.9490  0.00  0.00     0.000 C
ATOM     84  O5  NAG B   6      50.408  99.043  99.9450  0.00  0.00     0.000 O
BRANCH 80 87
ATOM     85   N  NAG B   6      47.614 101.391 100.2960  0.00  0.00     0.000 N
ATOM     87  HD  NAG B   6      47.389 102.035 100.8300  0.00  0.00     0.000 HD
ATOM     87   C  NAG B   6      47.262 102.658 100.0440  0.00  0.00     0.000 C
ATOM     88   C  NAG B   6      46.159 103.206 100.8930  0.00  0.00     0.000 C
ATOM     89   O  NAG B   6      47.786 103.336  99.1680  0.00  0.00     0.000 OA
ENDBRANCH 80 87
ATOM     90   O  NAG B   6      50.639  95.862  98.5880  0.00  0.00     0.000 O
ATOM     92  HD  NAG B   6      50.318  96.431  99.1570  0.00  0.00     0.000 HD
ATOM     92   O  NAG B   6      50.639  95.862  98.5880  0.00  0.00     0.000 O
ATOM     94  HD  NAG B   6      50.318  96.431  99.1570  0.00  0.00     0.000 HD
ENDBRANCH 78 81
ENDBRANCH 65 78
ENDBRANCH 64 68
ENDBRANCH 48 64
ENDBRANCH 47 50
ENDBRANCH 34 47
ENDBRANCH 33 37
ENDBRANCH 17 33
ENDBRANCH 16 19
ENDBRANCH 1 16
TORSDOF 16
ENDMDL
MODEL 75
REMARK VINA RESULT:      -0.9     62.573     68.404
ROOT
ATOM      1  C1  BDP B   1      85.493  30.379  36.3060  0.00  0.00     0.000 C
ATOM      2  C2  BDP B   1      85.158  29.872  37.6980  0.00  0.00     0.000 C
ATOM      3  C3  BDP B   1      84.120  30.734  38.3840  0.00  0.00     0.000 C
ATOM      4  C4  BDP B   1      83.382  31.683  37.4470  0.00  0.00     0.000 C
ATOM      5  C5  BDP B   1      84.321  32.434  36.5080  0.00  0.00     0.000 C
ATOM      6  O5  BDP B   1      85.602  31.792  36.3950  0.00  0.00     0.000 O
ATOM      7   O  BDP B   1      84.690  28.522  37.6250  0.00  0.00     0.000 O
ATOM      9  HD  BDP B   1      84.745  27.714  37.3170  0.00  0.00     0.000 HD
ATOM      9   O  BDP B   1      84.741  31.528  39.4080  0.00  0.00     0.000 O
ATOM     11  HD  BDP B   1      84.797  30.720  39.1000  0.00  0.00     0.000 HD
ATOM     11   O  BDP B   1      82.403  30.969  36.6820  0.00  0.00     0.000 O
ATOM     13  HD  BDP B   1      82.459  30.161  36.3750  0.00  0.00     0.000 HD
ENDROOT
BRANCH 5 13
ATOM     13   C  BDP B   1      84.494  33.805  37.0620  0.00  0.00     0.000 C
ATOM     14   O  BDP B   1      85.404  33.994  37.8950  0.00  0.00     0.000 OA
ATOM     15   O  BDP B   1      83.746  34.722  36.6590  0.00  0.00     0.000 OA
ENDBRANCH 5 13
BRANCH 1 16
ATOM     16  O3  NAG B   2      85.391  29.737  35.0370  0.00  0.00     0.000 O
BRANCH 16 19
ATOM     17  C1  NAG B   2      82.903  30.326  32.4450  0.00  0.00     0.000 C
ATOM     18  C2  NAG B   2      84.056  30.827  33.3150  0.00  0.00     0.000 C
ATOM     19  C3  NAG B   2      84.999  29.685  33.6640  0.00  0.00     0.000 C
ATOM     20  C4  NAG B   2      84.375  28.321  33.3570  0.00  0.00     0.000 C
ATOM     21  C5  NAG B   2      82.861  28.228  33.5950  0.00  0.00     0.000 C
ATOM     22  O5  NAG B   2      82.161  29.437  33.2830  0.00  0.00     0.000 O
ATOM     23   O  NAG B   2      84.674  27.980  31.9990  0.00  0.00     0.000 O
ATOM     25  HD  NAG B   2      84.544  28.780  31.6960  0.00  0.00     0.000 HD
ATOM     25   C  NAG B   2      82.565  27.852  35.0540  0.00  0.00     0.000 C
ATOM     26   O  NAG B   2      82.604  26.433  35.2560  0.00  0.00     0.000 O
ATOM     28  HD  NAG B   2      82.474  27.233  34.9520  0.00  0.00     0.000 HD
BRANCH 18 30
ATOM     28   N  NAG B   2      84.164  31.367  31.9600  0.00  0.00     0.000 N
ATOM     30  HD  NAG B   2      84.196  31.126  31.1290  0.00  0.00     0.000 HD
ATOM     30   C  NAG B   2      85.256  31.957  31.4530  0.00  0.00     0.000 C
ATOM     31   C  NAG B   2      85.113  32.439  30.0370  0.00  0.00     0.000 C
ATOM     32   O  NAG B   2      86.287  32.093  32.0690  0.00  0.00     0.000 OA
ENDBRANCH 18 30
BRANCH 17 33
ATOM     33  O4  BDP B   3      81.566  30.436  31.9090  0.00  0.00     0.000 O
BRANCH 33 37
ATOM     34  C1  BDP B   3      78.064  32.830  31.4160  0.00  0.00     0.000 C
ATOM     35  C2  BDP B   3      78.243  31.653  30.4650  0.00  0.00     0.000 C
ATOM     36  C3  BDP B   3      79.253  30.621  30.9540  0.00  0.00     0.000 C
ATOM     37  C4  BDP B   3      80.516  31.338  31.4540  0.00  0.00     0.000 C
ATOM     38  C5  BDP B   3      80.076  32.333  32.5450  0.00  0.00     0.000 C
ATOM     39  O5  BDP B   3      79.324  33.341  31.8670  0.00  0.00     0.000 O
ATOM     40   O  BDP B   3      76.943  31.090  30.2780  0.00  0.00     0.000 O
ATOM     42  HD  BDP B   3      76.904  31.755  29.7250  0.00  0.00     0.000 HD
ATOM     42   O  BDP B   3      79.532  29.765  29.8480  0.00  0.00     0.000 O
ATOM     44  HD  BDP B   3      79.493  30.430  29.2950  0.00  0.00     0.000 HD
BRANCH 38 44
ATOM     44   C  BDP B   3      81.205  32.965  33.2990  0.00  0.00     0.000 C
ATOM     45   O  BDP B   3      82.012  33.673  32.6590  0.00  0.00     0.000 OA
ATOM     46   O  BDP B   3      81.311  32.770  34.5290  0.00  0.00     0.000 OA
ENDBRANCH 38 44
BRANCH 34 47
ATOM     47  O3  NAG B   4      77.886  34.060  30.7150  0.00  0.00     0.000 O
BRANCH 47 50
ATOM     48  C1  NAG B   4      76.898  36.861  33.0230  0.00  0.00     0.000 C
ATOM     49  C2  NAG B   4      76.816  35.495  32.3660  0.00  0.00     0.000 C
ATOM     50  C3  NAG B   4      77.983  35.325  31.4000  0.00  0.00     0.000 C
ATOM     51  C4  NAG B   4      78.034  36.452  30.3810  0.00  0.00     0.000 C
ATOM     52  C5  NAG B   4      78.044  37.802  31.0980  0.00  0.00     0.000 C
ATOM     53  O5  NAG B   4      76.946  37.889  32.0140  0.00  0.00     0.000 O
ATOM     54   O  NAG B   4      79.206  36.299  29.5760  0.00  0.00     0.000 O
ATOM     56  HD  NAG B   4      78.642  36.863  29.2390  0.00  0.00     0.000 HD
ATOM     56   C  NAG B   4      77.969  38.957  30.1070  0.00  0.00     0.000 C
ATOM     57   O  NAG B   4      76.755  38.845  29.3510  0.00  0.00     0.000 O
ATOM     59  HD  NAG B   4      76.191  39.410  29.0150  0.00  0.00     0.000 HD
BRANCH 49 61
ATOM     59   N  NAG B   4      75.369  35.588  32.1670  0.00  0.00     0.000 N
ATOM     61  HD  NAG B   4      76.015  35.040  31.9890  0.00  0.00     0.000 HD
ATOM     61   O  NAG B   4      74.887  33.438  32.6660  0.00  0.00     0.000 OA
ATOM     62   C  NAG B   4      74.525  34.576  32.4040  0.00  0.00     0.000 C
ATOM     63   C  NAG B   4      73.071  34.921  32.3530  0.00  0.00     0.000 C
ENDBRANCH 49 61
BRANCH 48 64
ATOM     64  O4  BDP B   5      76.476  37.354  34.2910  0.00  0.00     0.000 O
BRANCH 64 68
ATOM     65  C1  BDP B   5      77.388  35.564  37.9430  0.00  0.00     0.000 C
ATOM     66  C2  BDP B   5      75.914  35.588  37.5610  0.00  0.00     0.000 C
ATOM     67  C3  BDP B   5      75.775  35.861  36.0690  0.00  0.00     0.000 C
ATOM     68  C4  BDP B   5      76.490  37.157  35.7040  0.00  0.00     0.000 C
ATOM     69  C5  BDP B   5      77.936  37.170  36.1820  0.00  0.00     0.000 C
ATOM     70  O5  BDP B   5      78.014  36.802  37.5700  0.00  0.00     0.000 O
ATOM     71   O  BDP B   5      75.301  34.344  37.9320  0.00  0.00     0.000 O
ATOM     73  HD  BDP B   5      74.986  33.569  38.1570  0.00  0.00     0.000 HD
ATOM     73   O  BDP B   5      74.394  35.964  35.7030  0.00  0.00     0.000 O
ATOM     75  HD  BDP B   5      74.079  35.189  35.9280  0.00  0.00     0.000 HD
BRANCH 69 75
ATOM     75   C  BDP B   5      78.484  38.562  35.9980  0.00  0.00     0.000 C
ATOM     76   O  BDP B   5      78.039  39.481  36.7150  0.00  0.00     0.000 OA
ATOM     77   O  BDP B   5      79.365  38.756  35.1400  0.00  0.00     0.000 OA
ENDBRANCH 69 75
BRANCH 65 78
ATOM     78  O3  NAG B   6      77.943  35.927  39.2100  0.00  0.00     0.000 O
BRANCH 78 81
ATOM     79  C1  NAG B   6      80.339  34.255  41.6170  0.00  0.00     0.000 C
ATOM     80  C2  NAG B   6      79.030  34.485  40.8460  0.00  0.00     0.000 C
ATOM     81  C3  NAG B   6      79.206  35.602  39.8290  0.00  0.00     0.000 C
ATOM     82  C4  NAG B   6      79.802  36.850  40.4880  0.00  0.00     0.000 C
ATOM     83  C5  NAG B   6      81.097  36.477  41.2010  0.00  0.00     0.000 C
ATOM     84  O5  NAG B   6      80.779  35.499  42.1920  0.00  0.00     0.000 O
BRANCH 80 87
ATOM     85   N  NAG B   6      78.641  33.186  40.3030  0.00  0.00     0.000 N
ATOM     87  HD  NAG B   6      78.302  32.398  40.4190  0.00  0.00     0.000 HD
ATOM     87   C  NAG B   6      77.376  32.755  40.2240  0.00  0.00     0.000 C
ATOM     88   C  NAG B   6      77.187  31.408  39.6030  0.00  0.00     0.000 C
ATOM     89   O  NAG B   6      76.420  33.414  40.6170  0.00  0.00     0.000 OA
ENDBRANCH 80 87
ATOM     90   O  NAG B   6      83.017  37.948  41.1880  0.00  0.00     0.000 O
ATOM     92  HD  NAG B   6      82.743  37.127  41.2200  0.00  0.00     0.000 HD
ATOM     92   O  NAG B   6      83.017  37.948  41.1880  0.00  0.00     0.000 O
ATOM     94  HD  NAG B   6      82.743  37.127  41.2200  0.00  0.00     0.000 HD
ENDBRANCH 78 81
ENDBRANCH 65 78
ENDBRANCH 64 68
ENDBRANCH 48 64
ENDBRANCH 47 50
ENDBRANCH 34 47
ENDBRANCH 33 37
ENDBRANCH 17 33
ENDBRANCH 16 19
ENDBRANCH 1 16
TORSDOF 16
ENDMDL
MODEL 76
REMARK VINA RESULT:      -0.9    100.129    103.935
ROOT
ATOM      1  C1  BDP B   1      28.373 110.422  45.1380  0.00  0.00     0.000 C
ATOM      2  C2  BDP B   1      28.504 111.928  45.2830  0.00  0.00     0.000 C
ATOM      3  C3  BDP B   1      28.425 112.369  46.7290  0.00  0.00     0.000 C
ATOM      4  C4  BDP B   1      28.589 111.236  47.7350  0.00  0.00     0.000 C
ATOM      5  C5  BDP B   1      27.744 110.014  47.3910  0.00  0.00     0.000 C
ATOM      6  O5  BDP B   1      27.334 110.009  46.0130  0.00  0.00     0.000 O
ATOM      7   O  BDP B   1      29.742 112.366  44.7140  0.00  0.00     0.000 O
ATOM      9  HD  BDP B   1      30.336 112.351  44.0840  0.00  0.00     0.000 HD
ATOM      9   O  BDP B   1      27.157 112.996  46.9810  0.00  0.00     0.000 O
ATOM     11  HD  BDP B   1      27.751 112.981  46.3510  0.00  0.00     0.000 HD
ATOM     11   O  BDP B   1      29.967 110.857  47.8410  0.00  0.00     0.000 O
ATOM     13  HD  BDP B   1      30.560 110.842  47.2100  0.00  0.00     0.000 HD
ENDROOT
BRANCH 5 13
ATOM     13   C  BDP B   1      26.544 110.045  48.2720  0.00  0.00     0.000 C
ATOM     14   O  BDP B   1      26.720 110.145  49.5040  0.00  0.00     0.000 OA
ATOM     15   O  BDP B   1      25.408 109.996  47.7540  0.00  0.00     0.000 OA
ENDBRANCH 5 13
BRANCH 1 16
ATOM     16  O3  NAG B   2      29.264 109.465  44.5670  0.00  0.00     0.000 O
BRANCH 16 19
ATOM     17  C1  NAG B   2      31.444 107.174  46.3710  0.00  0.00     0.000 C
ATOM     18  C2  NAG B   2      30.040 107.652  45.9970  0.00  0.00     0.000 C
ATOM     19  C3  NAG B   2      30.037 108.264  44.6040  0.00  0.00     0.000 C
ATOM     20  C4  NAG B   2      31.457 108.549  44.1060  0.00  0.00     0.000 C
ATOM     21  C5  NAG B   2      32.450 108.995  45.1880  0.00  0.00     0.000 C
ATOM     22  O5  NAG B   2      32.234 108.362  46.4540  0.00  0.00     0.000 O
ATOM     23   O  NAG B   2      31.950 107.377  43.4480  0.00  0.00     0.000 O
ATOM     25  HD  NAG B   2      31.618 106.826  44.0270  0.00  0.00     0.000 HD
ATOM     25   C  NAG B   2      32.388 110.517  45.3830  0.00  0.00     0.000 C
ATOM     26   O  NAG B   2      33.224 111.208  44.4440  0.00  0.00     0.000 O
ATOM     28  HD  NAG B   2      32.891 110.656  45.0230  0.00  0.00     0.000 HD
BRANCH 18 30
ATOM     28   N  NAG B   2      29.165 106.515  46.2790  0.00  0.00     0.000 N
ATOM     30  HD  NAG B   2      29.026 105.887  46.8590  0.00  0.00     0.000 HD
ATOM     30   C  NAG B   2      29.141 105.372  45.5780  0.00  0.00     0.000 C
ATOM     31   C  NAG B   2      28.144 104.356  46.0600  0.00  0.00     0.000 C
ATOM     32   O  NAG B   2      29.863 105.155  44.6330  0.00  0.00     0.000 OA
ENDBRANCH 18 30
BRANCH 17 33
ATOM     33  O4  BDP B   3      32.454 106.810  47.3370  0.00  0.00     0.000 O
BRANCH 33 37
ATOM     34  C1  BDP B   3      33.381 108.165  51.2790  0.00  0.00     0.000 C
ATOM     35  C2  BDP B   3      34.521 108.130  50.2680  0.00  0.00     0.000 C
ATOM     36  C3  BDP B   3      34.051 108.053  48.8200  0.00  0.00     0.000 C
ATOM     37  C4  BDP B   3      32.948 106.991  48.6960  0.00  0.00     0.000 C
ATOM     38  C5  BDP B   3      31.831 107.373  49.6860  0.00  0.00     0.000 C
ATOM     39  O5  BDP B   3      32.385 107.177  50.9870  0.00  0.00     0.000 O
ATOM     40   O  BDP B   3      35.313 109.293  50.5190  0.00  0.00     0.000 O
ATOM     42  HD  BDP B   3      35.613 108.766  51.1370  0.00  0.00     0.000 HD
ATOM     42   O  BDP B   3      35.195 107.724  48.0350  0.00  0.00     0.000 O
ATOM     44  HD  BDP B   3      35.495 107.197  48.6530  0.00  0.00     0.000 HD
BRANCH 38 44
ATOM     44   C  BDP B   3      30.576 106.570  49.5440  0.00  0.00     0.000 C
ATOM     45   O  BDP B   3      30.662 105.326  49.6510  0.00  0.00     0.000 OA
ATOM     46   O  BDP B   3      29.491 107.151  49.3250  0.00  0.00     0.000 OA
ENDBRANCH 38 44
BRANCH 34 47
ATOM     47  O3  NAG B   4      33.688 107.419  52.4560  0.00  0.00     0.000 O
BRANCH 47 50
ATOM     48  C1  NAG B   4      31.805 108.967  55.3210  0.00  0.00     0.000 C
ATOM     49  C2  NAG B   4      32.646 108.929  54.0570  0.00  0.00     0.000 C
ATOM     50  C3  NAG B   4      32.836 107.482  53.6180  0.00  0.00     0.000 C
ATOM     51  C4  NAG B   4      33.431 106.633  54.7300  0.00  0.00     0.000 C
ATOM     52  C5  NAG B   4      32.583 106.767  55.9950  0.00  0.00     0.000 C
ATOM     53  O5  NAG B   4      32.412 108.147  56.3390  0.00  0.00     0.000 O
ATOM     54   O  NAG B   4      33.484 105.271  54.2990  0.00  0.00     0.000 O
ATOM     56  HD  NAG B   4      33.959 105.415  55.0090  0.00  0.00     0.000 HD
ATOM     56   C  NAG B   4      33.218 106.029  57.1680  0.00  0.00     0.000 C
ATOM     57   O  NAG B   4      34.516 106.584  57.4220  0.00  0.00     0.000 O
ATOM     59  HD  NAG B   4      34.991 106.728  58.1320  0.00  0.00     0.000 HD
BRANCH 49 61
ATOM     59   N  NAG B   4      33.610 109.921  54.5360  0.00  0.00     0.000 N
ATOM     61  HD  NAG B   4      33.478 109.428  53.8360  0.00  0.00     0.000 HD
ATOM     61   O  NAG B   4      33.833 111.045  52.5900  0.00  0.00     0.000 OA
ATOM     62   C  NAG B   4      34.062 110.932  53.7850  0.00  0.00     0.000 C
ATOM     63   C  NAG B   4      34.870 111.963  54.5070  0.00  0.00     0.000 C
ENDBRANCH 49 61
BRANCH 48 64
ATOM     64  O4  BDP B   5      30.902 109.930  55.8560  0.00  0.00     0.000 O
BRANCH 64 68
ATOM     65  C1  BDP B   5      29.180 113.028  53.6640  0.00  0.00     0.000 C
ATOM     66  C2  BDP B   5      30.058 113.448  54.8340  0.00  0.00     0.000 C
ATOM     67  C3  BDP B   5      30.941 112.280  55.2580  0.00  0.00     0.000 C
ATOM     68  C4  BDP B   5      30.081 111.064  55.5840  0.00  0.00     0.000 C
ATOM     69  C5  BDP B   5      29.128 110.713  54.4480  0.00  0.00     0.000 C
ATOM     70  O5  BDP B   5      28.399 111.876  54.0210  0.00  0.00     0.000 O
ATOM     71   O  BDP B   5      30.838 114.595  54.4640  0.00  0.00     0.000 O
ATOM     73  HD  BDP B   5      31.299 115.273  54.1830  0.00  0.00     0.000 HD
ATOM     73   O  BDP B   5      31.720 112.630  56.4070  0.00  0.00     0.000 O
ATOM     75  HD  BDP B   5      32.180 113.308  56.1260  0.00  0.00     0.000 HD
BRANCH 69 75
ATOM     75   C  BDP B   5      28.162 109.668  54.9470  0.00  0.00     0.000 C
ATOM     76   O  BDP B   5      28.165 108.543  54.4070  0.00  0.00     0.000 OA
ATOM     77   O  BDP B   5      27.394 109.955  55.8830  0.00  0.00     0.000 OA
ENDBRANCH 69 75
BRANCH 65 78
ATOM     78  O3  NAG B   6      27.878 113.533  53.3550  0.00  0.00     0.000 O
BRANCH 78 81
ATOM     79  C1  NAG B   6      25.722 113.435  50.2450  0.00  0.00     0.000 C
ATOM     80  C2  NAG B   6      26.908 113.828  51.1390  0.00  0.00     0.000 C
ATOM     81  C3  NAG B   6      26.857 113.059  52.4500  0.00  0.00     0.000 C
ATOM     82  C4  NAG B   6      25.478 113.186  53.1040  0.00  0.00     0.000 C
ATOM     83  C5  NAG B   6      24.405 112.753  52.1120  0.00  0.00     0.000 C
ATOM     84  O5  NAG B   6      24.495 113.612  50.9750  0.00  0.00     0.000 O
BRANCH 80 87
ATOM     85   N  NAG B   6      28.118 113.622  50.3480  0.00  0.00     0.000 N
ATOM     87  HD  NAG B   6      28.652 113.879  49.7160  0.00  0.00     0.000 HD
ATOM     87   C  NAG B   6      29.177 114.441  50.3720  0.00  0.00     0.000 C
ATOM     88   C  NAG B   6      30.332 114.034  49.5140  0.00  0.00     0.000 C
ATOM     89   O  NAG B   6      29.222 115.456  51.0580  0.00  0.00     0.000 OA
ENDBRANCH 80 87
ATOM     90   O  NAG B   6      22.468 111.487  52.8160  0.00  0.00     0.000 O
ATOM     92  HD  NAG B   6      23.023 111.648  52.1710  0.00  0.00     0.000 HD
ATOM     92   O  NAG B   6      22.468 111.487  52.8160  0.00  0.00     0.000 O
ATOM     94  HD  NAG B   6      23.023 111.648  52.1710  0.00  0.00     0.000 HD
ENDBRANCH 78 81
ENDBRANCH 65 78
ENDBRANCH 64 68
ENDBRANCH 48 64
ENDBRANCH 47 50
ENDBRANCH 34 47
ENDBRANCH 33 37
ENDBRANCH 17 33
ENDBRANCH 16 19
ENDBRANCH 1 16
TORSDOF 16
ENDMDL
MODEL 77
REMARK VINA RESULT:      -0.9     78.627     83.729
ROOT
ATOM      1  C1  BDP B   1      29.834   0.375 109.9170  0.00  0.00     0.000 C
ATOM      2  C2  BDP B   1      28.369   0.298 109.5240  0.00  0.00     0.000 C
ATOM      3  C3  BDP B   1      27.571   1.462 110.0720  0.00  0.00     0.000 C
ATOM      4  C4  BDP B   1      28.425   2.619 110.5780  0.00  0.00     0.000 C
ATOM      5  C5  BDP B   1      29.578   2.158 111.4640  0.00  0.00     0.000 C
ATOM      6  O5  BDP B   1      29.878   0.764 111.2820  0.00  0.00     0.000 O
ATOM      7   O  BDP B   1      28.249   0.262 108.0980  0.00  0.00     0.000 O
ATOM      9  HD  BDP B   1      28.497  -0.032 107.3220  0.00  0.00     0.000 HD
ATOM      9   O  BDP B   1      26.746   1.020 111.1620  0.00  0.00     0.000 O
ATOM     11  HD  BDP B   1      26.995   0.726 110.3860  0.00  0.00     0.000 HD
ATOM     11   O  BDP B   1      28.936   3.381 109.4780  0.00  0.00     0.000 O
ATOM     13  HD  BDP B   1      29.184   3.087 108.7020  0.00  0.00     0.000 HD
ENDROOT
BRANCH 5 13
ATOM     13   C  BDP B   1      29.174   2.404 112.8760  0.00  0.00     0.000 C
ATOM     14   O  BDP B   1      28.580   1.492 113.4870  0.00  0.00     0.000 OA
ATOM     15   O  BDP B   1      29.464   3.497 113.4090  0.00  0.00     0.000 OA
ENDBRANCH 5 13
BRANCH 1 16
ATOM     16  O3  NAG B   2      31.009   0.428 109.1090  0.00  0.00     0.000 O
BRANCH 16 19
ATOM     17  C1  NAG B   2      33.061   3.349 108.3930  0.00  0.00     0.000 C
ATOM     18  C2  NAG B   2      32.493   2.339 109.3910  0.00  0.00     0.000 C
ATOM     19  C3  NAG B   2      32.260   0.995 108.7180  0.00  0.00     0.000 C
ATOM     20  C4  NAG B   2      32.323   1.105 107.1920  0.00  0.00     0.000 C
ATOM     21  C5  NAG B   2      31.767   2.412 106.6100  0.00  0.00     0.000 C
ATOM     22  O5  NAG B   2      32.019   3.556 107.4360  0.00  0.00     0.000 O
ATOM     23   O  NAG B   2      33.682   0.930 106.7790  0.00  0.00     0.000 O
ATOM     25  HD  NAG B   2      34.013   1.399 107.4280  0.00  0.00     0.000 HD
ATOM     25   C  NAG B   2      30.254   2.300 106.3770  0.00  0.00     0.000 C
ATOM     26   O  NAG B   2      29.954   1.701 105.1090  0.00  0.00     0.000 O
ATOM     28  HD  NAG B   2      30.285   2.169 105.7580  0.00  0.00     0.000 HD
BRANCH 18 30
ATOM     28   N  NAG B   2      33.879   2.666 109.7230  0.00  0.00     0.000 N
ATOM     30  HD  NAG B   2      34.677   2.682 109.3860  0.00  0.00     0.000 HD
ATOM     30   C  NAG B   2      34.647   1.976 110.5780  0.00  0.00     0.000 C
ATOM     31   C  NAG B   2      36.036   2.519 110.7600  0.00  0.00     0.000 C
ATOM     32   O  NAG B   2      34.271   0.987 111.1620  0.00  0.00     0.000 OA
ENDBRANCH 18 30
BRANCH 17 33
ATOM     33  O4  BDP B   3      33.312   4.699 107.9440  0.00  0.00     0.000 O
BRANCH 33 37
ATOM     34  C1  BDP B   3      33.431   8.875 108.8310  0.00  0.00     0.000 C
ATOM     35  C2  BDP B   3      34.292   8.384 107.6730  0.00  0.00     0.000 C
ATOM     36  C3  BDP B   3      33.887   7.009 107.1520  0.00  0.00     0.000 C
ATOM     37  C4  BDP B   3      33.666   6.057 108.3370  0.00  0.00     0.000 C
ATOM     38  C5  BDP B   3      32.609   6.704 109.2530  0.00  0.00     0.000 C
ATOM     39  O5  BDP B   3      33.239   7.854 109.8170  0.00  0.00     0.000 O
ATOM     40   O  BDP B   3      34.213   9.390 106.6610  0.00  0.00     0.000 O
ATOM     42  HD  BDP B   3      34.809   9.741 107.1830  0.00  0.00     0.000 HD
ATOM     42   O  BDP B   3      34.945   6.565 106.3040  0.00  0.00     0.000 O
ATOM     44  HD  BDP B   3      35.540   6.916 106.8260  0.00  0.00     0.000 HD
BRANCH 38 44
ATOM     44   C  BDP B   3      32.108   5.813 110.3460  0.00  0.00     0.000 C
ATOM     45   O  BDP B   3      32.928   5.424 111.2060  0.00  0.00     0.000 OA
ATOM     46   O  BDP B   3      30.902   5.484 110.3720  0.00  0.00     0.000 OA
ENDBRANCH 38 44
BRANCH 34 47
ATOM     47  O3  NAG B   4      34.198   9.584 109.8020  0.00  0.00     0.000 O
BRANCH 47 50
ATOM     48  C1  NAG B   4      32.833  12.787 111.2250  0.00  0.00     0.000 C
ATOM     49  C2  NAG B   4      33.440  11.867 110.1810  0.00  0.00     0.000 C
ATOM     50  C3  NAG B   4      33.562  10.460 110.7550  0.00  0.00     0.000 C
ATOM     51  C4  NAG B   4      34.349  10.453 112.0560  0.00  0.00     0.000 C
ATOM     52  C5  NAG B   4      33.735  11.448 113.0400  0.00  0.00     0.000 C
ATOM     53  O5  NAG B   4      33.615  12.741 112.4340  0.00  0.00     0.000 O
ATOM     54   O  NAG B   4      34.337   9.131 112.6010  0.00  0.00     0.000 O
ATOM     56  HD  NAG B   4      34.928   9.641 112.9760  0.00  0.00     0.000 HD
ATOM     56   C  NAG B   4      34.572  11.560 114.3090  0.00  0.00     0.000 C
ATOM     57   O  NAG B   4      35.889  12.008 113.9630  0.00  0.00     0.000 O
ATOM     59  HD  NAG B   4      36.479  12.518 114.3380  0.00  0.00     0.000 HD
BRANCH 49 61
ATOM     59   N  NAG B   4      32.625  12.167 109.0030  0.00  0.00     0.000 N
ATOM     61  HD  NAG B   4      33.355  12.446 109.3760  0.00  0.00     0.000 HD
ATOM     61   O  NAG B   4      34.335  12.429 107.5500  0.00  0.00     0.000 OA
ATOM     62   C  NAG B   4      33.137  12.349 107.7790  0.00  0.00     0.000 C
ATOM     63   C  NAG B   4      32.140  12.432 106.6670  0.00  0.00     0.000 C
ENDBRANCH 49 61
BRANCH 48 64
ATOM     64  O4  BDP B   5      32.030  13.961 111.1340  0.00  0.00     0.000 O
BRANCH 64 68
ATOM     65  C1  BDP B   5      32.828  17.336 108.8230  0.00  0.00     0.000 C
ATOM     66  C2  BDP B   5      33.272  17.404 110.2780  0.00  0.00     0.000 C
ATOM     67  C3  BDP B   5      33.317  15.999 110.8660  0.00  0.00     0.000 C
ATOM     68  C4  BDP B   5      31.962  15.319 110.7040  0.00  0.00     0.000 C
ATOM     69  C5  BDP B   5      31.474  15.348 109.2610  0.00  0.00     0.000 C
ATOM     70  O5  BDP B   5      31.553  16.681 108.7270  0.00  0.00     0.000 O
ATOM     71   O  BDP B   5      34.549  18.055 110.3620  0.00  0.00     0.000 O
ATOM     73  HD  BDP B   5      35.327  18.435 110.3540  0.00  0.00     0.000 HD
ATOM     73   O  BDP B   5      33.658  16.047 112.2560  0.00  0.00     0.000 O
ATOM     75  HD  BDP B   5      34.436  16.427 112.2480  0.00  0.00     0.000 HD
BRANCH 69 75
ATOM     75   C  BDP B   5      30.041  14.881 109.2370  0.00  0.00     0.000 C
ATOM     76   O  BDP B   5      29.793  13.727 108.8320  0.00  0.00     0.000 OA
ATOM     77   O  BDP B   5      29.147  15.656 109.6240  0.00  0.00     0.000 OA
ENDBRANCH 69 75
BRANCH 65 78
ATOM     78  O3  NAG B   6      32.109  18.345 108.1080  0.00  0.00     0.000 O
BRANCH 78 81
ATOM     79  C1  NAG B   6      32.631  20.203 104.8510  0.00  0.00     0.000 C
ATOM     80  C2  NAG B   6      32.872  19.811 106.3170  0.00  0.00     0.000 C
ATOM     81  C3  NAG B   6      32.002  18.622 106.6940  0.00  0.00     0.000 C
ATOM     82  C4  NAG B   6      30.538  18.877 106.3200  0.00  0.00     0.000 C
ATOM     83  C5  NAG B   6      30.449  19.241 104.8430  0.00  0.00     0.000 C
ATOM     84  O5  NAG B   6      31.224  20.424 104.6410  0.00  0.00     0.000 O
BRANCH 80 87
ATOM     85   N  NAG B   6      34.314  19.624 106.4520  0.00  0.00     0.000 N
ATOM     87  HD  NAG B   6      35.108  19.961 106.5310  0.00  0.00     0.000 HD
ATOM     87   C  NAG B   6      35.016  19.969 107.5380  0.00  0.00     0.000 C
ATOM     88   C  NAG B   6      36.479  19.662 107.4910  0.00  0.00     0.000 C
ATOM     89   O  NAG B   6      34.508  20.489 108.5240  0.00  0.00     0.000 OA
ENDBRANCH 80 87
ATOM     90   O  NAG B   6      28.636  18.449 103.4520  0.00  0.00     0.000 O
ATOM     92  HD  NAG B   6      29.468  18.687 103.4780  0.00  0.00     0.000 HD
ATOM     92   O  NAG B   6      28.636  18.449 103.4520  0.00  0.00     0.000 O
ATOM     94  HD  NAG B   6      29.468  18.687 103.4780  0.00  0.00     0.000 HD
ENDBRANCH 78 81
ENDBRANCH 65 78
ENDBRANCH 64 68
ENDBRANCH 48 64
ENDBRANCH 47 50
ENDBRANCH 34 47
ENDBRANCH 33 37
ENDBRANCH 17 33
ENDBRANCH 16 19
ENDBRANCH 1 16
TORSDOF 16
ENDMDL
MODEL 78
REMARK VINA RESULT:      -0.9     76.248     82.170
ROOT
ATOM      1  C1  BDP B   1      28.212   1.412 109.6360  0.00  0.00     0.000 C
ATOM      2  C2  BDP B   1      26.840   0.920 109.2100  0.00  0.00     0.000 C
ATOM      3  C3  BDP B   1      25.737   1.860 109.6460  0.00  0.00     0.000 C
ATOM      4  C4  BDP B   1      26.229   3.234 110.0860  0.00  0.00     0.000 C
ATOM      5  C5  BDP B   1      27.420   3.158 111.0360  0.00  0.00     0.000 C
ATOM      6  O5  BDP B   1      28.087   1.887 110.9680  0.00  0.00     0.000 O
ATOM      7   O  BDP B   1      26.801   0.759 107.7880  0.00  0.00     0.000 O
ATOM      9  HD  BDP B   1      27.154   0.492 107.0440  0.00  0.00     0.000 HD
ATOM      9   O  BDP B   1      25.009   1.286 110.7430  0.00  0.00     0.000 O
ATOM     11  HD  BDP B   1      25.362   1.020 109.9990  0.00  0.00     0.000 HD
ATOM     11   O  BDP B   1      26.571   4.031 108.9450  0.00  0.00     0.000 O
ATOM     13  HD  BDP B   1      26.924   3.765 108.2010  0.00  0.00     0.000 HD
ENDROOT
BRANCH 5 13
ATOM     13   C  BDP B   1      26.900   3.380 112.4130  0.00  0.00     0.000 C
ATOM     14   O  BDP B   1      26.842   4.552 112.8400  0.00  0.00     0.000 OA
ATOM     15   O  BDP B   1      26.517   2.397 113.0840  0.00  0.00     0.000 OA
ENDBRANCH 5 13
BRANCH 1 16
ATOM     16  O3  NAG B   2      29.367   1.724 108.8590  0.00  0.00     0.000 O
BRANCH 16 19
ATOM     17  C1  NAG B   2      30.601   5.035 107.9800  0.00  0.00     0.000 C
ATOM     18  C2  NAG B   2      30.276   3.978 109.0360  0.00  0.00     0.000 C
ATOM     19  C3  NAG B   2      30.440   2.579 108.4610  0.00  0.00     0.000 C
ATOM     20  C4  NAG B   2      30.542   2.602 106.9330  0.00  0.00     0.000 C
ATOM     21  C5  NAG B   2      29.687   3.671 106.2390  0.00  0.00     0.000 C
ATOM     22  O5  NAG B   2      29.588   4.891 106.9820  0.00  0.00     0.000 O
ATOM     23   O  NAG B   2      31.917   2.771 106.5720  0.00  0.00     0.000 O
ATOM     25  HD  NAG B   2      32.081   3.352 107.1920  0.00  0.00     0.000 HD
ATOM     25   C  NAG B   2      28.270   3.142 105.9750  0.00  0.00     0.000 C
ATOM     26   O  NAG B   2      28.200   2.403 104.7470  0.00  0.00     0.000 O
ATOM     28  HD  NAG B   2      28.364   2.984 105.3680  0.00  0.00     0.000 HD
BRANCH 18 30
ATOM     28   N  NAG B   2      31.510   4.684 109.3790  0.00  0.00     0.000 N
ATOM     30  HD  NAG B   2      32.291   4.888 109.0630  0.00  0.00     0.000 HD
ATOM     30   C  NAG B   2      32.392   4.283 110.3060  0.00  0.00     0.000 C
ATOM     31   C  NAG B   2      33.579   5.188 110.4810  0.00  0.00     0.000 C
ATOM     32   O  NAG B   2      32.263   3.272 110.9550  0.00  0.00     0.000 OA
ENDBRANCH 18 30
BRANCH 17 33
ATOM     33  O4  BDP B   3      30.506   6.370 107.4380  0.00  0.00     0.000 O
BRANCH 33 37
ATOM     34  C1  BDP B   3      29.463  10.472 108.0120  0.00  0.00     0.000 C
ATOM     35  C2  BDP B   3      30.475  10.157 106.9160  0.00  0.00     0.000 C
ATOM     36  C3  BDP B   3      30.477   8.693 106.4900  0.00  0.00     0.000 C
ATOM     37  C4  BDP B   3      30.465   7.796 107.7370  0.00  0.00     0.000 C
ATOM     38  C5  BDP B   3      29.234   8.192 108.5740  0.00  0.00     0.000 C
ATOM     39  O5  BDP B   3      29.507   9.504 109.0660  0.00  0.00     0.000 O
ATOM     40   O  BDP B   3      30.175  11.036 105.8310  0.00  0.00     0.000 O
ATOM     42  HD  BDP B   3      30.631  11.569 106.3400  0.00  0.00     0.000 HD
ATOM     42   O  BDP B   3      31.652   8.496 105.7050  0.00  0.00     0.000 O
ATOM     44  HD  BDP B   3      32.107   9.029 106.2150  0.00  0.00     0.000 HD
BRANCH 38 44
ATOM     44   C  BDP B   3      28.941   7.272 109.7180  0.00  0.00     0.000 C
ATOM     45   O  BDP B   3      27.856   6.650 109.7060  0.00  0.00     0.000 OA
ATOM     46   O  BDP B   3      29.774   7.151 110.6420  0.00  0.00     0.000 OA
ENDBRANCH 38 44
BRANCH 34 47
ATOM     47  O3  NAG B   4      29.968  11.424 108.9470  0.00  0.00     0.000 O
BRANCH 47 50
ATOM     48  C1  NAG B   4      27.732  14.224 110.0890  0.00  0.00     0.000 C
ATOM     49  C2  NAG B   4      28.609  13.436 109.1330  0.00  0.00     0.000 C
ATOM     50  C3  NAG B   4      29.078  12.155 109.8150  0.00  0.00     0.000 C
ATOM     51  C4  NAG B   4      29.780  12.447 111.1310  0.00  0.00     0.000 C
ATOM     52  C5  NAG B   4      28.877  13.301 112.0220  0.00  0.00     0.000 C
ATOM     53  O5  NAG B   4      28.442  14.471 111.3180  0.00  0.00     0.000 O
ATOM     54   O  NAG B   4      30.098  11.210 111.7740  0.00  0.00     0.000 O
ATOM     56  HD  NAG B   4      30.513  11.884 112.1250  0.00  0.00     0.000 HD
ATOM     56   C  NAG B   4      29.596  13.719 113.3000  0.00  0.00     0.000 C
ATOM     57   O  NAG B   4      30.759  14.482 112.9540  0.00  0.00     0.000 O
ATOM     59  HD  NAG B   4      31.174  15.156 113.3050  0.00  0.00     0.000 HD
BRANCH 49 61
ATOM     59   N  NAG B   4      27.798  13.427 107.9150  0.00  0.00     0.000 N
ATOM     61  HD  NAG B   4      28.409  13.916 108.2850  0.00  0.00     0.000 HD
ATOM     61   O  NAG B   4      29.438  14.045 106.4910  0.00  0.00     0.000 OA
ATOM     62   C  NAG B   4      28.296  13.660 106.6950  0.00  0.00     0.000 C
ATOM     63   C  NAG B   4      27.364  13.397 105.5550  0.00  0.00     0.000 C
ENDBRANCH 49 61
BRANCH 48 64
ATOM     64  O4  BDP B   5      26.649  15.128 109.8900  0.00  0.00     0.000 O
BRANCH 64 68
ATOM     65  C1  BDP B   5      26.615  18.435 107.3530  0.00  0.00     0.000 C
ATOM     66  C2  BDP B   5      26.960  18.715 108.8090  0.00  0.00     0.000 C
ATOM     67  C3  BDP B   5      27.353  17.417 109.5020  0.00  0.00     0.000 C
ATOM     68  C4  BDP B   5      26.238  16.387 109.3570  0.00  0.00     0.000 C
ATOM     69  C5  BDP B   5      25.825  16.188 107.9040  0.00  0.00     0.000 C
ATOM     70  O5  BDP B   5      25.568  17.455 107.2730  0.00  0.00     0.000 O
ATOM     71   O  BDP B   5      28.011  19.692 108.8760  0.00  0.00     0.000 O
ATOM     73  HD  BDP B   5      28.658  20.267 108.8590  0.00  0.00     0.000 HD
ATOM     73   O  BDP B   5      27.607  17.646 110.8930  0.00  0.00     0.000 O
ATOM     75  HD  BDP B   5      28.254  18.221 110.8760  0.00  0.00     0.000 HD
BRANCH 69 75
ATOM     75   C  BDP B   5      24.572  15.350 107.8790  0.00  0.00     0.000 C
ATOM     76   O  BDP B   5      24.661  14.148 107.5560  0.00  0.00     0.000 OA
ATOM     77   O  BDP B   5      23.487  15.878 108.1840  0.00  0.00     0.000 OA
ENDBRANCH 69 75
BRANCH 65 78
ATOM     78  O3  NAG B   6      25.685  19.162 106.5450  0.00  0.00     0.000 O
BRANCH 78 81
ATOM     79  C1  NAG B   6      25.835  20.875 103.1720  0.00  0.00     0.000 C
ATOM     80  C2  NAG B   6      26.107  20.659 104.6690  0.00  0.00     0.000 C
ATOM     81  C3  NAG B   6      25.572  19.307 105.1130  0.00  0.00     0.000 C
ATOM     82  C4  NAG B   6      24.111  19.131 104.6840  0.00  0.00     0.000 C
ATOM     83  C5  NAG B   6      23.993  19.360 103.1810  0.00  0.00     0.000 C
ATOM     84  O5  NAG B   6      24.432  20.693 102.9110  0.00  0.00     0.000 O
BRANCH 80 87
ATOM     85   N  NAG B   6      27.539  20.879 104.8540  0.00  0.00     0.000 N
ATOM     87  HD  NAG B   6      28.209  21.422 104.9280  0.00  0.00     0.000 HD
ATOM     87   C  NAG B   6      28.073  21.471 105.9290  0.00  0.00     0.000 C
ATOM     88   C  NAG B   6      29.565  21.568 105.9420  0.00  0.00     0.000 C
ATOM     89   O  NAG B   6      27.401  21.898 106.8600  0.00  0.00     0.000 OA
ENDBRANCH 80 87
ATOM     90   O  NAG B   6      22.523  18.018 101.8090  0.00  0.00     0.000 O
ATOM     92  HD  NAG B   6      23.259  18.474 101.8370  0.00  0.00     0.000 HD
ATOM     92   O  NAG B   6      22.523  18.018 101.8090  0.00  0.00     0.000 O
ATOM     94  HD  NAG B   6      23.259  18.474 101.8370  0.00  0.00     0.000 HD
ENDBRANCH 78 81
ENDBRANCH 65 78
ENDBRANCH 64 68
ENDBRANCH 48 64
ENDBRANCH 47 50
ENDBRANCH 34 47
ENDBRANCH 33 37
ENDBRANCH 17 33
ENDBRANCH 16 19
ENDBRANCH 1 16
TORSDOF 16
ENDMDL
MODEL 79
REMARK VINA RESULT:      -0.9     80.053     84.197
ROOT
ATOM      1  C1  BDP B   1      29.834   0.375 109.9170  0.00  0.00     0.000 C
ATOM      2  C2  BDP B   1      28.369   0.298 109.5240  0.00  0.00     0.000 C
ATOM      3  C3  BDP B   1      27.571   1.462 110.0720  0.00  0.00     0.000 C
ATOM      4  C4  BDP B   1      28.425   2.619 110.5780  0.00  0.00     0.000 C
ATOM      5  C5  BDP B   1      29.578   2.158 111.4640  0.00  0.00     0.000 C
ATOM      6  O5  BDP B   1      29.878   0.764 111.2820  0.00  0.00     0.000 O
ATOM      7   O  BDP B   1      28.249   0.262 108.0980  0.00  0.00     0.000 O
ATOM      9  HD  BDP B   1      28.497  -0.032 107.3220  0.00  0.00     0.000 HD
ATOM      9   O  BDP B   1      26.746   1.020 111.1620  0.00  0.00     0.000 O
ATOM     11  HD  BDP B   1      26.995   0.726 110.3860  0.00  0.00     0.000 HD
ATOM     11   O  BDP B   1      28.936   3.381 109.4780  0.00  0.00     0.000 O
ATOM     13  HD  BDP B   1      29.184   3.087 108.7020  0.00  0.00     0.000 HD
ENDROOT
BRANCH 5 13
ATOM     13   C  BDP B   1      29.174   2.404 112.8760  0.00  0.00     0.000 C
ATOM     14   O  BDP B   1      28.580   1.492 113.4870  0.00  0.00     0.000 OA
ATOM     15   O  BDP B   1      29.464   3.497 113.4090  0.00  0.00     0.000 OA
ENDBRANCH 5 13
BRANCH 1 16
ATOM     16  O3  NAG B   2      31.009   0.428 109.1090  0.00  0.00     0.000 O
BRANCH 16 19
ATOM     17  C1  NAG B   2      33.060   3.349 108.3920  0.00  0.00     0.000 C
ATOM     18  C2  NAG B   2      32.493   2.340 109.3910  0.00  0.00     0.000 C
ATOM     19  C3  NAG B   2      32.260   0.995 108.7180  0.00  0.00     0.000 C
ATOM     20  C4  NAG B   2      32.323   1.105 107.1920  0.00  0.00     0.000 C
ATOM     21  C5  NAG B   2      31.767   2.412 106.6100  0.00  0.00     0.000 C
ATOM     22  O5  NAG B   2      32.019   3.556 107.4350  0.00  0.00     0.000 O
ATOM     23   O  NAG B   2      33.682   0.930 106.7790  0.00  0.00     0.000 O
ATOM     25  HD  NAG B   2      34.013   1.399 107.4280  0.00  0.00     0.000 HD
ATOM     25   C  NAG B   2      30.253   2.300 106.3770  0.00  0.00     0.000 C
ATOM     26   O  NAG B   2      29.954   1.700 105.1090  0.00  0.00     0.000 O
ATOM     28  HD  NAG B   2      30.285   2.169 105.7580  0.00  0.00     0.000 HD
BRANCH 18 30
ATOM     28   N  NAG B   2      33.879   2.666 109.7220  0.00  0.00     0.000 N
ATOM     30  HD  NAG B   2      34.677   2.681 109.3860  0.00  0.00     0.000 HD
ATOM     30   C  NAG B   2      34.647   1.976 110.5780  0.00  0.00     0.000 C
ATOM     31   C  NAG B   2      36.037   2.519 110.7590  0.00  0.00     0.000 C
ATOM     32   O  NAG B   2      34.270   0.988 111.1630  0.00  0.00     0.000 OA
ENDBRANCH 18 30
BRANCH 17 33
ATOM     33  O4  BDP B   3      33.311   4.699 107.9440  0.00  0.00     0.000 O
BRANCH 33 37
ATOM     34  C1  BDP B   3      33.430   8.875 108.8300  0.00  0.00     0.000 C
ATOM     35  C2  BDP B   3      34.291   8.384 107.6720  0.00  0.00     0.000 C
ATOM     36  C3  BDP B   3      33.887   7.009 107.1510  0.00  0.00     0.000 C
ATOM     37  C4  BDP B   3      33.665   6.057 108.3370  0.00  0.00     0.000 C
ATOM     38  C5  BDP B   3      32.608   6.704 109.2520  0.00  0.00     0.000 C
ATOM     39  O5  BDP B   3      33.238   7.854 109.8160  0.00  0.00     0.000 O
ATOM     40   O  BDP B   3      34.213   9.390 106.6610  0.00  0.00     0.000 O
ATOM     42  HD  BDP B   3      34.808   9.742 107.1830  0.00  0.00     0.000 HD
ATOM     42   O  BDP B   3      34.945   6.565 106.3040  0.00  0.00     0.000 O
ATOM     44  HD  BDP B   3      35.540   6.916 106.8260  0.00  0.00     0.000 HD
BRANCH 38 44
ATOM     44   C  BDP B   3      32.107   5.813 110.3450  0.00  0.00     0.000 C
ATOM     45   O  BDP B   3      32.928   5.423 111.2040  0.00  0.00     0.000 OA
ATOM     46   O  BDP B   3      30.900   5.486 110.3720  0.00  0.00     0.000 OA
ENDBRANCH 38 44
BRANCH 34 47
ATOM     47  O3  NAG B   4      34.197   9.585 109.8020  0.00  0.00     0.000 O
BRANCH 47 50
ATOM     48  C1  NAG B   4      32.795  12.798 111.1650  0.00  0.00     0.000 C
ATOM     49  C2  NAG B   4      33.400  11.861 110.1340  0.00  0.00     0.000 C
ATOM     50  C3  NAG B   4      33.562  10.473 110.7440  0.00  0.00     0.000 C
ATOM     51  C4  NAG B   4      34.375  10.517 112.0270  0.00  0.00     0.000 C
ATOM     52  C5  NAG B   4      33.760  11.527 112.9970  0.00  0.00     0.000 C
ATOM     53  O5  NAG B   4      33.602  12.800 112.3590  0.00  0.00     0.000 O
ATOM     54   O  NAG B   4      34.401   9.211 112.6080  0.00  0.00     0.000 O
ATOM     56  HD  NAG B   4      34.988   9.743 112.9570  0.00  0.00     0.000 HD
ATOM     56   C  NAG B   4      34.619  11.690 114.2450  0.00  0.00     0.000 C
ATOM     57   O  NAG B   4      35.920  12.154 113.8600  0.00  0.00     0.000 O
ATOM     59  HD  NAG B   4      36.507  12.686 114.2100  0.00  0.00     0.000 HD
BRANCH 49 61
ATOM     59   N  NAG B   4      32.568  12.248 108.9940  0.00  0.00     0.000 N
ATOM     61  HD  NAG B   4      33.335  12.454 109.3380  0.00  0.00     0.000 HD
ATOM     61   O  NAG B   4      34.231  12.369 107.4710  0.00  0.00     0.000 OA
ATOM     62   C  NAG B   4      33.041  12.396 107.7510  0.00  0.00     0.000 C
ATOM     63   C  NAG B   4      32.010  12.582 106.6840  0.00  0.00     0.000 C
ENDBRANCH 49 61
BRANCH 48 64
ATOM     64  O4  BDP B   5      31.967  13.952 111.0590  0.00  0.00     0.000 O
BRANCH 64 68
ATOM     65  C1  BDP B   5      28.931  16.801 111.2360  0.00  0.00     0.000 C
ATOM     66  C2  BDP B   5      29.928  16.817 112.3870  0.00  0.00     0.000 C
ATOM     67  C3  BDP B   5      31.182  16.051 111.9880  0.00  0.00     0.000 C
ATOM     68  C4  BDP B   5      30.817  14.635 111.5550  0.00  0.00     0.000 C
ATOM     69  C5  BDP B   5      29.742  14.624 110.4770  0.00  0.00     0.000 C
ATOM     70  O5  BDP B   5      28.628  15.448 110.8630  0.00  0.00     0.000 O
ATOM     71   O  BDP B   5      30.227  18.174 112.7470  0.00  0.00     0.000 O
ATOM     73  HD  BDP B   5      30.387  19.010 112.9100  0.00  0.00     0.000 HD
ATOM     73   O  BDP B   5      32.102  15.987 113.0850  0.00  0.00     0.000 O
ATOM     75  HD  BDP B   5      32.262  16.822 113.2470  0.00  0.00     0.000 HD
BRANCH 69 75
ATOM     75   C  BDP B   5      29.275  13.203 110.2880  0.00  0.00     0.000 C
ATOM     76   O  BDP B   5      29.525  12.627 109.2100  0.00  0.00     0.000 OA
ATOM     77   O  BDP B   5      28.658  12.643 111.2140  0.00  0.00     0.000 OA
ENDBRANCH 69 75
BRANCH 65 78
ATOM     78  O3  NAG B   6      27.506  16.850 111.3470  0.00  0.00     0.000 O
BRANCH 78 81
ATOM     79  C1  NAG B   6      24.771  19.036 109.9070  0.00  0.00     0.000 C
ATOM     80  C2  NAG B   6      25.963  18.654 110.7990  0.00  0.00     0.000 C
ATOM     81  C3  NAG B   6      26.488  17.280 110.4160  0.00  0.00     0.000 C
ATOM     82  C4  NAG B   6      25.351  16.254 110.3740  0.00  0.00     0.000 C
ATOM     83  C5  NAG B   6      24.250  16.755 109.4460  0.00  0.00     0.000 C
ATOM     84  O5  NAG B   6      23.777  17.997 109.9680  0.00  0.00     0.000 O
BRANCH 80 87
ATOM     85   N  NAG B   6      26.910  19.761 110.6980  0.00  0.00     0.000 N
ATOM     87  HD  NAG B   6      27.150  20.563 110.9190  0.00  0.00     0.000 HD
ATOM     87   C  NAG B   6      27.656  20.204 111.7180  0.00  0.00     0.000 C
ATOM     88   C  NAG B   6      28.591  21.326 111.3980  0.00  0.00     0.000 C
ATOM     89   O  NAG B   6      27.601  19.723 112.8440  0.00  0.00     0.000 OA
ENDBRANCH 80 87
ATOM     90   O  NAG B   6      23.048  15.252 107.9820  0.00  0.00     0.000 O
ATOM     92  HD  NAG B   6      23.342  16.059 108.0960  0.00  0.00     0.000 HD
ATOM     92   O  NAG B   6      23.048  15.252 107.9820  0.00  0.00     0.000 O
ATOM     94  HD  NAG B   6      23.342  16.059 108.0960  0.00  0.00     0.000 HD
ENDBRANCH 78 81
ENDBRANCH 65 78
ENDBRANCH 64 68
ENDBRANCH 48 64
ENDBRANCH 47 50
ENDBRANCH 34 47
ENDBRANCH 33 37
ENDBRANCH 17 33
ENDBRANCH 16 19
ENDBRANCH 1 16
TORSDOF 16
ENDMDL
MODEL 80
REMARK VINA RESULT:      -0.9     41.366     46.393
ROOT
ATOM      1  C1  BDP B   1      31.724  30.864  53.8250  0.00  0.00     0.000 C
ATOM      2  C2  BDP B   1      31.426  31.814  52.6780  0.00  0.00     0.000 C
ATOM      3  C3  BDP B   1      30.418  32.876  53.0640  0.00  0.00     0.000 C
ATOM      4  C4  BDP B   1      30.187  32.997  54.5660  0.00  0.00     0.000 C
ATOM      5  C5  BDP B   1      29.986  31.644  55.2440  0.00  0.00     0.000 C
ATOM      6  O5  BDP B   1      30.482  30.558  54.4420  0.00  0.00     0.000 O
ATOM      7   O  BDP B   1      32.637  32.439  52.2370  0.00  0.00     0.000 O
ATOM      9  HD  BDP B   1      33.475  32.404  52.0230  0.00  0.00     0.000 HD
ATOM      9   O  BDP B   1      29.151  32.594  52.4500  0.00  0.00     0.000 O
ATOM     11  HD  BDP B   1      29.989  32.559  52.2350  0.00  0.00     0.000 HD
ATOM     11   O  BDP B   1      31.278  33.690  55.1850  0.00  0.00     0.000 O
ATOM     13  HD  BDP B   1      32.116  33.655  54.9710  0.00  0.00     0.000 HD
ENDROOT
BRANCH 5 13
ATOM     13   C  BDP B   1      28.524  31.476  55.4680  0.00  0.00     0.000 C
ATOM     14   O  BDP B   1      28.040  31.897  56.5390  0.00  0.00     0.000 OA
ATOM     15   O  BDP B   1      27.829  30.949  54.5740  0.00  0.00     0.000 OA
ENDBRANCH 5 13
BRANCH 1 16
ATOM     16  O3  NAG B   2      32.954  30.554  54.4760  0.00  0.00     0.000 O
BRANCH 16 19
ATOM     17  C1  NAG B   2      35.991  32.380  55.3110  0.00  0.00     0.000 C
ATOM     18  C2  NAG B   2      34.465  32.284  55.2880  0.00  0.00     0.000 C
ATOM     19  C3  NAG B   2      34.019  30.833  55.3870  0.00  0.00     0.000 C
ATOM     20  C4  NAG B   2      35.178  29.864  55.1380  0.00  0.00     0.000 C
ATOM     21  C5  NAG B   2      36.204  30.329  54.0950  0.00  0.00     0.000 C
ATOM     22  O5  NAG B   2      36.425  31.745  54.1060  0.00  0.00     0.000 O
ATOM     23   O  NAG B   2      35.835  29.612  56.3850  0.00  0.00     0.000 O
ATOM     25  HD  NAG B   2      35.787  30.433  56.6560  0.00  0.00     0.000 HD
ATOM     25   C  NAG B   2      35.767  29.913  52.6840  0.00  0.00     0.000 C
ATOM     26   O  NAG B   2      36.178  28.573  52.3740  0.00  0.00     0.000 O
ATOM     28  HD  NAG B   2      36.131  29.394  52.6460  0.00  0.00     0.000 HD
BRANCH 18 30
ATOM     28   N  NAG B   2      34.945  32.692  56.6070  0.00  0.00     0.000 N
ATOM     30  HD  NAG B   2      35.312  32.381  57.3270  0.00  0.00     0.000 HD
ATOM     30   C  NAG B   2      34.162  33.096  57.6180  0.00  0.00     0.000 C
ATOM     31   C  NAG B   2      34.896  33.474  58.8730  0.00  0.00     0.000 C
ATOM     32   O  NAG B   2      32.956  33.151  57.5450  0.00  0.00     0.000 OA
ENDBRANCH 18 30
BRANCH 17 33
ATOM     33  O4  BDP B   3      37.232  33.062  55.0280  0.00  0.00     0.000 O
BRANCH 33 37
ATOM     34  C1  BDP B   3      41.423  33.303  55.8140  0.00  0.00     0.000 C
ATOM     35  C2  BDP B   3      40.897  34.059  54.6000  0.00  0.00     0.000 C
ATOM     36  C3  BDP B   3      39.389  34.279  54.6240  0.00  0.00     0.000 C
ATOM     37  C4  BDP B   3      38.687  32.969  55.0140  0.00  0.00     0.000 C
ATOM     38  C5  BDP B   3      39.265  32.527  56.3710  0.00  0.00     0.000 C
ATOM     39  O5  BDP B   3      40.619  32.155  56.1110  0.00  0.00     0.000 O
ATOM     40   O  BDP B   3      41.623  35.289  54.5510  0.00  0.00     0.000 O
ATOM     42  HD  BDP B   3      42.199  34.755  54.1870  0.00  0.00     0.000 HD
ATOM     42   O  BDP B   3      39.018  34.711  53.3160  0.00  0.00     0.000 O
ATOM     44  HD  BDP B   3      39.594  34.177  52.9520  0.00  0.00     0.000 HD
BRANCH 38 44
ATOM     44   C  BDP B   3      38.540  31.384  57.0110  0.00  0.00     0.000 C
ATOM     45   O  BDP B   3      38.753  30.234  56.5680  0.00  0.00     0.000 OA
ATOM     46   O  BDP B   3      37.751  31.604  57.9550  0.00  0.00     0.000 OA
ENDBRANCH 38 44
BRANCH 34 47
ATOM     47  O3  NAG B   4      42.474  32.402  55.4690  0.00  0.00     0.000 O
BRANCH 47 50
ATOM     48  C1  NAG B   4      45.532  32.230  57.6520  0.00  0.00     0.000 C
ATOM     49  C2  NAG B   4      44.565  32.823  56.6420  0.00  0.00     0.000 C
ATOM     50  C3  NAG B   4      43.372  31.889  56.4740  0.00  0.00     0.000 C
ATOM     51  C4  NAG B   4      43.812  30.484  56.0920  0.00  0.00     0.000 C
ATOM     52  C5  NAG B   4      44.835  29.968  57.1040  0.00  0.00     0.000 C
ATOM     53  O5  NAG B   4      45.914  30.901  57.2440  0.00  0.00     0.000 O
ATOM     54   O  NAG B   4      42.664  29.631  56.0550  0.00  0.00     0.000 O
ATOM     56  HD  NAG B   4      43.358  29.274  55.6790  0.00  0.00     0.000 HD
ATOM     56   C  NAG B   4      45.392  28.612  56.6850  0.00  0.00     0.000 C
ATOM     57   O  NAG B   4      46.031  28.743  55.4080  0.00  0.00     0.000 O
ATOM     59  HD  NAG B   4      46.724  28.386  55.0320  0.00  0.00     0.000 HD
BRANCH 49 61
ATOM     59   N  NAG B   4      44.430  34.197  57.1290  0.00  0.00     0.000 N
ATOM     61  HD  NAG B   4      44.930  33.747  56.5830  0.00  0.00     0.000 HD
ATOM     61   O  NAG B   4      44.737  35.222  55.1400  0.00  0.00     0.000 OA
ATOM     62   C  NAG B   4      44.454  35.269  56.3290  0.00  0.00     0.000 C
ATOM     63   C  NAG B   4      44.087  36.567  56.9740  0.00  0.00     0.000 C
ENDBRANCH 49 61
BRANCH 48 64
ATOM     64  O4  BDP B   5      46.457  32.811  58.5660  0.00  0.00     0.000 O
BRANCH 64 68
ATOM     65  C1  BDP B   5      49.359  35.668  57.6770  0.00  0.00     0.000 C
ATOM     66  C2  BDP B   5      49.827  34.218  57.6730  0.00  0.00     0.000 C
ATOM     67  C3  BDP B   5      48.622  33.291  57.5820  0.00  0.00     0.000 C
ATOM     68  C4  BDP B   5      47.647  33.584  58.7170  0.00  0.00     0.000 C
ATOM     69  C5  BDP B   5      47.264  35.057  58.7800  0.00  0.00     0.000 C
ATOM     70  O5  BDP B   5      48.439  35.887  58.7580  0.00  0.00     0.000 O
ATOM     71   O  BDP B   5      50.741  34.010  56.5860  0.00  0.00     0.000 O
ATOM     73  HD  BDP B   5      51.269  33.933  55.9040  0.00  0.00     0.000 HD
ATOM     73   O  BDP B   5      49.034  31.921  57.6550  0.00  0.00     0.000 O
ATOM     75  HD  BDP B   5      49.563  31.845  56.9740  0.00  0.00     0.000 HD
BRANCH 69 75
ATOM     75   C  BDP B   5      46.504  35.295  60.0600  0.00  0.00     0.000 C
ATOM     76   O  BDP B   5      45.265  35.431  60.0050  0.00  0.00     0.000 OA
ATOM     77   O  BDP B   5      47.132  35.345  61.1340  0.00  0.00     0.000 OA
ENDBRANCH 69 75
BRANCH 65 78
ATOM     78  O3  NAG B   6      50.014  36.770  58.3110  0.00  0.00     0.000 O
BRANCH 78 81
ATOM     79  C1  NAG B   6      51.210  40.181  57.1870  0.00  0.00     0.000 C
ATOM     80  C2  NAG B   6      51.197  38.649  57.3090  0.00  0.00     0.000 C
ATOM     81  C3  NAG B   6      49.957  38.190  58.0580  0.00  0.00     0.000 C
ATOM     82  C4  NAG B   6      49.805  38.951  59.3800  0.00  0.00     0.000 C
ATOM     83  C5  NAG B   6      49.820  40.451  59.1060  0.00  0.00     0.000 C
ATOM     84  O5  NAG B   6      51.072  40.765  58.4950  0.00  0.00     0.000 O
BRANCH 80 87
ATOM     85   N  NAG B   6      51.359  38.136  55.9520  0.00  0.00     0.000 N
ATOM     87  HD  NAG B   6      51.868  37.962  55.2730  0.00  0.00     0.000 HD
ATOM     87   C  NAG B   6      52.069  37.043  55.6440  0.00  0.00     0.000 C
ATOM     88   C  NAG B   6      52.082  36.664  54.1980  0.00  0.00     0.000 C
ATOM     89   O  NAG B   6      52.664  36.375  56.4820  0.00  0.00     0.000 OA
ENDBRANCH 80 87
ATOM     90   O  NAG B   6      48.380  41.972  60.3130  0.00  0.00     0.000 O
ATOM     92  HD  NAG B   6      48.792  41.815  59.5680  0.00  0.00     0.000 HD
ATOM     92   O  NAG B   6      48.380  41.972  60.3130  0.00  0.00     0.000 O
ATOM     94  HD  NAG B   6      48.792  41.815  59.5680  0.00  0.00     0.000 HD
ENDBRANCH 78 81
ENDBRANCH 65 78
ENDBRANCH 64 68
ENDBRANCH 48 64
ENDBRANCH 47 50
ENDBRANCH 34 47
ENDBRANCH 33 37
ENDBRANCH 17 33
ENDBRANCH 16 19
ENDBRANCH 1 16
TORSDOF 16
ENDMDL
MODEL 81
REMARK VINA RESULT:      -0.9     42.605     46.900
ROOT
ATOM      1  C1  BDP B   1      31.099  36.398  54.0040  0.00  0.00     0.000 C
ATOM      2  C2  BDP B   1      31.824  37.217  52.9510  0.00  0.00     0.000 C
ATOM      3  C3  BDP B   1      31.573  38.701  53.1100  0.00  0.00     0.000 C
ATOM      4  C4  BDP B   1      30.965  39.088  54.4530  0.00  0.00     0.000 C
ATOM      5  C5  BDP B   1      29.796  38.193  54.8520  0.00  0.00     0.000 C
ATOM      6  O5  BDP B   1      29.796  36.949  54.1320  0.00  0.00     0.000 O
ATOM      7   O  BDP B   1      33.231  36.958  53.0160  0.00  0.00     0.000 O
ATOM      9  HD  BDP B   1      33.900  36.413  53.0890  0.00  0.00     0.000 HD
ATOM      9   O  BDP B   1      30.683  39.161  52.0800  0.00  0.00     0.000 O
ATOM     11  HD  BDP B   1      31.352  38.616  52.1530  0.00  0.00     0.000 HD
ATOM     11   O  BDP B   1      31.965  39.064  55.4790  0.00  0.00     0.000 O
ATOM     13  HD  BDP B   1      32.635  38.519  55.5520  0.00  0.00     0.000 HD
ENDROOT
BRANCH 5 13
ATOM     13   C  BDP B   1      28.545  38.944  54.5570  0.00  0.00     0.000 C
ATOM     14   O  BDP B   1      28.072  39.676  55.4510  0.00  0.00     0.000 OA
ATOM     15   O  BDP B   1      28.026  38.840  53.4250  0.00  0.00     0.000 OA
ENDBRANCH 5 13
BRANCH 1 16
ATOM     16  O3  NAG B   2      31.603  35.490  54.9810  0.00  0.00     0.000 O
BRANCH 16 19
ATOM     17  C1  NAG B   2      34.617  35.196  57.0020  0.00  0.00     0.000 C
ATOM     18  C2  NAG B   2      33.467  36.040  56.4500  0.00  0.00     0.000 C
ATOM     19  C3  NAG B   2      32.233  35.179  56.2250  0.00  0.00     0.000 C
ATOM     20  C4  NAG B   2      32.565  33.685  56.2760  0.00  0.00     0.000 C
ATOM     21  C5  NAG B   2      33.938  33.304  55.7040  0.00  0.00     0.000 C
ATOM     22  O5  NAG B   2      34.951  34.286  55.9520  0.00  0.00     0.000 O
ATOM     23   O  NAG B   2      32.466  33.244  57.6340  0.00  0.00     0.000 O
ATOM     25  HD  NAG B   2      32.838  33.952  57.9650  0.00  0.00     0.000 HD
ATOM     25   C  NAG B   2      33.846  33.065  54.1900  0.00  0.00     0.000 C
ATOM     26   O  NAG B   2      33.435  31.725  53.8870  0.00  0.00     0.000 O
ATOM     28  HD  NAG B   2      33.807  32.433  54.2190  0.00  0.00     0.000 HD
BRANCH 18 30
ATOM     28   N  NAG B   2      33.660  36.277  57.8800  0.00  0.00     0.000 N
ATOM     30  HD  NAG B   2      33.559  35.902  58.6550  0.00  0.00     0.000 HD
ATOM     30   C  NAG B   2      32.956  37.149  58.6160  0.00  0.00     0.000 C
ATOM     31   C  NAG B   2      33.351  37.218  60.0640  0.00  0.00     0.000 C
ATOM     32   O  NAG B   2      32.064  37.831  58.1680  0.00  0.00     0.000 OA
ENDBRANCH 18 30
BRANCH 17 33
ATOM     33  O4  BDP B   3      36.020  34.949  57.2370  0.00  0.00     0.000 O
BRANCH 33 37
ATOM     34  C1  BDP B   3      38.331  34.447  60.7940  0.00  0.00     0.000 C
ATOM     35  C2  BDP B   3      38.534  35.736  60.0070  0.00  0.00     0.000 C
ATOM     36  C3  BDP B   3      37.409  36.035  59.0230  0.00  0.00     0.000 C
ATOM     37  C4  BDP B   3      37.064  34.760  58.2370  0.00  0.00     0.000 C
ATOM     38  C5  BDP B   3      36.708  33.671  59.2670  0.00  0.00     0.000 C
ATOM     39  O5  BDP B   3      37.928  33.367  59.9440  0.00  0.00     0.000 O
ATOM     40   O  BDP B   3      38.696  36.774  60.9760  0.00  0.00     0.000 O
ATOM     42  HD  BDP B   3      39.495  36.440  60.9720  0.00  0.00     0.000 HD
ATOM     42   O  BDP B   3      37.879  37.075  58.1670  0.00  0.00     0.000 O
ATOM     44  HD  BDP B   3      38.678  36.741  58.1630  0.00  0.00     0.000 HD
BRANCH 38 44
ATOM     44   C  BDP B   3      36.133  32.423  58.6740  0.00  0.00     0.000 C
ATOM     45   O  BDP B   3      34.938  32.153  58.9230  0.00  0.00     0.000 OA
ATOM     46   O  BDP B   3      36.851  31.692  57.9560  0.00  0.00     0.000 OA
ENDBRANCH 38 44
BRANCH 34 47
ATOM     47  O3  NAG B   4      39.557  33.747  60.9990  0.00  0.00     0.000 O
BRANCH 47 50
ATOM     48  C1  NAG B   4      40.240  32.340  64.4200  0.00  0.00     0.000 C
ATOM     49  C2  NAG B   4      40.047  33.410  63.3600  0.00  0.00     0.000 C
ATOM     50  C3  NAG B   4      39.679  32.752  62.0360  0.00  0.00     0.000 C
ATOM     51  C4  NAG B   4      40.709  31.713  61.6230  0.00  0.00     0.000 C
ATOM     52  C5  NAG B   4      40.912  30.704  62.7540  0.00  0.00     0.000 C
ATOM     53  O5  NAG B   4      41.222  31.383  63.9780  0.00  0.00     0.000 O
ATOM     54   O  NAG B   4      40.257  31.055  60.4360  0.00  0.00     0.000 O
ATOM     56  HD  NAG B   4      41.093  30.902  60.6040  0.00  0.00     0.000 HD
ATOM     56   C  NAG B   4      42.028  29.720  62.4250  0.00  0.00     0.000 C
ATOM     57   O  NAG B   4      43.249  30.446  62.2290  0.00  0.00     0.000 O
ATOM     59  HD  NAG B   4      44.085  30.293  62.3980  0.00  0.00     0.000 HD
BRANCH 49 61
ATOM     59   N  NAG B   4      39.241  34.339  64.1540  0.00  0.00     0.000 N
ATOM     61  HD  NAG B   4      40.073  34.210  63.9510  0.00  0.00     0.000 HD
ATOM     61   O  NAG B   4      40.319  36.227  63.5400  0.00  0.00     0.000 OA
ATOM     62   C  NAG B   4      39.399  35.668  64.1190  0.00  0.00     0.000 C
ATOM     63   C  NAG B   4      38.349  36.463  64.8290  0.00  0.00     0.000 C
ENDBRANCH 49 61
BRANCH 48 64
ATOM     64  O4  BDP B   5      40.061  32.331  65.8330  0.00  0.00     0.000 O
BRANCH 64 68
ATOM     65  C1  BDP B   5      38.893  31.643  69.7750  0.00  0.00     0.000 C
ATOM     66  C2  BDP B   5      40.030  30.773  69.2540  0.00  0.00     0.000 C
ATOM     67  C3  BDP B   5      40.626  31.404  68.0030  0.00  0.00     0.000 C
ATOM     68  C4  BDP B   5      39.538  31.624  66.9570  0.00  0.00     0.000 C
ATOM     69  C5  BDP B   5      38.355  32.405  67.5150  0.00  0.00     0.000 C
ATOM     70  O5  BDP B   5      37.903  31.824  68.7510  0.00  0.00     0.000 O
ATOM     71   O  BDP B   5      41.017  30.603  70.2840  0.00  0.00     0.000 O
ATOM     73  HD  BDP B   5      41.589  30.550  70.9320  0.00  0.00     0.000 HD
ATOM     73   O  BDP B   5      41.647  30.563  67.4520  0.00  0.00     0.000 O
ATOM     75  HD  BDP B   5      42.219  30.509  68.1000  0.00  0.00     0.000 HD
BRANCH 69 75
ATOM     75   C  BDP B   5      37.240  32.364  66.5010  0.00  0.00     0.000 C
ATOM     76   O  BDP B   5      36.680  31.273  66.2700  0.00  0.00     0.000 OA
ATOM     77   O  BDP B   5      36.907  33.417  65.9270  0.00  0.00     0.000 OA
ENDBRANCH 69 75
BRANCH 65 78
ATOM     78  O3  NAG B   6      37.741  31.193  70.4930  0.00  0.00     0.000 O
BRANCH 78 81
ATOM     79  C1  NAG B   6      36.109  32.090  73.7890  0.00  0.00     0.000 C
ATOM     80  C2  NAG B   6      37.158  31.488  72.8400  0.00  0.00     0.000 C
ATOM     81  C3  NAG B   6      36.854  31.878  71.4030  0.00  0.00     0.000 C
ATOM     82  C4  NAG B   6      35.396  31.564  71.0490  0.00  0.00     0.000 C
ATOM     83  C5  NAG B   6      34.473  32.233  72.0610  0.00  0.00     0.000 C
ATOM     84  O5  NAG B   6      34.793  31.709  73.3500  0.00  0.00     0.000 O
BRANCH 80 87
ATOM     85   N  NAG B   6      38.457  31.901  73.3630  0.00  0.00     0.000 N
ATOM     87  HD  NAG B   6      39.095  31.808  73.9410  0.00  0.00     0.000 HD
ATOM     87   C  NAG B   6      39.552  31.131  73.3440  0.00  0.00     0.000 C
ATOM     88   C  NAG B   6      40.794  31.754  73.8970  0.00  0.00     0.000 C
ATOM     89   O  NAG B   6      39.559  29.991  72.8920  0.00  0.00     0.000 OA
ENDBRANCH 80 87
ATOM     90   O  NAG B   6      32.379  33.239  71.3900  0.00  0.00     0.000 O
ATOM     92  HD  NAG B   6      33.039  33.263  71.9510  0.00  0.00     0.000 HD
ATOM     92   O  NAG B   6      32.379  33.239  71.3900  0.00  0.00     0.000 O
ATOM     94  HD  NAG B   6      33.039  33.263  71.9510  0.00  0.00     0.000 HD
ENDBRANCH 78 81
ENDBRANCH 65 78
ENDBRANCH 64 68
ENDBRANCH 48 64
ENDBRANCH 47 50
ENDBRANCH 34 47
ENDBRANCH 33 37
ENDBRANCH 17 33
ENDBRANCH 16 19
ENDBRANCH 1 16
TORSDOF 16
ENDMDL
MODEL 82
REMARK VINA RESULT:      -0.9     98.521    102.609
ROOT
ATOM      1  C1  BDP B   1      30.982 100.670  82.6220  0.00  0.00     0.000 C
ATOM      2  C2  BDP B   1      30.017 101.560  83.3850  0.00  0.00     0.000 C
ATOM      3  C3  BDP B   1      28.603 101.452  82.8560  0.00  0.00     0.000 C
ATOM      4  C4  BDP B   1      28.371 100.254  81.9420  0.00  0.00     0.000 C
ATOM      5  C5  BDP B   1      29.464 100.093  80.8900  0.00  0.00     0.000 C
ATOM      6  O5  BDP B   1      30.664 100.800  81.2440  0.00  0.00     0.000 O
ATOM      7   O  BDP B   1      30.037 101.219  84.7760  0.00  0.00     0.000 O
ATOM      9  HD  BDP B   1      30.463 101.016  85.5020  0.00  0.00     0.000 HD
ATOM      9   O  BDP B   1      28.265 102.636  82.1170  0.00  0.00     0.000 O
ATOM     11  HD  BDP B   1      28.691 102.433  82.8430  0.00  0.00     0.000 HD
ATOM     11   O  BDP B   1      28.262  99.051  82.7140  0.00  0.00     0.000 O
ATOM     13  HD  BDP B   1      28.688  98.848  83.4400  0.00  0.00     0.000 HD
ENDROOT
BRANCH 5 13
ATOM     13   C  BDP B   1      28.925 100.628  79.6100  0.00  0.00     0.000 C
ATOM     14   O  BDP B   1      28.314  99.844  78.8540  0.00  0.00     0.000 OA
ATOM     15   O  BDP B   1      29.075 101.840  79.3460  0.00  0.00     0.000 OA
ENDBRANCH 5 13
BRANCH 1 16
ATOM     16  O3  NAG B   2      31.826  99.614  83.0750  0.00  0.00     0.000 O
BRANCH 16 19
ATOM     17  C1  NAG B   2      31.677  97.040  85.6470  0.00  0.00     0.000 C
ATOM     18  C2  NAG B   2      31.021  97.806  84.4970  0.00  0.00     0.000 C
ATOM     19  C3  NAG B   2      32.069  98.271  83.4970  0.00  0.00     0.000 C
ATOM     20  C4  NAG B   2      33.486  98.157  84.0660  0.00  0.00     0.000 C
ATOM     21  C5  NAG B   2      33.611  98.448  85.5680  0.00  0.00     0.000 C
ATOM     22  O5  NAG B   2      32.481  98.005  86.3290  0.00  0.00     0.000 O
ATOM     23   O  NAG B   2      33.985  96.845  83.7830  0.00  0.00     0.000 O
ATOM     25  HD  NAG B   2      33.236  96.447  83.9560  0.00  0.00     0.000 HD
ATOM     25   C  NAG B   2      33.808  99.950  85.8130  0.00  0.00     0.000 C
ATOM     26   O  NAG B   2      35.188 100.329  85.7060  0.00  0.00     0.000 O
ATOM     28  HD  NAG B   2      34.439  99.931  85.8790  0.00  0.00     0.000 HD
BRANCH 18 30
ATOM     28   N  NAG B   2      30.805  96.366  84.3650  0.00  0.00     0.000 N
ATOM     30  HD  NAG B   2      31.218  95.627  84.1820  0.00  0.00     0.000 HD
ATOM     30   C  NAG B   2      30.090  95.782  83.3930  0.00  0.00     0.000 C
ATOM     31   C  NAG B   2      30.006  94.285  83.4820  0.00  0.00     0.000 C
ATOM     32   O  NAG B   2      29.553  96.397  82.5010  0.00  0.00     0.000 OA
ENDBRANCH 18 30
BRANCH 17 33
ATOM     33  O4  BDP B   3      31.692  96.534  86.9990  0.00  0.00     0.000 O
BRANCH 33 37
ATOM     34  C1  BDP B   3      31.919  92.592  88.6280  0.00  0.00     0.000 C
ATOM     35  C2  BDP B   3      30.588  93.323  88.7550  0.00  0.00     0.000 C
ATOM     36  C3  BDP B   3      30.449  94.509  87.8070  0.00  0.00     0.000 C
ATOM     37  C4  BDP B   3      31.736  95.348  87.8450  0.00  0.00     0.000 C
ATOM     38  C5  BDP B   3      32.905  94.409  87.4910  0.00  0.00     0.000 C
ATOM     39  O5  BDP B   3      33.022  93.506  88.5900  0.00  0.00     0.000 O
ATOM     40   O  BDP B   3      29.571  92.341  88.5440  0.00  0.00     0.000 O
ATOM     42  HD  BDP B   3      29.765  92.187  89.3740  0.00  0.00     0.000 HD
ATOM     42   O  BDP B   3      29.316  95.255  88.2470  0.00  0.00     0.000 O
ATOM     44  HD  BDP B   3      29.510  95.101  89.0770  0.00  0.00     0.000 HD
BRANCH 38 44
ATOM     44   C  BDP B   3      34.211  95.105  87.2650  0.00  0.00     0.000 C
ATOM     45   O  BDP B   3      34.687  95.097  86.1090  0.00  0.00     0.000 OA
ATOM     46   O  BDP B   3      34.785  95.667  88.2230  0.00  0.00     0.000 OA
ENDBRANCH 38 44
BRANCH 34 47
ATOM     47  O3  NAG B   4      32.408  92.150  89.8930  0.00  0.00     0.000 O
BRANCH 47 50
ATOM     48  C1  NAG B   4      33.798  88.663  90.1330  0.00  0.00     0.000 C
ATOM     49  C2  NAG B   4      32.739  89.739  89.9670  0.00  0.00     0.000 C
ATOM     50  C3  NAG B   4      33.404  91.111  89.9820  0.00  0.00     0.000 C
ATOM     51  C4  NAG B   4      34.239  91.314  91.2360  0.00  0.00     0.000 C
ATOM     52  C5  NAG B   4      35.238  90.166  91.3870  0.00  0.00     0.000 C
ATOM     53  O5  NAG B   4      34.560  88.904  91.3320  0.00  0.00     0.000 O
ATOM     54   O  NAG B   4      34.922  92.568  91.1430  0.00  0.00     0.000 O
ATOM     56  HD  NAG B   4      34.937  92.238  91.9440  0.00  0.00     0.000 HD
ATOM     56   C  NAG B   4      36.007  90.270  92.6990  0.00  0.00     0.000 C
ATOM     57   O  NAG B   4      35.079  90.221  93.7910  0.00  0.00     0.000 O
ATOM     59  HD  NAG B   4      35.094  89.891  94.5910  0.00  0.00     0.000 HD
BRANCH 49 61
ATOM     59   N  NAG B   4      31.988  89.119  88.8760  0.00  0.00     0.000 N
ATOM     61  HD  NAG B   4      31.967  89.154  89.7410  0.00  0.00     0.000 HD
ATOM     61   O  NAG B   4      29.925  89.507  89.7100  0.00  0.00     0.000 OA
ATOM     62   C  NAG B   4      30.652  89.121  88.8060  0.00  0.00     0.000 C
ATOM     63   C  NAG B   4      30.070  88.631  87.5170  0.00  0.00     0.000 C
ENDBRANCH 49 61
BRANCH 48 64
ATOM     64  O4  BDP B   5      33.886  87.313  89.6890  0.00  0.00     0.000 O
BRANCH 64 68
ATOM     65  C1  BDP B   5      34.898  83.679  87.9150  0.00  0.00     0.000 C
ATOM     66  C2  BDP B   5      35.544  83.966  89.2640  0.00  0.00     0.000 C
ATOM     67  C3  BDP B   5      34.779  85.075  89.9740  0.00  0.00     0.000 C
ATOM     68  C4  BDP B   5      34.710  86.314  89.0880  0.00  0.00     0.000 C
ATOM     69  C5  BDP B   5      34.160  86.000  87.7020  0.00  0.00     0.000 C
ATOM     70  O5  BDP B   5      34.851  84.878  87.1260  0.00  0.00     0.000 O
ATOM     71   O  BDP B   5      35.580  82.762  90.0470  0.00  0.00     0.000 O
ATOM     73  HD  BDP B   5      35.559  82.014  90.4830  0.00  0.00     0.000 HD
ATOM     73   O  BDP B   5      35.416  85.414  91.2110  0.00  0.00     0.000 O
ATOM     75  HD  BDP B   5      35.394  84.666  91.6470  0.00  0.00     0.000 HD
BRANCH 69 75
ATOM     75   C  BDP B   5      34.354  87.214  86.8290  0.00  0.00     0.000 C
ATOM     76   O  BDP B   5      35.515  87.552  86.5220  0.00  0.00     0.000 OA
ATOM     77   O  BDP B   5      33.353  87.841  86.4360  0.00  0.00     0.000 OA
ENDBRANCH 69 75
BRANCH 65 78
ATOM     78  O3  NAG B   6      35.561  83.203  86.7410  0.00  0.00     0.000 O
BRANCH 78 81
ATOM     79  C1  NAG B   6      35.067  80.292  84.3710  0.00  0.00     0.000 C
ATOM     80  C2  NAG B   6      35.450  81.016  85.6710  0.00  0.00     0.000 C
ATOM     81  C3  NAG B   6      35.067  82.485  85.5890  0.00  0.00     0.000 C
ATOM     82  C4  NAG B   6      35.611  83.120  84.3050  0.00  0.00     0.000 C
ATOM     83  C5  NAG B   6      35.144  82.309  83.1010  0.00  0.00     0.000 C
ATOM     84  O5  NAG B   6      35.650  80.982  83.2510  0.00  0.00     0.000 O
BRANCH 80 87
ATOM     85   N  NAG B   6      34.841  80.247  86.7530  0.00  0.00     0.000 N
ATOM     87  HD  NAG B   6      34.845  79.555  87.2740  0.00  0.00     0.000 HD
ATOM     87   C  NAG B   6      35.415  80.051  87.9470  0.00  0.00     0.000 C
ATOM     88   C  NAG B   6      34.610  79.263  88.9310  0.00  0.00     0.000 C
ATOM     89   O  NAG B   6      36.520  80.493  88.2390  0.00  0.00     0.000 OA
ENDBRANCH 80 87
ATOM     90   O  NAG B   6      34.483  83.378  81.0360  0.00  0.00     0.000 O
ATOM     92  HD  NAG B   6      34.367  82.698  81.5590  0.00  0.00     0.000 HD
ATOM     92   O  NAG B   6      34.483  83.378  81.0360  0.00  0.00     0.000 O
ATOM     94  HD  NAG B   6      34.367  82.698  81.5590  0.00  0.00     0.000 HD
ENDBRANCH 78 81
ENDBRANCH 65 78
ENDBRANCH 64 68
ENDBRANCH 48 64
ENDBRANCH 47 50
ENDBRANCH 34 47
ENDBRANCH 33 37
ENDBRANCH 17 33
ENDBRANCH 16 19
ENDBRANCH 1 16
TORSDOF 16
ENDMDL
MODEL 83
REMARK VINA RESULT:      -0.9     89.715     96.173
ROOT
ATOM      1  C1  BDP B   1      74.315  81.303  24.3560  0.00  0.00     0.000 C
ATOM      2  C2  BDP B   1      73.419  80.164  23.9030  0.00  0.00     0.000 C
ATOM      3  C3  BDP B   1      73.234  79.119  24.9820  0.00  0.00     0.000 C
ATOM      4  C4  BDP B   1      73.668  79.576  26.3700  0.00  0.00     0.000 C
ATOM      5  C5  BDP B   1      75.031  80.262  26.3670  0.00  0.00     0.000 C
ATOM      6  O5  BDP B   1      75.404  80.719  25.0560  0.00  0.00     0.000 O
ATOM      7   O  BDP B   1      72.142  80.678  23.5080  0.00  0.00     0.000 O
ATOM      9  HD  BDP B   1      71.653  81.261  23.0940  0.00  0.00     0.000 HD
ATOM      9   O  BDP B   1      73.987  77.940  24.6560  0.00  0.00     0.000 O
ATOM     11  HD  BDP B   1      73.498  78.523  24.2430  0.00  0.00     0.000 HD
ATOM     11   O  BDP B   1      72.687  80.454  26.9360  0.00  0.00     0.000 O
ATOM     13  HD  BDP B   1      72.197  81.036  26.5230  0.00  0.00     0.000 HD
ENDROOT
BRANCH 5 13
ATOM     13   C  BDP B   1      76.026  79.268  26.8550  0.00  0.00     0.000 C
ATOM     14   O  BDP B   1      76.589  78.537  26.0140  0.00  0.00     0.000 OA
ATOM     15   O  BDP B   1      76.283  79.215  28.0770  0.00  0.00     0.000 OA
ENDBRANCH 5 13
BRANCH 1 16
ATOM     16  O3  NAG B   2      74.062  82.703  24.4470  0.00  0.00     0.000 O
BRANCH 16 19
ATOM     17  C1  NAG B   2      71.196  84.820  25.1980  0.00  0.00     0.000 C
ATOM     18  C2  NAG B   2      72.076  83.613  25.5260  0.00  0.00     0.000 C
ATOM     19  C3  NAG B   2      73.510  83.859  25.0800  0.00  0.00     0.000 C
ATOM     20  C4  NAG B   2      73.612  85.062  24.1380  0.00  0.00     0.000 C
ATOM     21  C5  NAG B   2      72.422  85.249  23.1880  0.00  0.00     0.000 C
ATOM     22  O5  NAG B   2      71.165  84.884  23.7710  0.00  0.00     0.000 O
ATOM     23   O  NAG B   2      73.793  86.242  24.9280  0.00  0.00     0.000 O
ATOM     25  HD  NAG B   2      73.226  86.006  25.5380  0.00  0.00     0.000 HD
ATOM     25   C  NAG B   2      72.621  84.433  21.9030  0.00  0.00     0.000 C
ATOM     26   O  NAG B   2      73.404  85.148  20.9360  0.00  0.00     0.000 O
ATOM     28  HD  NAG B   2      72.837  84.911  21.5460  0.00  0.00     0.000 HD
BRANCH 18 30
ATOM     28   N  NAG B   2      71.782  84.396  26.7260  0.00  0.00     0.000 N
ATOM     30  HD  NAG B   2      71.963  85.151  27.1100  0.00  0.00     0.000 HD
ATOM     30   C  NAG B   2      72.189  84.084  27.9650  0.00  0.00     0.000 C
ATOM     31   C  NAG B   2      71.749  85.044  29.0340  0.00  0.00     0.000 C
ATOM     32   O  NAG B   2      72.863  83.114  28.2200  0.00  0.00     0.000 OA
ENDBRANCH 18 30
BRANCH 17 33
ATOM     33  O4  BDP B   3      69.915  85.434  24.9410  0.00  0.00     0.000 O
BRANCH 33 37
ATOM     34  C1  BDP B   3      67.738  88.552  26.8850  0.00  0.00     0.000 C
ATOM     35  C2  BDP B   3      67.201  87.133  27.0290  0.00  0.00     0.000 C
ATOM     36  C3  BDP B   3      68.224  86.055  26.6880  0.00  0.00     0.000 C
ATOM     37  C4  BDP B   3      68.939  86.424  25.3790  0.00  0.00     0.000 C
ATOM     38  C5  BDP B   3      69.558  87.821  25.5730  0.00  0.00     0.000 C
ATOM     39  O5  BDP B   3      68.455  88.724  25.6570  0.00  0.00     0.000 O
ATOM     40   O  BDP B   3      66.724  87.021  28.3720  0.00  0.00     0.000 O
ATOM     42  HD  BDP B   3      66.052  87.424  28.0020  0.00  0.00     0.000 HD
ATOM     42   O  BDP B   3      67.504  84.829  26.5730  0.00  0.00     0.000 O
ATOM     44  HD  BDP B   3      66.833  85.233  26.2040  0.00  0.00     0.000 HD
BRANCH 38 44
ATOM     44   C  BDP B   3      70.480  88.248  24.4740  0.00  0.00     0.000 C
ATOM     45   O  BDP B   3      71.695  88.369  24.7430  0.00  0.00     0.000 OA
ATOM     46   O  BDP B   3      70.020  88.470  23.3330  0.00  0.00     0.000 OA
ENDBRANCH 38 44
BRANCH 34 47
ATOM     47  O3  NAG B   4      66.755  89.445  26.3650  0.00  0.00     0.000 O
BRANCH 47 50
ATOM     48  C1  NAG B   4      66.400  92.822  27.9830  0.00  0.00     0.000 C
ATOM     49  C2  NAG B   4      66.312  91.311  27.8660  0.00  0.00     0.000 C
ATOM     50  C3  NAG B   4      66.890  90.872  26.5250  0.00  0.00     0.000 C
ATOM     51  C4  NAG B   4      66.209  91.580  25.3640  0.00  0.00     0.000 C
ATOM     52  C5  NAG B   4      66.267  93.093  25.5730  0.00  0.00     0.000 C
ATOM     53  O5  NAG B   4      65.742  93.441  26.8600  0.00  0.00     0.000 O
ATOM     54   O  NAG B   4      66.862  91.212  24.1470  0.00  0.00     0.000 O
ATOM     56  HD  NAG B   4      66.100  91.600  24.0120  0.00  0.00     0.000 HD
ATOM     56   C  NAG B   4      65.485  93.831  24.4920  0.00  0.00     0.000 C
ATOM     57   O  NAG B   4      64.115  93.411  24.5380  0.00  0.00     0.000 O
ATOM     59  HD  NAG B   4      63.352  93.799  24.4030  0.00  0.00     0.000 HD
BRANCH 49 61
ATOM     59   N  NAG B   4      66.798  90.975  29.2050  0.00  0.00     0.000 N
ATOM     61  HD  NAG B   4      66.043  91.105  28.8010  0.00  0.00     0.000 HD
ATOM     61   O  NAG B   4      65.248  89.398  29.6690  0.00  0.00     0.000 OA
ATOM     62   C  NAG B   4      66.272  90.001  29.9580  0.00  0.00     0.000 C
ATOM     63   C  NAG B   4      67.032  89.661  31.2000  0.00  0.00     0.000 C
ENDBRANCH 49 61
BRANCH 48 64
ATOM     64  O4  BDP B   5      66.532  93.702  29.0960  0.00  0.00     0.000 O
BRANCH 64 68
ATOM     65  C1  BDP B   5      67.733  96.514  31.9290  0.00  0.00     0.000 C
ATOM     66  C2  BDP B   5      66.904  97.048  30.7680  0.00  0.00     0.000 C
ATOM     67  C3  BDP B   5      66.190  95.895  30.0750  0.00  0.00     0.000 C
ATOM     68  C4  BDP B   5      67.201  94.844  29.6300  0.00  0.00     0.000 C
ATOM     69  C5  BDP B   5      68.098  94.389  30.7750  0.00  0.00     0.000 C
ATOM     70  O5  BDP B   5      68.661  95.524  31.4570  0.00  0.00     0.000 O
ATOM     71   O  BDP B   5      65.977  98.032  31.2520  0.00  0.00     0.000 O
ATOM     73  HD  BDP B   5      65.425  98.603  31.5980  0.00  0.00     0.000 HD
ATOM     73   O  BDP B   5      65.466  96.367  28.9320  0.00  0.00     0.000 O
ATOM     75  HD  BDP B   5      64.914  96.937  29.2790  0.00  0.00     0.000 HD
BRANCH 69 75
ATOM     75   C  BDP B   5      69.208  93.546  30.2000  0.00  0.00     0.000 C
ATOM     76   O  BDP B   5      70.060  94.092  29.4700  0.00  0.00     0.000 OA
ATOM     77   O  BDP B   5      69.246  92.332  30.4730  0.00  0.00     0.000 OA
ENDBRANCH 69 75
BRANCH 65 78
ATOM     78  O3  NAG B   6      68.944  97.079  32.4380  0.00  0.00     0.000 O
BRANCH 78 81
ATOM     79  C1  NAG B   6      70.160  98.210  35.8400  0.00  0.00     0.000 C
ATOM     80  C2  NAG B   6      69.353  98.254  34.5330  0.00  0.00     0.000 C
ATOM     81  C3  NAG B   6      69.575  96.980  33.7330  0.00  0.00     0.000 C
ATOM     82  C4  NAG B   6      71.071  96.695  33.5660  0.00  0.00     0.000 C
ATOM     83  C5  NAG B   6      71.738  96.668  34.9370  0.00  0.00     0.000 C
ATOM     84  O5  NAG B   6      71.542  97.948  35.5380  0.00  0.00     0.000 O
BRANCH 80 87
ATOM     85   N  NAG B   6      67.975  98.543  34.9210  0.00  0.00     0.000 N
ATOM     87  HD  NAG B   6      67.373  99.111  35.1770  0.00  0.00     0.000 HD
ATOM     87   C  NAG B   6      67.144  99.318  34.2130  0.00  0.00     0.000 C
ATOM     88   C  NAG B   6      65.761  99.461  34.7650  0.00  0.00     0.000 C
ATOM     89   O  NAG B   6      67.472  99.872  33.1710  0.00  0.00     0.000 OA
ENDBRANCH 80 87
ATOM     90   O  NAG B   6      73.480  95.075  35.4640  0.00  0.00     0.000 O
ATOM     92  HD  NAG B   6      72.825  95.550  35.7740  0.00  0.00     0.000 HD
ATOM     92   O  NAG B   6      73.480  95.075  35.4640  0.00  0.00     0.000 O
ATOM     94  HD  NAG B   6      72.825  95.550  35.7740  0.00  0.00     0.000 HD
ENDBRANCH 78 81
ENDBRANCH 65 78
ENDBRANCH 64 68
ENDBRANCH 48 64
ENDBRANCH 47 50
ENDBRANCH 34 47
ENDBRANCH 33 37
ENDBRANCH 17 33
ENDBRANCH 16 19
ENDBRANCH 1 16
TORSDOF 16
ENDMDL
MODEL 84
REMARK VINA RESULT:      -0.9     42.173     46.705
ROOT
ATOM      1  C1  BDP B   1      30.415  34.790  53.9760  0.00  0.00     0.000 C
ATOM      2  C2  BDP B   1      31.040  35.493  52.7840  0.00  0.00     0.000 C
ATOM      3  C3  BDP B   1      30.903  36.998  52.8730  0.00  0.00     0.000 C
ATOM      4  C4  BDP B   1      30.507  37.505  54.2550  0.00  0.00     0.000 C
ATOM      5  C5  BDP B   1      29.350  36.718  54.8640  0.00  0.00     0.000 C
ATOM      6  O5  BDP B   1      29.177  35.436  54.2360  0.00  0.00     0.000 O
ATOM      7   O  BDP B   1      32.424  35.141  52.6820  0.00  0.00     0.000 O
ATOM      9  HD  BDP B   1      33.062  34.557  52.7040  0.00  0.00     0.000 HD
ATOM      9   O  BDP B   1      29.911  37.456  51.9400  0.00  0.00     0.000 O
ATOM     11  HD  BDP B   1      30.550  36.871  51.9620  0.00  0.00     0.000 HD
ATOM     11   O  BDP B   1      31.633  37.472  55.1410  0.00  0.00     0.000 O
ATOM     13  HD  BDP B   1      32.271  36.887  55.1620  0.00  0.00     0.000 HD
ENDROOT
BRANCH 5 13
ATOM     13   C  BDP B   1      28.119  37.535  54.6840  0.00  0.00     0.000 C
ATOM     14   O  BDP B   1      27.816  38.350  55.5810  0.00  0.00     0.000 OA
ATOM     15   O  BDP B   1      27.446  37.401  53.6400  0.00  0.00     0.000 OA
ENDBRANCH 5 13
BRANCH 1 16
ATOM     16  O3  NAG B   2      30.989  33.909  54.9390  0.00  0.00     0.000 O
BRANCH 16 19
ATOM     17  C1  NAG B   2      34.234  33.563  56.5540  0.00  0.00     0.000 C
ATOM     18  C2  NAG B   2      33.058  34.435  56.1140  0.00  0.00     0.000 C
ATOM     19  C3  NAG B   2      31.768  33.628  56.1030  0.00  0.00     0.000 C
ATOM     20  C4  NAG B   2      32.039  32.124  56.1930  0.00  0.00     0.000 C
ATOM     21  C5  NAG B   2      33.303  31.645  55.4660  0.00  0.00     0.000 C
ATOM     22  O5  NAG B   2      34.382  32.585  55.5210  0.00  0.00     0.000 O
ATOM     23   O  NAG B   2      32.105  31.756  57.5750  0.00  0.00     0.000 O
ATOM     25  HD  NAG B   2      32.549  32.460  57.8130  0.00  0.00     0.000 HD
ATOM     25   C  NAG B   2      32.997  31.337  53.9940  0.00  0.00     0.000 C
ATOM     26   O  NAG B   2      32.490  30.005  53.8240  0.00  0.00     0.000 O
ATOM     28  HD  NAG B   2      32.934  30.710  54.0630  0.00  0.00     0.000 HD
BRANCH 18 30
ATOM     28   N  NAG B   2      33.425  34.707  57.5030  0.00  0.00     0.000 N
ATOM     30  HD  NAG B   2      33.371  34.375  58.3010  0.00  0.00     0.000 HD
ATOM     30   C  NAG B   2      32.893  35.675  58.2620  0.00  0.00     0.000 C
ATOM     31   C  NAG B   2      33.446  35.760  59.6570  0.00  0.00     0.000 C
ATOM     32   O  NAG B   2      32.030  36.428  57.8740  0.00  0.00     0.000 OA
ENDBRANCH 18 30
BRANCH 17 33
ATOM     33  O4  BDP B   3      35.644  33.256  56.6140  0.00  0.00     0.000 O
BRANCH 33 37
ATOM     34  C1  BDP B   3      38.554  32.612  59.6730  0.00  0.00     0.000 C
ATOM     35  C2  BDP B   3      39.050  33.174  58.3470  0.00  0.00     0.000 C
ATOM     36  C3  BDP B   3      37.943  33.765  57.4820  0.00  0.00     0.000 C
ATOM     37  C4  BDP B   3      36.748  32.801  57.4500  0.00  0.00     0.000 C
ATOM     38  C5  BDP B   3      36.322  32.552  58.9100  0.00  0.00     0.000 C
ATOM     39  O5  BDP B   3      37.384  31.803  59.5000  0.00  0.00     0.000 O
ATOM     40   O  BDP B   3      40.055  34.137  58.6730  0.00  0.00     0.000 O
ATOM     42  HD  BDP B   3      40.515  33.406  58.7350  0.00  0.00     0.000 HD
ATOM     42   O  BDP B   3      38.499  33.963  56.1830  0.00  0.00     0.000 O
ATOM     44  HD  BDP B   3      38.960  33.232  56.2450  0.00  0.00     0.000 HD
BRANCH 38 44
ATOM     44   C  BDP B   3      35.032  31.808  59.0600  0.00  0.00     0.000 C
ATOM     45   O  BDP B   3      34.113  32.354  59.7100  0.00  0.00     0.000 OA
ATOM     46   O  BDP B   3      34.907  30.677  58.5420  0.00  0.00     0.000 OA
ENDBRANCH 38 44
BRANCH 34 47
ATOM     47  O3  NAG B   4      39.248  31.421  60.0420  0.00  0.00     0.000 O
BRANCH 47 50
ATOM     48  C1  NAG B   4      40.379  31.066  63.6110  0.00  0.00     0.000 C
ATOM     49  C2  NAG B   4      40.356  31.626  62.2000  0.00  0.00     0.000 C
ATOM     50  C3  NAG B   4      39.244  30.951  61.4050  0.00  0.00     0.000 C
ATOM     51  C4  NAG B   4      39.385  29.437  61.4210  0.00  0.00     0.000 C
ATOM     52  C5  NAG B   4      39.474  28.939  62.8640  0.00  0.00     0.000 C
ATOM     53  O5  NAG B   4      40.512  29.632  63.5680  0.00  0.00     0.000 O
ATOM     54   O  NAG B   4      38.259  28.858  60.7550  0.00  0.00     0.000 O
ATOM     56  HD  NAG B   4      38.903  28.292  60.8770  0.00  0.00     0.000 HD
ATOM     56   C  NAG B   4      39.741  27.439  62.9160  0.00  0.00     0.000 C
ATOM     57   O  NAG B   4      40.982  27.162  62.2540  0.00  0.00     0.000 O
ATOM     59  HD  NAG B   4      41.626  26.596  62.3760  0.00  0.00     0.000 HD
BRANCH 49 61
ATOM     59   N  NAG B   4      40.481  33.044  62.5420  0.00  0.00     0.000 N
ATOM     61  HD  NAG B   4      40.993  32.379  62.3280  0.00  0.00     0.000 HD
ATOM     61   O  NAG B   4      42.024  33.566  60.9780  0.00  0.00     0.000 OA
ATOM     62   C  NAG B   4      41.245  33.903  61.8570  0.00  0.00     0.000 C
ATOM     63   C  NAG B   4      41.081  35.345  62.2180  0.00  0.00     0.000 C
ENDBRANCH 49 61
BRANCH 48 64
ATOM     64  O4  BDP B   5      40.768  31.616  64.8670  0.00  0.00     0.000 O
BRANCH 64 68
ATOM     65  C1  BDP B   5      40.997  33.077  68.7630  0.00  0.00     0.000 C
ATOM     66  C2  BDP B   5      41.266  31.588  68.5920  0.00  0.00     0.000 C
ATOM     67  C3  BDP B   5      41.572  31.287  67.1310  0.00  0.00     0.000 C
ATOM     68  C4  BDP B   5      40.433  31.777  66.2440  0.00  0.00     0.000 C
ATOM     69  C5  BDP B   5      40.099  33.242  66.4950  0.00  0.00     0.000 C
ATOM     70  O5  BDP B   5      39.924  33.487  67.9020  0.00  0.00     0.000 O
ATOM     71   O  BDP B   5      42.344  31.190  69.4530  0.00  0.00     0.000 O
ATOM     73  HD  BDP B   5      43.011  31.009  69.9750  0.00  0.00     0.000 HD
ATOM     73   O  BDP B   5      41.752  29.879  66.9340  0.00  0.00     0.000 O
ATOM     75  HD  BDP B   5      42.418  29.698  67.4560  0.00  0.00     0.000 HD
BRANCH 69 75
ATOM     75   C  BDP B   5      38.822  33.568  65.7640  0.00  0.00     0.000 C
ATOM     76   O  BDP B   5      37.758  33.042  66.1500  0.00  0.00     0.000 OA
ATOM     77   O  BDP B   5      38.862  34.355  64.8010  0.00  0.00     0.000 OA
ENDBRANCH 69 75
BRANCH 65 78
ATOM     78  O3  NAG B   6      40.142  33.679  69.7390  0.00  0.00     0.000 O
BRANCH 78 81
ATOM     79  C1  NAG B   6      40.545  36.370  72.3710  0.00  0.00     0.000 C
ATOM     80  C2  NAG B   6      40.713  34.993  71.7090  0.00  0.00     0.000 C
ATOM     81  C3  NAG B   6      40.126  35.006  70.3080  0.00  0.00     0.000 C
ATOM     82  C4  NAG B   6      38.694  35.551  70.3220  0.00  0.00     0.000 C
ATOM     83  C5  NAG B   6      38.680  36.921  70.9910  0.00  0.00     0.000 C
ATOM     84  O5  NAG B   6      39.159  36.754  72.3260  0.00  0.00     0.000 O
BRANCH 80 87
ATOM     85   N  NAG B   6      42.134  34.669  71.8140  0.00  0.00     0.000 N
ATOM     87  HD  NAG B   6      42.806  34.396  72.2860  0.00  0.00     0.000 HD
ATOM     87   C  NAG B   6      42.606  33.437  72.0370  0.00  0.00     0.000 C
ATOM     88   C  NAG B   6      44.096  33.310  72.0740  0.00  0.00     0.000 C
ATOM     89   O  NAG B   6      41.882  32.460  72.1880  0.00  0.00     0.000 OA
ENDBRANCH 80 87
ATOM     90   O  NAG B   6      37.279  38.714  70.1730  0.00  0.00     0.000 O
ATOM     92  HD  NAG B   6      38.019  38.508  70.5720  0.00  0.00     0.000 HD
ATOM     92   O  NAG B   6      37.279  38.714  70.1730  0.00  0.00     0.000 O
ATOM     94  HD  NAG B   6      38.019  38.508  70.5720  0.00  0.00     0.000 HD
ENDBRANCH 78 81
ENDBRANCH 65 78
ENDBRANCH 64 68
ENDBRANCH 48 64
ENDBRANCH 47 50
ENDBRANCH 34 47
ENDBRANCH 33 37
ENDBRANCH 17 33
ENDBRANCH 16 19
ENDBRANCH 1 16
TORSDOF 16
ENDMDL
MODEL 85
REMARK VINA RESULT:      -0.9     36.740     43.749
ROOT
ATOM      1  C1  BDP B   1      19.860  35.200  69.8880  0.00  0.00     0.000 C
ATOM      2  C2  BDP B   1      20.158  34.789  71.3180  0.00  0.00     0.000 C
ATOM      3  C3  BDP B   1      18.989  34.075  71.9620  0.00  0.00     0.000 C
ATOM      4  C4  BDP B   1      17.926  33.607  70.9740  0.00  0.00     0.000 C
ATOM      5  C5  BDP B   1      17.543  34.685  69.9650  0.00  0.00     0.000 C
ATOM      6  O5  BDP B   1      18.538  35.719  69.8720  0.00  0.00     0.000 O
ATOM      7   O  BDP B   1      21.314  33.945  71.3520  0.00  0.00     0.000 O
ATOM      9  HD  BDP B   1      22.121  33.751  71.1020  0.00  0.00     0.000 HD
ATOM      9   O  BDP B   1      18.349  34.940  72.9130  0.00  0.00     0.000 O
ATOM     11  HD  BDP B   1      19.156  34.746  72.6630  0.00  0.00     0.000 HD
ATOM     11   O  BDP B   1      18.369  32.433  70.2820  0.00  0.00     0.000 O
ATOM     13  HD  BDP B   1      19.176  32.239  70.0320  0.00  0.00     0.000 HD
ENDROOT
BRANCH 5 13
ATOM     13   C  BDP B   1      16.251  35.271  70.4150  0.00  0.00     0.000 C
ATOM     14   O  BDP B   1      16.286  36.254  71.1850  0.00  0.00     0.000 OA
ATOM     15   O  BDP B   1      15.182  34.783  69.9920  0.00  0.00     0.000 OA
ENDBRANCH 5 13
BRANCH 1 16
ATOM     16  O3  NAG B   2      20.522  34.865  68.6700  0.00  0.00     0.000 O
BRANCH 16 19
ATOM     17  C1  NAG B   2      22.295  31.931  67.4440  0.00  0.00     0.000 C
ATOM     18  C2  NAG B   2      21.071  32.558  68.1110  0.00  0.00     0.000 C
ATOM     19  C3  NAG B   2      20.850  33.974  67.6020  0.00  0.00     0.000 C
ATOM     20  C4  NAG B   2      22.073  34.502  66.8460  0.00  0.00     0.000 C
ATOM     21  C5  NAG B   2      23.429  34.038  67.3960  0.00  0.00     0.000 C
ATOM     22  O5  NAG B   2      23.408  32.699  67.9050  0.00  0.00     0.000 O
ATOM     23   O  NAG B   2      21.953  34.128  65.4700  0.00  0.00     0.000 O
ATOM     25  HD  NAG B   2      21.650  33.335  65.6400  0.00  0.00     0.000 HD
ATOM     25   C  NAG B   2      23.913  34.978  68.5080  0.00  0.00     0.000 C
ATOM     26   O  NAG B   2      24.607  36.116  67.9770  0.00  0.00     0.000 O
ATOM     28  HD  NAG B   2      24.304  35.323  68.1470  0.00  0.00     0.000 HD
BRANCH 18 30
ATOM     28   N  NAG B   2      20.673  31.647  67.0380  0.00  0.00     0.000 N
ATOM     30  HD  NAG B   2      20.608  31.593  66.1760  0.00  0.00     0.000 HD
ATOM     30   C  NAG B   2      19.415  31.254  66.7920  0.00  0.00     0.000 C
ATOM     31   C  NAG B   2      19.264  30.304  65.6380  0.00  0.00     0.000 C
ATOM     32   O  NAG B   2      18.462  31.629  67.4350  0.00  0.00     0.000 OA
ENDBRANCH 18 30
BRANCH 17 33
ATOM     33  O4  BDP B   3      23.376  30.973  67.4000  0.00  0.00     0.000 O
BRANCH 33 37
ATOM     34  C1  BDP B   3      26.353  29.071  64.9990  0.00  0.00     0.000 C
ATOM     35  C2  BDP B   3      26.484  28.934  66.5120  0.00  0.00     0.000 C
ATOM     36  C3  BDP B   3      25.200  29.256  67.2680  0.00  0.00     0.000 C
ATOM     37  C4  BDP B   3      24.592  30.554  66.7150  0.00  0.00     0.000 C
ATOM     38  C5  BDP B   3      24.381  30.351  65.2020  0.00  0.00     0.000 C
ATOM     39  O5  BDP B   3      25.689  30.287  64.6350  0.00  0.00     0.000 O
ATOM     40   O  BDP B   3      26.935  27.599  66.7540  0.00  0.00     0.000 O
ATOM     42  HD  BDP B   3      27.684  27.980  66.5480  0.00  0.00     0.000 HD
ATOM     42   O  BDP B   3      25.556  29.381  68.6440  0.00  0.00     0.000 O
ATOM     44  HD  BDP B   3      26.306  29.762  68.4380  0.00  0.00     0.000 HD
BRANCH 38 44
ATOM     44   C  BDP B   3      23.593  31.436  64.5370  0.00  0.00     0.000 C
ATOM     45   O  BDP B   3      22.393  31.206  64.2660  0.00  0.00     0.000 OA
ATOM     46   O  BDP B   3      24.144  32.526  64.2710  0.00  0.00     0.000 OA
ENDBRANCH 38 44
BRANCH 34 47
ATOM     47  O3  NAG B   4      27.534  29.609  64.4070  0.00  0.00     0.000 O
BRANCH 47 50
ATOM     48  C1  NAG B   4      28.841  28.002  61.2670  0.00  0.00     0.000 C
ATOM     49  C2  NAG B   4      28.509  28.121  62.7450  0.00  0.00     0.000 C
ATOM     50  C3  NAG B   4      27.798  29.446  62.9990  0.00  0.00     0.000 C
ATOM     51  C4  NAG B   4      28.616  30.625  62.4970  0.00  0.00     0.000 C
ATOM     52  C5  NAG B   4      28.979  30.416  61.0260  0.00  0.00     0.000 C
ATOM     53  O5  NAG B   4      29.612  29.143  60.8440  0.00  0.00     0.000 O
ATOM     54   O  NAG B   4      27.855  31.824  62.6630  0.00  0.00     0.000 O
ATOM     56  HD  NAG B   4      28.691  31.980  62.4970  0.00  0.00     0.000 HD
ATOM     56   C  NAG B   4      29.905  31.517  60.5230  0.00  0.00     0.000 C
ATOM     57   O  NAG B   4      31.109  31.509  61.3010  0.00  0.00     0.000 O
ATOM     59  HD  NAG B   4      31.944  31.664  61.1350  0.00  0.00     0.000 HD
BRANCH 49 61
ATOM     59   N  NAG B   4      27.989  26.768  62.9420  0.00  0.00     0.000 N
ATOM     61  HD  NAG B   4      28.738  27.194  63.0230  0.00  0.00     0.000 HD
ATOM     61   O  NAG B   4      29.056  26.347  64.8880  0.00  0.00     0.000 OA
ATOM     62   C  NAG B   4      28.248  26.029  64.0270  0.00  0.00     0.000 C
ATOM     63   C  NAG B   4      27.460  24.764  64.1520  0.00  0.00     0.000 C
ENDBRANCH 49 61
BRANCH 48 64
ATOM     64  O4  BDP B   5      28.983  26.887  60.3920  0.00  0.00     0.000 O
BRANCH 64 68
ATOM     65  C1  BDP B   5      28.642  24.013  57.3940  0.00  0.00     0.000 C
ATOM     66  C2  BDP B   5      29.564  25.186  57.0910  0.00  0.00     0.000 C
ATOM     67  C3  BDP B   5      29.925  25.902  58.3860  0.00  0.00     0.000 C
ATOM     68  C4  BDP B   5      28.659  26.332  59.1190  0.00  0.00     0.000 C
ATOM     69  C5  BDP B   5      27.693  25.173  59.3260  0.00  0.00     0.000 C
ATOM     70  O5  BDP B   5      27.472  24.471  58.0890  0.00  0.00     0.000 O
ATOM     71   O  BDP B   5      30.732  24.715  56.4010  0.00  0.00     0.000 O
ATOM     73  HD  BDP B   5      31.424  24.376  56.0060  0.00  0.00     0.000 HD
ATOM     73   O  BDP B   5      30.730  27.055  58.1160  0.00  0.00     0.000 O
ATOM     75  HD  BDP B   5      31.422  26.716  57.7210  0.00  0.00     0.000 HD
BRANCH 69 75
ATOM     75   C  BDP B   5      26.385  25.730  59.8290  0.00  0.00     0.000 C
ATOM     76   O  BDP B   5      25.711  26.455  59.0700  0.00  0.00     0.000 OA
ATOM     77   O  BDP B   5      26.014  25.448  60.9830  0.00  0.00     0.000 OA
ENDBRANCH 69 75
BRANCH 65 78
ATOM     78  O3  NAG B   6      27.639  23.475  56.5270  0.00  0.00     0.000 O
BRANCH 78 81
ATOM     79  C1  NAG B   6      26.835  20.041  55.1520  0.00  0.00     0.000 C
ATOM     80  C2  NAG B   6      27.601  21.363  55.3130  0.00  0.00     0.000 C
ATOM     81  C3  NAG B   6      27.027  22.169  56.4670  0.00  0.00     0.000 C
ATOM     82  C4  NAG B   6      25.507  22.309  56.3320  0.00  0.00     0.000 C
ATOM     83  C5  NAG B   6      24.881  20.925  56.1940  0.00  0.00     0.000 C
ATOM     84  O5  NAG B   6      25.428  20.317  55.0240  0.00  0.00     0.000 O
BRANCH 80 87
ATOM     85   N  NAG B   6      29.012  21.000  55.4160  0.00  0.00     0.000 N
ATOM     87  HD  NAG B   6      29.750  20.752  55.0380  0.00  0.00     0.000 HD
ATOM     87   C  NAG B   6      30.010  21.717  54.8870  0.00  0.00     0.000 C
ATOM     88   C  NAG B   6      31.389  21.192  55.1340  0.00  0.00     0.000 C
ATOM     89   O  NAG B   6      29.829  22.748  54.2500  0.00  0.00     0.000 OA
ENDBRANCH 80 87
ATOM     90   O  NAG B   6      22.780  20.377  57.2590  0.00  0.00     0.000 O
ATOM     92  HD  NAG B   6      23.544  20.076  56.9850  0.00  0.00     0.000 HD
ATOM     92   O  NAG B   6      22.780  20.377  57.2590  0.00  0.00     0.000 O
ATOM     94  HD  NAG B   6      23.544  20.076  56.9850  0.00  0.00     0.000 HD
ENDBRANCH 78 81
ENDBRANCH 65 78
ENDBRANCH 64 68
ENDBRANCH 48 64
ENDBRANCH 47 50
ENDBRANCH 34 47
ENDBRANCH 33 37
ENDBRANCH 17 33
ENDBRANCH 16 19
ENDBRANCH 1 16
TORSDOF 16
ENDMDL
MODEL 86
REMARK VINA RESULT:      -0.9     63.586     69.191
ROOT
ATOM      1  C1  BDP B   1      41.650  45.216  88.1150  0.00  0.00     0.000 C
ATOM      2  C2  BDP B   1      43.104  45.629  87.9730  0.00  0.00     0.000 C
ATOM      3  C3  BDP B   1      43.853  44.753  86.9910  0.00  0.00     0.000 C
ATOM      4  C4  BDP B   1      42.951  43.900  86.1060  0.00  0.00     0.000 C
ATOM      5  C5  BDP B   1      41.853  43.190  86.8920  0.00  0.00     0.000 C
ATOM      6  O5  BDP B   1      41.626  43.797  88.1760  0.00  0.00     0.000 O
ATOM      7   O  BDP B   1      43.183  46.996  87.5550  0.00  0.00     0.000 O
ATOM      9  HD  BDP B   1      42.928  47.822  87.6060  0.00  0.00     0.000 HD
ATOM      9   O  BDP B   1      44.734  43.866  87.6990  0.00  0.00     0.000 O
ATOM     11  HD  BDP B   1      44.479  44.692  87.7500  0.00  0.00     0.000 HD
ATOM     11   O  BDP B   1      42.365  44.700  85.0720  0.00  0.00     0.000 O
ATOM     13  HD  BDP B   1      42.110  45.526  85.1240  0.00  0.00     0.000 HD
ENDROOT
BRANCH 5 13
ATOM     13   C  BDP B   1      42.285  41.777  87.0740  0.00  0.00     0.000 C
ATOM     14   O  BDP B   1      41.970  40.947  86.1960  0.00  0.00     0.000 OA
ATOM     15   O  BDP B   1      42.965  41.474  88.0780  0.00  0.00     0.000 OA
ENDBRANCH 5 13
BRANCH 1 16
ATOM     16  O3  NAG B   2      40.451  45.952  87.8860  0.00  0.00     0.000 O
BRANCH 16 19
ATOM     17  C1  NAG B   2      38.064  45.671  85.1520  0.00  0.00     0.000 C
ATOM     18  C2  NAG B   2      38.810  45.045  86.3300  0.00  0.00     0.000 C
ATOM     19  C3  NAG B   2      39.120  46.096  87.3860  0.00  0.00     0.000 C
ATOM     20  C4  NAG B   2      38.920  47.516  86.8490  0.00  0.00     0.000 C
ATOM     21  C5  NAG B   2      39.292  47.713  85.3730  0.00  0.00     0.000 C
ATOM     22  O5  NAG B   2      38.996  46.575  84.5550  0.00  0.00     0.000 O
ATOM     23   O  NAG B   2      37.556  47.894  87.0610  0.00  0.00     0.000 O
ATOM     25  HD  NAG B   2      37.235  47.120  86.8420  0.00  0.00     0.000 HD
ATOM     25   C  NAG B   2      40.785  48.044  85.2310  0.00  0.00     0.000 C
ATOM     26   O  NAG B   2      41.037  49.446  85.3990  0.00  0.00     0.000 O
ATOM     28  HD  NAG B   2      40.715  48.672  85.1810  0.00  0.00     0.000 HD
BRANCH 18 30
ATOM     28   N  NAG B   2      37.376  44.773  86.4190  0.00  0.00     0.000 N
ATOM     30  HD  NAG B   2      36.625  45.135  86.6520  0.00  0.00     0.000 HD
ATOM     30   C  NAG B   2      36.810  43.912  87.2760  0.00  0.00     0.000 C
ATOM     31   C  NAG B   2      35.315  43.800  87.1650  0.00  0.00     0.000 C
ATOM     32   O  NAG B   2      37.435  43.272  88.0890  0.00  0.00     0.000 OA
ENDBRANCH 18 30
BRANCH 17 33
ATOM     33  O4  BDP B   3      37.642  45.688  83.7710  0.00  0.00     0.000 O
BRANCH 33 37
ATOM     34  C1  BDP B   3      38.897  43.536  80.3010  0.00  0.00     0.000 C
ATOM     35  C2  BDP B   3      38.936  45.058  80.2290  0.00  0.00     0.000 C
ATOM     36  C3  BDP B   3      38.891  45.735  81.5950  0.00  0.00     0.000 C
ATOM     37  C4  BDP B   3      37.795  45.084  82.4530  0.00  0.00     0.000 C
ATOM     38  C5  BDP B   3      38.104  43.576  82.5230  0.00  0.00     0.000 C
ATOM     39  O5  BDP B   3      37.885  43.076  81.2040  0.00  0.00     0.000 O
ATOM     40   O  BDP B   3      40.118  45.393  79.4980  0.00  0.00     0.000 O
ATOM     42  HD  BDP B   3      39.581  45.202  78.8460  0.00  0.00     0.000 HD
ATOM     42   O  BDP B   3      38.629  47.117  81.3580  0.00  0.00     0.000 O
ATOM     44  HD  BDP B   3      38.093  46.926  80.7050  0.00  0.00     0.000 HD
BRANCH 38 44
ATOM     44   C  BDP B   3      37.262  42.817  83.5000  0.00  0.00     0.000 C
ATOM     45   O  BDP B   3      37.843  42.211  84.4270  0.00  0.00     0.000 OA
ATOM     46   O  BDP B   3      36.019  42.807  83.3680  0.00  0.00     0.000 OA
ENDBRANCH 38 44
BRANCH 34 47
ATOM     47  O3  NAG B   4      38.124  42.971  79.2440  0.00  0.00     0.000 O
BRANCH 47 50
ATOM     48  C1  NAG B   4      39.548  39.604  78.3620  0.00  0.00     0.000 C
ATOM     49  C2  NAG B   4      39.563  41.085  78.6980  0.00  0.00     0.000 C
ATOM     50  C3  NAG B   4      38.141  41.552  78.9870  0.00  0.00     0.000 C
ATOM     51  C4  NAG B   4      37.202  41.233  77.8350  0.00  0.00     0.000 C
ATOM     52  C5  NAG B   4      37.283  39.744  77.4960  0.00  0.00     0.000 C
ATOM     53  O5  NAG B   4      38.644  39.357  77.2680  0.00  0.00     0.000 O
ATOM     54   O  NAG B   4      35.869  41.595  78.2070  0.00  0.00     0.000 O
ATOM     56  HD  NAG B   4      35.950  41.447  77.3570  0.00  0.00     0.000 HD
ATOM     56   C  NAG B   4      36.449  39.410  76.2650  0.00  0.00     0.000 C
ATOM     57   O  NAG B   4      36.940  40.165  75.1490  0.00  0.00     0.000 O
ATOM     59  HD  NAG B   4      37.021  40.017  74.3000  0.00  0.00     0.000 HD
BRANCH 49 61
ATOM     59   N  NAG B   4      40.397  41.542  77.5860  0.00  0.00     0.000 N
ATOM     61  HD  NAG B   4      40.007  41.873  78.2850  0.00  0.00     0.000 HD
ATOM     61   O  NAG B   4      41.726  42.915  78.7890  0.00  0.00     0.000 OA
ATOM     62   C  NAG B   4      41.447  42.357  77.7380  0.00  0.00     0.000 C
ATOM     63   C  NAG B   4      42.304  42.542  76.5260  0.00  0.00     0.000 C
ENDBRANCH 49 61
BRANCH 48 64
ATOM     64  O4  BDP B   5      40.506  38.562  78.5280  0.00  0.00     0.000 O
BRANCH 64 68
ATOM     65  C1  BDP B   5      43.488  38.528  81.4400  0.00  0.00     0.000 C
ATOM     66  C2  BDP B   5      43.960  38.717  80.0050  0.00  0.00     0.000 C
ATOM     67  C3  BDP B   5      42.785  39.136  79.1300  0.00  0.00     0.000 C
ATOM     68  C4  BDP B   5      41.658  38.115  79.2410  0.00  0.00     0.000 C
ATOM     69  C5  BDP B   5      41.262  37.851  80.6880  0.00  0.00     0.000 C
ATOM     70  O5  BDP B   5      42.424  37.564  81.4870  0.00  0.00     0.000 O
ATOM     71   O  BDP B   5      45.019  39.686  79.9700  0.00  0.00     0.000 O
ATOM     73  HD  BDP B   5      45.639  40.290  80.0020  0.00  0.00     0.000 HD
ATOM     73   O  BDP B   5      43.191  39.244  77.7610  0.00  0.00     0.000 O
ATOM     75  HD  BDP B   5      43.811  39.848  77.7930  0.00  0.00     0.000 HD
BRANCH 69 75
ATOM     75   C  BDP B   5      40.328  36.668  80.7160  0.00  0.00     0.000 C
ATOM     76   O  BDP B   5      39.159  36.836  81.1180  0.00  0.00     0.000 OA
ATOM     77   O  BDP B   5      40.747  35.560  80.3340  0.00  0.00     0.000 OA
ENDBRANCH 69 75
BRANCH 65 78
ATOM     78  O3  NAG B   6      44.041  37.627  82.4040  0.00  0.00     0.000 O
BRANCH 78 81
ATOM     79  C1  NAG B   6      45.353  37.959  85.9390  0.00  0.00     0.000 C
ATOM     80  C2  NAG B   6      45.337  38.110  84.4100  0.00  0.00     0.000 C
ATOM     81  C3  NAG B   6      44.008  37.632  83.8480  0.00  0.00     0.000 C
ATOM     82  C4  NAG B   6      43.667  36.232  84.3680  0.00  0.00     0.000 C
ATOM     83  C5  NAG B   6      43.709  36.234  85.8920  0.00  0.00     0.000 C
ATOM     84  O5  NAG B   6      45.031  36.601  86.2880  0.00  0.00     0.000 O
BRANCH 80 87
ATOM     85   N  NAG B   6      45.696  39.500  84.1430  0.00  0.00     0.000 N
ATOM     87  HD  NAG B   6      46.300  40.118  84.0800  0.00  0.00     0.000 HD
ATOM     87   C  NAG B   6      46.444  39.894  83.1050  0.00  0.00     0.000 C
ATOM     88   C  NAG B   6      46.669  41.368  82.9900  0.00  0.00     0.000 C
ATOM     89   O  NAG B   6      46.911  39.114  82.2830  0.00  0.00     0.000 OA
ENDBRANCH 80 87
ATOM     90   O  NAG B   6      42.102  34.989  87.2020  0.00  0.00     0.000 O
ATOM     92  HD  NAG B   6      42.615  35.686  87.1710  0.00  0.00     0.000 HD
ATOM     92   O  NAG B   6      42.102  34.989  87.2020  0.00  0.00     0.000 O
ATOM     94  HD  NAG B   6      42.615  35.686  87.1710  0.00  0.00     0.000 HD
ENDBRANCH 78 81
ENDBRANCH 65 78
ENDBRANCH 64 68
ENDBRANCH 48 64
ENDBRANCH 47 50
ENDBRANCH 34 47
ENDBRANCH 33 37
ENDBRANCH 17 33
ENDBRANCH 16 19
ENDBRANCH 1 16
TORSDOF 16
ENDMDL
MODEL 87
REMARK VINA RESULT:      -0.9     92.105     97.195
ROOT
ATOM      1  C1  BDP B   1      97.164  62.825  35.2090  0.00  0.00     0.000 C
ATOM      2  C2  BDP B   1      98.093  62.285  36.2820  0.00  0.00     0.000 C
ATOM      3  C3  BDP B   1      99.537  62.660  36.0280  0.00  0.00     0.000 C
ATOM      4  C4  BDP B   1      99.720  63.762  34.9910  0.00  0.00     0.000 C
ATOM      5  C5  BDP B   1      98.885  63.535  33.7340  0.00  0.00     0.000 C
ATOM      6  O5  BDP B   1      97.806  62.612  33.9600  0.00  0.00     0.000 O
ATOM      7   O  BDP B   1      97.688  62.773  37.5660  0.00  0.00     0.000 O
ATOM      9  HD  BDP B   1      97.076  62.954  38.1520  0.00  0.00     0.000 HD
ATOM      9   O  BDP B   1     100.269  61.510  35.5750  0.00  0.00     0.000 O
ATOM     11  HD  BDP B   1      99.657  61.691  36.1610  0.00  0.00     0.000 HD
ATOM     11   O  BDP B   1      99.402  65.039  35.5580  0.00  0.00     0.000 O
ATOM     13  HD  BDP B   1      98.790  65.220  36.1440  0.00  0.00     0.000 HD
ENDROOT
BRANCH 5 13
ATOM     13   C  BDP B   1      99.798  62.995  32.6900  0.00  0.00     0.000 C
ATOM     14   O  BDP B   1     100.390  63.806  31.9480  0.00  0.00     0.000 OA
ATOM     15   O  BDP B   1      99.962  61.759  32.6060  0.00  0.00     0.000 OA
ENDBRANCH 5 13
BRANCH 1 16
ATOM     16  O3  NAG B   2      96.042  63.699  35.3080  0.00  0.00     0.000 O
BRANCH 16 19
ATOM     17  C1  NAG B   2      95.107  66.527  37.4030  0.00  0.00     0.000 C
ATOM     18  C2  NAG B   2      96.134  65.805  36.5300  0.00  0.00     0.000 C
ATOM     19  C3  NAG B   2      95.440  64.987  35.4520  0.00  0.00     0.000 C
ATOM     20  C4  NAG B   2      93.943  64.828  35.7360  0.00  0.00     0.000 C
ATOM     21  C5  NAG B   2      93.572  64.700  37.2200  0.00  0.00     0.000 C
ATOM     22  O5  NAG B   2      94.399  65.488  38.0830  0.00  0.00     0.000 O
ATOM     23   O  NAG B   2      93.250  65.939  35.1560  0.00  0.00     0.000 O
ATOM     25  HD  NAG B   2      93.846  66.522  35.3900  0.00  0.00     0.000 HD
ATOM     25   C  NAG B   2      93.647  63.235  37.6720  0.00  0.00     0.000 C
ATOM     26   O  NAG B   2      92.431  62.528  37.3880  0.00  0.00     0.000 O
ATOM     28  HD  NAG B   2      93.027  63.112  37.6210  0.00  0.00     0.000 HD
BRANCH 18 30
ATOM     28   N  NAG B   2      96.041  67.221  36.1750  0.00  0.00     0.000 N
ATOM     30  HD  NAG B   2      95.532  67.791  35.7690  0.00  0.00     0.000 HD
ATOM     30   C  NAG B   2      96.830  67.843  35.2860  0.00  0.00     0.000 C
ATOM     31   C  NAG B   2      96.543  69.307  35.1030  0.00  0.00     0.000 C
ATOM     32   O  NAG B   2      97.705  67.285  34.6660  0.00  0.00     0.000 OA
ENDBRANCH 18 30
BRANCH 17 33
ATOM     33  O4  BDP B   3      94.704  67.175  38.6290  0.00  0.00     0.000 O
BRANCH 33 37
ATOM     34  C1  BDP B   3      91.796  69.332  40.8950  0.00  0.00     0.000 C
ATOM     35  C2  BDP B   3      92.742  68.418  41.6650  0.00  0.00     0.000 C
ATOM     36  C3  BDP B   3      93.987  68.026  40.8780  0.00  0.00     0.000 C
ATOM     37  C4  BDP B   3      93.584  67.608  39.4560  0.00  0.00     0.000 C
ATOM     38  C5  BDP B   3      92.810  68.787  38.8350  0.00  0.00     0.000 C
ATOM     39  O5  BDP B   3      91.581  68.865  39.5580  0.00  0.00     0.000 O
ATOM     40   O  BDP B   3      93.061  69.104  42.8770  0.00  0.00     0.000 O
ATOM     42  HD  BDP B   3      92.290  68.772  43.0860  0.00  0.00     0.000 HD
ATOM     42   O  BDP B   3      94.602  66.955  41.5920  0.00  0.00     0.000 O
ATOM     44  HD  BDP B   3      93.831  66.622  41.8010  0.00  0.00     0.000 HD
BRANCH 38 44
ATOM     44   C  BDP B   3      92.529  68.641  37.3720  0.00  0.00     0.000 C
ATOM     45   O  BDP B   3      93.114  69.415  36.5830  0.00  0.00     0.000 OA
ATOM     46   O  BDP B   3      91.728  67.764  36.9810  0.00  0.00     0.000 OA
ENDBRANCH 38 44
BRANCH 34 47
ATOM     47  O3  NAG B   4      90.427  69.027  41.1560  0.00  0.00     0.000 O
BRANCH 47 50
ATOM     48  C1  NAG B   4      88.009  71.844  41.7570  0.00  0.00     0.000 C
ATOM     49  C2  NAG B   4      89.156  70.897  42.0590  0.00  0.00     0.000 C
ATOM     50  C3  NAG B   4      89.385  69.980  40.8630  0.00  0.00     0.000 C
ATOM     51  C4  NAG B   4      88.115  69.239  40.4750  0.00  0.00     0.000 C
ATOM     52  C5  NAG B   4      86.979  70.238  40.2520  0.00  0.00     0.000 C
ATOM     53  O5  NAG B   4      86.834  71.093  41.3940  0.00  0.00     0.000 O
ATOM     54   O  NAG B   4      88.362  68.482  39.2880  0.00  0.00     0.000 O
ATOM     56  HD  NAG B   4      87.628  68.251  39.6840  0.00  0.00     0.000 HD
ATOM     56   C  NAG B   4      85.659  69.525  39.9840  0.00  0.00     0.000 C
ATOM     57   O  NAG B   4      85.335  68.702  41.1120  0.00  0.00     0.000 O
ATOM     59  HD  NAG B   4      84.600  68.471  41.5090  0.00  0.00     0.000 HD
BRANCH 49 61
ATOM     59   N  NAG B   4      90.184  71.814  42.5540  0.00  0.00     0.000 N
ATOM     61  HD  NAG B   4      89.531  71.339  42.8680  0.00  0.00     0.000 HD
ATOM     61   O  NAG B   4      90.738  70.633  44.3980  0.00  0.00     0.000 OA
ATOM     62   C  NAG B   4      90.933  71.568  43.6350  0.00  0.00     0.000 C
ATOM     63   C  NAG B   4      92.071  72.512  43.8620  0.00  0.00     0.000 C
ENDBRANCH 49 61
BRANCH 48 64
ATOM     64  O4  BDP B   5      87.703  73.167  42.1890  0.00  0.00     0.000 O
BRANCH 64 68
ATOM     65  C1  BDP B   5      87.599  74.523  46.1290  0.00  0.00     0.000 C
ATOM     66  C2  BDP B   5      86.263  74.099  45.5340  0.00  0.00     0.000 C
ATOM     67  C3  BDP B   5      86.501  73.246  44.2950  0.00  0.00     0.000 C
ATOM     68  C4  BDP B   5      87.368  74.004  43.2950  0.00  0.00     0.000 C
ATOM     69  C5  BDP B   5      88.657  74.517  43.9250  0.00  0.00     0.000 C
ATOM     70  O5  BDP B   5      88.377  75.223  45.1460  0.00  0.00     0.000 O
ATOM     71   O  BDP B   5      85.496  73.394  46.5230  0.00  0.00     0.000 O
ATOM     73  HD  BDP B   5      85.086  72.960  47.1500  0.00  0.00     0.000 HD
ATOM     73   O  BDP B   5      85.257  72.900  43.6750  0.00  0.00     0.000 O
ATOM     75  HD  BDP B   5      84.846  72.466  44.3010  0.00  0.00     0.000 HD
BRANCH 69 75
ATOM     75   C  BDP B   5      89.324  75.448  42.9460  0.00  0.00     0.000 C
ATOM     76   O  BDP B   5      90.318  75.040  42.3110  0.00  0.00     0.000 OA
ATOM     77   O  BDP B   5      88.864  76.595  42.7940  0.00  0.00     0.000 OA
ENDBRANCH 69 75
BRANCH 65 78
ATOM     78  O3  NAG B   6      87.859  75.723  46.8610  0.00  0.00     0.000 O
BRANCH 78 81
ATOM     79  C1  NAG B   6      89.382  76.527  50.2330  0.00  0.00     0.000 C
ATOM     80  C2  NAG B   6      88.332  76.016  49.2340  0.00  0.00     0.000 C
ATOM     81  C3  NAG B   6      88.888  76.055  47.8190  0.00  0.00     0.000 C
ATOM     82  C4  NAG B   6      89.473  77.435  47.5010  0.00  0.00     0.000 C
ATOM     83  C5  NAG B   6      90.503  77.805  48.5620  0.00  0.00     0.000 C
ATOM     84  O5  NAG B   6      89.835  77.830  49.8240  0.00  0.00     0.000 O
BRANCH 80 87
ATOM     85   N  NAG B   6      87.911  74.707  49.7260  0.00  0.00     0.000 N
ATOM     87  HD  NAG B   6      87.447  74.230  50.2800  0.00  0.00     0.000 HD
ATOM     87   C  NAG B   6      86.656  74.247  49.6510  0.00  0.00     0.000 C
ATOM     88   C  NAG B   6      86.438  72.866  50.1820  0.00  0.00     0.000 C
ATOM     89   O  NAG B   6      85.734  74.895  49.1690  0.00  0.00     0.000 OA
ENDBRANCH 80 87
ATOM     90   O  NAG B   6      92.550  78.959  47.9890  0.00  0.00     0.000 O
ATOM     92  HD  NAG B   6      92.170  78.399  48.5290  0.00  0.00     0.000 HD
ATOM     92   O  NAG B   6      92.550  78.959  47.9890  0.00  0.00     0.000 O
ATOM     94  HD  NAG B   6      92.170  78.399  48.5290  0.00  0.00     0.000 HD
ENDBRANCH 78 81
ENDBRANCH 65 78
ENDBRANCH 64 68
ENDBRANCH 48 64
ENDBRANCH 47 50
ENDBRANCH 34 47
ENDBRANCH 33 37
ENDBRANCH 17 33
ENDBRANCH 16 19
ENDBRANCH 1 16
TORSDOF 16
ENDMDL
MODEL 88
REMARK VINA RESULT:      -0.9     55.600     60.751
ROOT
ATOM      1  C1  BDP B   1      40.717  31.139  67.4310  0.00  0.00     0.000 C
ATOM      2  C2  BDP B   1      41.889  31.903  66.8420  0.00  0.00     0.000 C
ATOM      3  C3  BDP B   1      41.472  33.249  66.2880  0.00  0.00     0.000 C
ATOM      4  C4  BDP B   1      40.089  33.704  66.7370  0.00  0.00     0.000 C
ATOM      5  C5  BDP B   1      39.037  32.606  66.6160  0.00  0.00     0.000 C
ATOM      6  O5  BDP B   1      39.627  31.297  66.5350  0.00  0.00     0.000 O
ATOM      7   O  BDP B   1      42.900  32.087  67.8390  0.00  0.00     0.000 O
ATOM      9  HD  BDP B   1      43.389  31.789  68.4890  0.00  0.00     0.000 HD
ATOM      9   O  BDP B   1      41.472  33.208  64.8520  0.00  0.00     0.000 O
ATOM     11  HD  BDP B   1      41.961  32.910  65.5020  0.00  0.00     0.000 HD
ATOM     11   O  BDP B   1      40.134  34.183  68.0870  0.00  0.00     0.000 O
ATOM     13  HD  BDP B   1      40.623  33.885  68.7370  0.00  0.00     0.000 HD
ENDROOT
BRANCH 5 13
ATOM     13   C  BDP B   1      38.253  32.881  65.3810  0.00  0.00     0.000 C
ATOM     14   O  BDP B   1      37.242  33.608  65.4740  0.00  0.00     0.000 OA
ATOM     15   O  BDP B   1      38.643  32.402  64.2940  0.00  0.00     0.000 OA
ENDBRANCH 5 13
BRANCH 1 16
ATOM     16  O3  NAG B   2      40.506  30.636  68.7490  0.00  0.00     0.000 O
BRANCH 16 19
ATOM     17  C1  NAG B   2      41.388  31.687  72.1210  0.00  0.00     0.000 C
ATOM     18  C2  NAG B   2      40.829  32.010  70.7350  0.00  0.00     0.000 C
ATOM     19  C3  NAG B   2      40.164  30.784  70.1280  0.00  0.00     0.000 C
ATOM     20  C4  NAG B   2      40.527  29.506  70.8890  0.00  0.00     0.000 C
ATOM     21  C5  NAG B   2      41.956  29.463  71.4460  0.00  0.00     0.000 C
ATOM     22  O5  NAG B   2      42.432  30.738  71.8920  0.00  0.00     0.000 O
ATOM     23   O  NAG B   2      39.586  29.328  71.9540  0.00  0.00     0.000 O
ATOM     25  HD  NAG B   2      39.564  30.167  72.1680  0.00  0.00     0.000 HD
ATOM     25   C  NAG B   2      42.931  28.918  70.3920  0.00  0.00     0.000 C
ATOM     26   O  NAG B   2      42.971  27.484  70.3970  0.00  0.00     0.000 O
ATOM     28  HD  NAG B   2      42.948  28.323  70.6100  0.00  0.00     0.000 HD
BRANCH 18 30
ATOM     28   N  NAG B   2      39.964  32.539  71.7890  0.00  0.00     0.000 N
ATOM     30  HD  NAG B   2      39.386  32.294  72.3850  0.00  0.00     0.000 HD
ATOM     30   C  NAG B   2      38.885  33.307  71.5840  0.00  0.00     0.000 C
ATOM     31   C  NAG B   2      38.166  33.733  72.8320  0.00  0.00     0.000 C
ATOM     32   O  NAG B   2      38.500  33.635  70.4850  0.00  0.00     0.000 OA
ENDBRANCH 18 30
BRANCH 17 33
ATOM     33  O4  BDP B   3      42.284  31.936  73.2260  0.00  0.00     0.000 O
BRANCH 33 37
ATOM     34  C1  BDP B   3      43.600  31.052  77.1920  0.00  0.00     0.000 C
ATOM     35  C2  BDP B   3      44.644  31.570  76.2110  0.00  0.00     0.000 C
ATOM     36  C3  BDP B   3      44.046  32.251  74.9850  0.00  0.00     0.000 C
ATOM     37  C4  BDP B   3      42.902  31.390  74.4280  0.00  0.00     0.000 C
ATOM     38  C5  BDP B   3      41.890  31.179  75.5710  0.00  0.00     0.000 C
ATOM     39  O5  BDP B   3      42.551  30.344  76.5220  0.00  0.00     0.000 O
ATOM     40   O  BDP B   3      45.493  32.446  76.9560  0.00  0.00     0.000 O
ATOM     42  HD  BDP B   3      45.829  31.679  77.1780  0.00  0.00     0.000 HD
ATOM     42   O  BDP B   3      45.105  32.401  74.0420  0.00  0.00     0.000 O
ATOM     44  HD  BDP B   3      45.441  31.634  74.2640  0.00  0.00     0.000 HD
BRANCH 38 44
ATOM     44   C  BDP B   3      40.602  30.545  75.1480  0.00  0.00     0.000 C
ATOM     45   O  BDP B   3      40.632  29.353  74.7710  0.00  0.00     0.000 OA
ATOM     46   O  BDP B   3      39.545  31.213  75.1790  0.00  0.00     0.000 OA
ENDBRANCH 38 44
BRANCH 34 47
ATOM     47  O3  NAG B   4      43.985  29.808  77.7740  0.00  0.00     0.000 O
BRANCH 47 50
ATOM     48  C1  NAG B   4      43.505  29.294  81.4690  0.00  0.00     0.000 C
ATOM     49  C2  NAG B   4      44.126  29.860  80.2040  0.00  0.00     0.000 C
ATOM     50  C3  NAG B   4      43.369  29.335  78.9890  0.00  0.00     0.000 C
ATOM     51  C4  NAG B   4      43.320  27.815  78.9750  0.00  0.00     0.000 C
ATOM     52  C5  NAG B   4      42.753  27.302  80.2990  0.00  0.00     0.000 C
ATOM     53  O5  NAG B   4      43.481  27.854  81.4020  0.00  0.00     0.000 O
ATOM     54   O  NAG B   4      42.510  27.385  77.8780  0.00  0.00     0.000 O
ATOM     56  HD  NAG B   4      42.979  26.742  78.2180  0.00  0.00     0.000 HD
ATOM     56   C  NAG B   4      42.805  25.780  80.3700  0.00  0.00     0.000 C
ATOM     57   O  NAG B   4      44.169  25.353  80.2560  0.00  0.00     0.000 O
ATOM     59  HD  NAG B   4      44.638  24.709  80.5960  0.00  0.00     0.000 HD
BRANCH 49 61
ATOM     59   N  NAG B   4      44.212  31.285  80.5270  0.00  0.00     0.000 N
ATOM     61  HD  NAG B   4      44.697  30.571  80.6020  0.00  0.00     0.000 HD
ATOM     61   O  NAG B   4      46.355  31.582  79.8770  0.00  0.00     0.000 OA
ATOM     62   C  NAG B   4      45.289  32.035  80.2690  0.00  0.00     0.000 C
ATOM     63   C  NAG B   4      45.116  33.508  80.4690  0.00  0.00     0.000 C
ENDBRANCH 49 61
BRANCH 48 64
ATOM     64  O4  BDP B   5      43.403  29.784  82.8030  0.00  0.00     0.000 O
BRANCH 64 68
ATOM     65  C1  BDP B   5      46.523  31.232  85.1570  0.00  0.00     0.000 C
ATOM     66  C2  BDP B   5      46.160  29.767  85.3580  0.00  0.00     0.000 C
ATOM     67  C3  BDP B   5      45.338  29.275  84.1740  0.00  0.00     0.000 C
ATOM     68  C4  BDP B   5      44.109  30.157  83.9850  0.00  0.00     0.000 C
ATOM     69  C5  BDP B   5      44.471  31.633  83.8890  0.00  0.00     0.000 C
ATOM     70  O5  BDP B   5      45.332  32.015  84.9760  0.00  0.00     0.000 O
ATOM     71   O  BDP B   5      47.357  28.993  85.5320  0.00  0.00     0.000 O
ATOM     73  HD  BDP B   5      48.109  28.572  85.6100  0.00  0.00     0.000 HD
ATOM     73   O  BDP B   5      44.920  27.920  84.3790  0.00  0.00     0.000 O
ATOM     75  HD  BDP B   5      45.673  27.499  84.4580  0.00  0.00     0.000 HD
BRANCH 69 75
ATOM     75   C  BDP B   5      43.197  32.438  83.9500  0.00  0.00     0.000 C
ATOM     76   O  BDP B   5      42.635  32.589  85.0540  0.00  0.00     0.000 OA
ATOM     77   O  BDP B   5      42.745  32.932  82.9010  0.00  0.00     0.000 OA
ENDBRANCH 69 75
BRANCH 65 78
ATOM     78  O3  NAG B   6      46.733  32.203  86.1850  0.00  0.00     0.000 O
BRANCH 78 81
ATOM     79  C1  NAG B   6      49.511  34.625  87.0530  0.00  0.00     0.000 C
ATOM     80  C2  NAG B   6      48.803  33.269  86.9050  0.00  0.00     0.000 C
ATOM     81  C3  NAG B   6      47.472  33.444  86.1920  0.00  0.00     0.000 C
ATOM     82  C4  NAG B   6      46.639  34.546  86.8550  0.00  0.00     0.000 C
ATOM     83  C5  NAG B   6      47.458  35.830  86.9220  0.00  0.00     0.000 C
ATOM     84  O5  NAG B   6      48.625  35.558  87.6980  0.00  0.00     0.000 O
BRANCH 80 87
ATOM     85   N  NAG B   6      49.767  32.379  86.2640  0.00  0.00     0.000 N
ATOM     87  HD  NAG B   6      50.470  31.876  86.3140  0.00  0.00     0.000 HD
ATOM     87   C  NAG B   6      49.897  31.079  86.5570  0.00  0.00     0.000 C
ATOM     88   C  NAG B   6      50.920  30.334  85.7610  0.00  0.00     0.000 C
ATOM     89   O  NAG B   6      49.219  30.515  87.4080  0.00  0.00     0.000 OA
ENDBRANCH 80 87
ATOM     90   O  NAG B   6      46.449  37.995  86.5410  0.00  0.00     0.000 O
ATOM     92  HD  NAG B   6      47.170  37.519  86.4780  0.00  0.00     0.000 HD
ATOM     92   O  NAG B   6      46.449  37.995  86.5410  0.00  0.00     0.000 O
ATOM     94  HD  NAG B   6      47.170  37.519  86.4780  0.00  0.00     0.000 HD
ENDBRANCH 78 81
ENDBRANCH 65 78
ENDBRANCH 64 68
ENDBRANCH 48 64
ENDBRANCH 47 50
ENDBRANCH 34 47
ENDBRANCH 33 37
ENDBRANCH 17 33
ENDBRANCH 16 19
ENDBRANCH 1 16
TORSDOF 16
ENDMDL
MODEL 89
REMARK VINA RESULT:      -0.9     77.172     83.626
ROOT
ATOM      1  C1  BDP B   1      74.100  78.629  25.1330  0.00  0.00     0.000 C
ATOM      2  C2  BDP B   1      74.438  77.153  25.0160  0.00  0.00     0.000 C
ATOM      3  C3  BDP B   1      75.022  76.599  26.2980  0.00  0.00     0.000 C
ATOM      4  C4  BDP B   1      74.826  77.501  27.5110  0.00  0.00     0.000 C
ATOM      5  C5  BDP B   1      75.173  78.959  27.2250  0.00  0.00     0.000 C
ATOM      6  O5  BDP B   1      75.180  79.248  25.8170  0.00  0.00     0.000 O
ATOM      7   O  BDP B   1      73.265  76.412  24.6620  0.00  0.00     0.000 O
ATOM      9  HD  BDP B   1      72.544  76.310  24.1940  0.00  0.00     0.000 HD
ATOM      9   O  BDP B   1      76.433  76.382  26.1390  0.00  0.00     0.000 O
ATOM     11  HD  BDP B   1      75.712  76.279  25.6710  0.00  0.00     0.000 HD
ATOM     11   O  BDP B   1      73.478  77.409  27.9890  0.00  0.00     0.000 O
ATOM     13  HD  BDP B   1      72.757  77.307  27.5200  0.00  0.00     0.000 HD
ENDROOT
BRANCH 5 13
ATOM     13   C  BDP B   1      76.525  79.210  27.7960  0.00  0.00     0.000 C
ATOM     14   O  BDP B   1      77.061  78.301  28.4630  0.00  0.00     0.000 OA
ATOM     15   O  BDP B   1      77.086  80.303  27.5700  0.00  0.00     0.000 OA
ENDBRANCH 5 13
BRANCH 1 16
ATOM     16  O3  NAG B   2      72.860  79.313  24.9640  0.00  0.00     0.000 O
BRANCH 16 19
ATOM     17  C1  NAG B   2      69.359  78.546  25.6040  0.00  0.00     0.000 C
ATOM     18  C2  NAG B   2      70.815  78.579  26.0680  0.00  0.00     0.000 C
ATOM     19  C3  NAG B   2      71.564  79.724  25.4010  0.00  0.00     0.000 C
ATOM     20  C4  NAG B   2      70.780  80.302  24.2200  0.00  0.00     0.000 C
ATOM     21  C5  NAG B   2      69.973  79.279  23.4100  0.00  0.00     0.000 C
ATOM     22  O5  NAG B   2      69.416  78.230  24.2110  0.00  0.00     0.000 O
ATOM     23   O  NAG B   2      69.910  81.328  24.7100  0.00  0.00     0.000 O
ATOM     25  HD  NAG B   2      69.684  80.892  25.4230  0.00  0.00     0.000 HD
ATOM     25   C  NAG B   2      70.843  78.648  22.3140  0.00  0.00     0.000 C
ATOM     26   O  NAG B   2      70.866  79.452  21.1250  0.00  0.00     0.000 O
ATOM     28  HD  NAG B   2      70.640  79.016  21.8390  0.00  0.00     0.000 HD
BRANCH 18 30
ATOM     28   N  NAG B   2      69.930  79.155  27.0780  0.00  0.00     0.000 N
ATOM     30  HD  NAG B   2      69.479  79.871  27.2630  0.00  0.00     0.000 HD
ATOM     30   C  NAG B   2      70.306  79.511  28.3150  0.00  0.00     0.000 C
ATOM     31   C  NAG B   2      69.206  80.072  29.1730  0.00  0.00     0.000 C
ATOM     32   O  NAG B   2      71.438  79.403  28.7240  0.00  0.00     0.000 OA
ENDBRANCH 18 30
BRANCH 17 33
ATOM     33  O4  BDP B   3      68.103  77.867  25.3860  0.00  0.00     0.000 O
BRANCH 33 37
ATOM     34  C1  BDP B   3      63.923  78.274  24.6070  0.00  0.00     0.000 C
ATOM     35  C2  BDP B   3      64.539  76.895  24.4040  0.00  0.00     0.000 C
ATOM     36  C3  BDP B   3      65.890  76.722  25.0890  0.00  0.00     0.000 C
ATOM     37  C4  BDP B   3      66.769  77.950  24.8050  0.00  0.00     0.000 C
ATOM     38  C5  BDP B   3      65.990  79.190  25.2840  0.00  0.00     0.000 C
ATOM     39  O5  BDP B   3      64.881  79.317  24.3930  0.00  0.00     0.000 O
ATOM     40   O  BDP B   3      63.571  75.952  24.8700  0.00  0.00     0.000 O
ATOM     42  HD  BDP B   3      63.256  76.120  24.0810  0.00  0.00     0.000 HD
ATOM     42   O  BDP B   3      66.465  75.526  24.5660  0.00  0.00     0.000 O
ATOM     44  HD  BDP B   3      66.149  75.693  23.7770  0.00  0.00     0.000 HD
BRANCH 38 44
ATOM     44   C  BDP B   3      66.785  80.458  25.2860  0.00  0.00     0.000 C
ATOM     45   O  BDP B   3      66.981  81.029  24.1900  0.00  0.00     0.000 OA
ATOM     46   O  BDP B   3      67.229  80.907  26.3650  0.00  0.00     0.000 OA
ENDBRANCH 38 44
BRANCH 34 47
ATOM     47  O3  NAG B   4      63.250  78.735  23.4370  0.00  0.00     0.000 O
BRANCH 47 50
ATOM     48  C1  NAG B   4      59.875  80.358  23.7870  0.00  0.00     0.000 C
ATOM     49  C2  NAG B   4      60.891  79.230  23.7840  0.00  0.00     0.000 C
ATOM     50  C3  NAG B   4      62.279  79.799  23.5110  0.00  0.00     0.000 C
ATOM     51  C4  NAG B   4      62.309  80.605  22.2220  0.00  0.00     0.000 C
ATOM     52  C5  NAG B   4      61.221  81.678  22.2540  0.00  0.00     0.000 C
ATOM     53  O5  NAG B   4      59.947  81.089  22.5470  0.00  0.00     0.000 O
ATOM     54   O  NAG B   4      63.601  81.201  22.0760  0.00  0.00     0.000 O
ATOM     56  HD  NAG B   4      63.136  81.230  21.3460  0.00  0.00     0.000 HD
ATOM     56   C  NAG B   4      61.139  82.424  20.9270  0.00  0.00     0.000 C
ATOM     57   O  NAG B   4      60.835  81.489  19.8830  0.00  0.00     0.000 O
ATOM     59  HD  NAG B   4      60.370  81.518  19.1540  0.00  0.00     0.000 HD
BRANCH 49 61
ATOM     59   N  NAG B   4      60.556  78.523  25.0200  0.00  0.00     0.000 N
ATOM     61  HD  NAG B   4      60.338  78.505  24.1820  0.00  0.00     0.000 HD
ATOM     61   O  NAG B   4      60.525  76.442  24.1430  0.00  0.00     0.000 OA
ATOM     62   C  NAG B   4      60.475  77.190  25.1080  0.00  0.00     0.000 C
ATOM     63   C  NAG B   4      60.335  76.640  26.4930  0.00  0.00     0.000 C
ENDBRANCH 49 61
BRANCH 48 64
ATOM     64  O4  BDP B   5      58.634  80.544  24.4620  0.00  0.00     0.000 O
BRANCH 64 68
ATOM     65  C1  BDP B   5      55.446  77.861  24.5700  0.00  0.00     0.000 C
ATOM     66  C2  BDP B   5      55.364  78.951  23.5100  0.00  0.00     0.000 C
ATOM     67  C3  BDP B   5      56.742  79.566  23.3000  0.00  0.00     0.000 C
ATOM     68  C4  BDP B   5      57.293  80.083  24.6240  0.00  0.00     0.000 C
ATOM     69  C5  BDP B   5      57.274  79.016  25.7110  0.00  0.00     0.000 C
ATOM     70  O5  BDP B   5      55.977  78.399  25.7910  0.00  0.00     0.000 O
ATOM     71   O  BDP B   5      54.838  78.401  22.2920  0.00  0.00     0.000 O
ATOM     73  HD  BDP B   5      54.536  78.014  21.5780  0.00  0.00     0.000 HD
ATOM     73   O  BDP B   5      56.674  80.646  22.3620  0.00  0.00     0.000 O
ATOM     75  HD  BDP B   5      56.372  80.260  21.6480  0.00  0.00     0.000 HD
BRANCH 69 75
ATOM     75   C  BDP B   5      57.600  79.675  27.0270  0.00  0.00     0.000 C
ATOM     76   O  BDP B   5      58.739  79.518  27.5100  0.00  0.00     0.000 OA
ATOM     77   O  BDP B   5      56.726  80.359  27.5920  0.00  0.00     0.000 OA
ENDBRANCH 69 75
BRANCH 65 78
ATOM     78  O3  NAG B   6      54.401  77.467  25.4630  0.00  0.00     0.000 O
BRANCH 78 81
ATOM     79  C1  NAG B   6      52.732  74.186  26.3510  0.00  0.00     0.000 C
ATOM     80  C2  NAG B   6      53.089  75.414  25.4980  0.00  0.00     0.000 C
ATOM     81  C3  NAG B   6      54.171  76.234  26.1810  0.00  0.00     0.000 C
ATOM     82  C4  NAG B   6      53.789  76.539  27.6340  0.00  0.00     0.000 C
ATOM     83  C5  NAG B   6      53.476  75.235  28.3590  0.00  0.00     0.000 C
ATOM     84  O5  NAG B   6      52.384  74.614  27.6800  0.00  0.00     0.000 O
BRANCH 80 87
ATOM     85   N  NAG B   6      53.409  74.901  24.1690  0.00  0.00     0.000 N
ATOM     87  HD  NAG B   6      53.149  74.589  23.4040  0.00  0.00     0.000 HD
ATOM     87   C  NAG B   6      53.092  75.527  23.0280  0.00  0.00     0.000 C
ATOM     88   C  NAG B   6      53.542  74.852  21.7710  0.00  0.00     0.000 C
ATOM     89   O  NAG B   6      52.486  76.591  22.9960  0.00  0.00     0.000 OA
ENDBRANCH 80 87
ATOM     90   O  NAG B   6      54.143  74.874  30.6550  0.00  0.00     0.000 O
ATOM     92  HD  NAG B   6      53.986  74.504  29.8880  0.00  0.00     0.000 HD
ATOM     92   O  NAG B   6      54.143  74.874  30.6550  0.00  0.00     0.000 O
ATOM     94  HD  NAG B   6      53.986  74.504  29.8880  0.00  0.00     0.000 HD
ENDBRANCH 78 81
ENDBRANCH 65 78
ENDBRANCH 64 68
ENDBRANCH 48 64
ENDBRANCH 47 50
ENDBRANCH 34 47
ENDBRANCH 33 37
ENDBRANCH 17 33
ENDBRANCH 16 19
ENDBRANCH 1 16
TORSDOF 16
ENDMDL
MODEL 90
REMARK VINA RESULT:      -0.8     53.667     58.484
ROOT
ATOM      1  C1  BDP B   1      15.073  52.387  54.0520  0.00  0.00     0.000 C
ATOM      2  C2  BDP B   1      14.633  51.796  52.7250  0.00  0.00     0.000 C
ATOM      3  C3  BDP B   1      13.316  52.374  52.2520  0.00  0.00     0.000 C
ATOM      4  C4  BDP B   1      12.894  53.641  52.9860  0.00  0.00     0.000 C
ATOM      5  C5  BDP B   1      13.035  53.521  54.5010  0.00  0.00     0.000 C
ATOM      6  O5  BDP B   1      13.920  52.453  54.8790  0.00  0.00     0.000 O
ATOM      7   O  BDP B   1      15.641  52.022  51.7330  0.00  0.00     0.000 O
ATOM      9  HD  BDP B   1      16.470  52.034  51.4820  0.00  0.00     0.000 HD
ATOM      9   O  BDP B   1      12.269  51.405  52.4170  0.00  0.00     0.000 O
ATOM     11  HD  BDP B   1      13.097  51.417  52.1650  0.00  0.00     0.000 HD
ATOM     11   O  BDP B   1      13.650  54.765  52.5180  0.00  0.00     0.000 O
ATOM     13  HD  BDP B   1      14.478  54.777  52.2660  0.00  0.00     0.000 HD
ENDROOT
BRANCH 5 13
ATOM     13   C  BDP B   1      11.676  53.265  55.0510  0.00  0.00     0.000 C
ATOM     14   O  BDP B   1      10.705  53.305  54.2660  0.00  0.00     0.000 OA
ATOM     15   O  BDP B   1      11.552  52.995  56.2650  0.00  0.00     0.000 OA
ENDBRANCH 5 13
BRANCH 1 16
ATOM     16  O3  NAG B   2      16.259  53.096  54.4040  0.00  0.00     0.000 O
BRANCH 16 19
ATOM     17  C1  NAG B   2      18.532  55.415  52.7560  0.00  0.00     0.000 C
ATOM     18  C2  NAG B   2      17.110  54.968  53.0960  0.00  0.00     0.000 C
ATOM     19  C3  NAG B   2      17.078  54.266  54.4460  0.00  0.00     0.000 C
ATOM     20  C4  NAG B   2      18.484  53.896  54.9260  0.00  0.00     0.000 C
ATOM     21  C5  NAG B   2      19.463  53.483  53.8180  0.00  0.00     0.000 C
ATOM     22  O5  NAG B   2      19.276  54.205  52.5950  0.00  0.00     0.000 O
ATOM     23   O  NAG B   2      19.020  55.002  55.6590  0.00  0.00     0.000 O
ATOM     25  HD  NAG B   2      18.711  55.602  55.1170  0.00  0.00     0.000 HD
ATOM     25   C  NAG B   2      19.344  51.981  53.5230  0.00  0.00     0.000 C
ATOM     26   O  NAG B   2      20.149  51.199  54.4160  0.00  0.00     0.000 O
ATOM     28  HD  NAG B   2      19.840  51.799  53.8740  0.00  0.00     0.000 HD
BRANCH 18 30
ATOM     28   N  NAG B   2      17.271  56.410  53.2840  0.00  0.00     0.000 N
ATOM     30  HD  NAG B   2      17.652  56.993  53.7980  0.00  0.00     0.000 HD
ATOM     30   C  NAG B   2      16.297  57.249  53.6620  0.00  0.00     0.000 C
ATOM     31   C  NAG B   2      16.711  58.689  53.7740  0.00  0.00     0.000 C
ATOM     32   O  NAG B   2      15.168  56.892  53.9060  0.00  0.00     0.000 OA
ENDBRANCH 18 30
BRANCH 17 33
ATOM     33  O4  BDP B   3      19.558  55.802  51.8170  0.00  0.00     0.000 O
BRANCH 33 37
ATOM     34  C1  BDP B   3      21.863  59.365  51.3300  0.00  0.00     0.000 C
ATOM     35  C2  BDP B   3      20.801  59.073  50.2770  0.00  0.00     0.000 C
ATOM     36  C3  BDP B   3      19.761  58.053  50.7250  0.00  0.00     0.000 C
ATOM     37  C4  BDP B   3      20.466  56.858  51.3850  0.00  0.00     0.000 C
ATOM     38  C5  BDP B   3      21.322  57.413  52.5400  0.00  0.00     0.000 C
ATOM     39  O5  BDP B   3      22.368  58.161  51.9200  0.00  0.00     0.000 O
ATOM     40   O  BDP B   3      20.215  60.332  49.9400  0.00  0.00     0.000 O
ATOM     42  HD  BDP B   3      20.934  60.362  49.4580  0.00  0.00     0.000 HD
ATOM     42   O  BDP B   3      19.038  57.664  49.5580  0.00  0.00     0.000 O
ATOM     44  HD  BDP B   3      19.757  57.695  49.0760  0.00  0.00     0.000 HD
BRANCH 38 44
ATOM     44   C  BDP B   3      21.909  56.365  53.4330  0.00  0.00     0.000 C
ATOM     45   O  BDP B   3      22.781  55.608  52.9530  0.00  0.00     0.000 OA
ATOM     46   O  BDP B   3      21.520  56.275  54.6180  0.00  0.00     0.000 OA
ENDBRANCH 38 44
BRANCH 34 47
ATOM     47  O3  NAG B   4      23.153  59.550  50.7500  0.00  0.00     0.000 O
BRANCH 47 50
ATOM     48  C1  NAG B   4      25.254  62.416  51.9840  0.00  0.00     0.000 C
ATOM     49  C2  NAG B   4      24.100  61.731  51.2730  0.00  0.00     0.000 C
ATOM     50  C3  NAG B   4      24.203  60.224  51.4750  0.00  0.00     0.000 C
ATOM     51  C4  NAG B   4      25.554  59.690  51.0250  0.00  0.00     0.000 C
ATOM     52  C5  NAG B   4      26.675  60.462  51.7200  0.00  0.00     0.000 C
ATOM     53  O5  NAG B   4      26.507  61.872  51.5240  0.00  0.00     0.000 O
ATOM     54   O  NAG B   4      25.631  58.297  51.3380  0.00  0.00     0.000 O
ATOM     56  HD  NAG B   4      26.253  58.551  50.7920  0.00  0.00     0.000 HD
ATOM     56   C  NAG B   4      28.044  60.039  51.2000  0.00  0.00     0.000 C
ATOM     57   O  NAG B   4      28.110  60.298  49.7920  0.00  0.00     0.000 O
ATOM     59  HD  NAG B   4      28.732  60.553  49.2460  0.00  0.00     0.000 HD
BRANCH 49 61
ATOM     59   N  NAG B   4      23.029  62.624  51.7160  0.00  0.00     0.000 N
ATOM     61  HD  NAG B   4      23.567  62.539  51.0430  0.00  0.00     0.000 HD
ATOM     61   O  NAG B   4      22.004  62.835  49.7150  0.00  0.00     0.000 OA
ATOM     62   C  NAG B   4      22.037  63.038  50.9200  0.00  0.00     0.000 C
ATOM     63   C  NAG B   4      20.922  63.768  51.6000  0.00  0.00     0.000 C
ENDBRANCH 49 61
BRANCH 48 64
ATOM     64  O4  BDP B   5      25.399  63.700  52.5830  0.00  0.00     0.000 O
BRANCH 64 68
ATOM     65  C1  BDP B   5      25.964  66.956  55.1220  0.00  0.00     0.000 C
ATOM     66  C2  BDP B   5      27.219  66.395  54.4680  0.00  0.00     0.000 C
ATOM     67  C3  BDP B   5      26.833  65.530  53.2760  0.00  0.00     0.000 C
ATOM     68  C4  BDP B   5      25.867  64.435  53.7130  0.00  0.00     0.000 C
ATOM     69  C5  BDP B   5      24.663  64.995  54.4600  0.00  0.00     0.000 C
ATOM     70  O5  BDP B   5      25.087  65.885  55.5070  0.00  0.00     0.000 O
ATOM     71   O  BDP B   5      28.085  67.474  54.0830  0.00  0.00     0.000 O
ATOM     73  HD  BDP B   5      28.559  68.161  53.8530  0.00  0.00     0.000 HD
ATOM     73   O  BDP B   5      27.995  64.930  52.6920  0.00  0.00     0.000 O
ATOM     75  HD  BDP B   5      28.469  65.617  52.4630  0.00  0.00     0.000 HD
BRANCH 69 75
ATOM     75   C  BDP B   5      23.899  63.841  55.0590  0.00  0.00     0.000 C
ATOM     76   O  BDP B   5      24.429  63.184  55.9780  0.00  0.00     0.000 OA
ATOM     77   O  BDP B   5      22.762  63.580  54.6250  0.00  0.00     0.000 OA
ENDBRANCH 69 75
BRANCH 65 78
ATOM     78  O3  NAG B   6      25.801  67.283  56.5050  0.00  0.00     0.000 O
BRANCH 78 81
ATOM     79  C1  NAG B   6      24.712  70.356  58.4290  0.00  0.00     0.000 C
ATOM     80  C2  NAG B   6      25.629  69.464  57.5780  0.00  0.00     0.000 C
ATOM     81  C3  NAG B   6      24.900  68.193  57.1730  0.00  0.00     0.000 C
ATOM     82  C4  NAG B   6      24.275  67.510  58.3940  0.00  0.00     0.000 C
ATOM     83  C5  NAG B   6      23.385  68.504  59.1310  0.00  0.00     0.000 C
ATOM     84  O5  NAG B   6      24.207  69.597  59.5420  0.00  0.00     0.000 O
BRANCH 80 87
ATOM     85   N  NAG B   6      26.113  70.309  56.4900  0.00  0.00     0.000 N
ATOM     87  HD  NAG B   6      26.645  70.930  56.2040  0.00  0.00     0.000 HD
ATOM     87   C  NAG B   6      27.349  70.239  55.9800  0.00  0.00     0.000 C
ATOM     88   C  NAG B   6      27.636  71.168  54.8440  0.00  0.00     0.000 C
ATOM     89   O  NAG B   6      28.200  69.460  56.3950  0.00  0.00     0.000 OA
ENDBRANCH 80 87
ATOM     90   O  NAG B   6      21.280  67.830  60.1120  0.00  0.00     0.000 O
ATOM     92  HD  NAG B   6      21.726  68.476  59.7450  0.00  0.00     0.000 HD
ATOM     92   O  NAG B   6      21.280  67.830  60.1120  0.00  0.00     0.000 O
ATOM     94  HD  NAG B   6      21.726  68.476  59.7450  0.00  0.00     0.000 HD
ENDBRANCH 78 81
ENDBRANCH 65 78
ENDBRANCH 64 68
ENDBRANCH 48 64
ENDBRANCH 47 50
ENDBRANCH 34 47
ENDBRANCH 33 37
ENDBRANCH 17 33
ENDBRANCH 16 19
ENDBRANCH 1 16
TORSDOF 16
ENDMDL
MODEL 91
REMARK VINA RESULT:      -0.8     59.168     65.592
ROOT
ATOM      1  C1  BDP B   1      85.493  30.379  36.3060  0.00  0.00     0.000 C
ATOM      2  C2  BDP B   1      85.328  30.196  37.8050  0.00  0.00     0.000 C
ATOM      3  C3  BDP B   1      84.556  31.335  38.4360  0.00  0.00     0.000 C
ATOM      4  C4  BDP B   1      83.815  32.215  37.4350  0.00  0.00     0.000 C
ATOM      5  C5  BDP B   1      84.681  32.610  36.2420  0.00  0.00     0.000 C
ATOM      6  O5  BDP B   1      85.819  31.744  36.0880  0.00  0.00     0.000 O
ATOM      7   O  BDP B   1      84.663  28.957  38.0740  0.00  0.00     0.000 O
ATOM      9  HD  BDP B   1      84.549  28.110  37.9330  0.00  0.00     0.000 HD
ATOM      9   O  BDP B   1      85.449  32.179  39.1810  0.00  0.00     0.000 O
ATOM     11  HD  BDP B   1      85.335  31.332  39.0400  0.00  0.00     0.000 HD
ATOM     11   O  BDP B   1      82.629  31.557  36.9740  0.00  0.00     0.000 O
ATOM     13  HD  BDP B   1      82.515  30.710  36.8330  0.00  0.00     0.000 HD
ENDROOT
BRANCH 5 13
ATOM     13   C  BDP B   1      85.141  34.006  36.4750  0.00  0.00     0.000 C
ATOM     14   O  BDP B   1      86.218  34.178  37.0830  0.00  0.00     0.000 OA
ATOM     15   O  BDP B   1      84.455  34.954  36.0360  0.00  0.00     0.000 OA
ENDBRANCH 5 13
BRANCH 1 16
ATOM     16  O3  NAG B   2      85.087  29.547  35.2210  0.00  0.00     0.000 O
BRANCH 16 19
ATOM     17  C1  NAG B   2      82.289  30.076  32.9520  0.00  0.00     0.000 C
ATOM     18  C2  NAG B   2      83.635  30.522  33.5240  0.00  0.00     0.000 C
ATOM     19  C3  NAG B   2      84.457  29.318  33.9600  0.00  0.00     0.000 C
ATOM     20  C4  NAG B   2      83.606  28.046  34.0310  0.00  0.00     0.000 C
ATOM     21  C5  NAG B   2      82.160  28.256  34.5010  0.00  0.00     0.000 C
ATOM     22  O5  NAG B   2      81.589  29.491  34.0530  0.00  0.00     0.000 O
ATOM     23   O  NAG B   2      83.613  27.422  32.7440  0.00  0.00     0.000 O
ATOM     25  HD  NAG B   2      83.543  28.165  32.3050  0.00  0.00     0.000 HD
ATOM     25   C  NAG B   2      82.075  28.204  36.0330  0.00  0.00     0.000 C
ATOM     26   O  NAG B   2      81.952  26.857  36.5130  0.00  0.00     0.000 O
ATOM     28  HD  NAG B   2      81.882  27.601  36.0740  0.00  0.00     0.000 HD
BRANCH 18 30
ATOM     28   N  NAG B   2      84.049  31.443  32.4670  0.00  0.00     0.000 N
ATOM     30  HD  NAG B   2      83.733  31.978  31.8640  0.00  0.00     0.000 HD
ATOM     30   C  NAG B   2      84.634  31.079  31.3170  0.00  0.00     0.000 C
ATOM     31   C  NAG B   2      84.975  32.215  30.3950  0.00  0.00     0.000 C
ATOM     32   O  NAG B   2      84.869  29.930  31.0240  0.00  0.00     0.000 OA
ENDBRANCH 18 30
BRANCH 17 33
ATOM     33  O4  BDP B   3      80.907  30.313  32.6050  0.00  0.00     0.000 O
BRANCH 33 37
ATOM     34  C1  BDP B   3      77.685  33.038  31.9490  0.00  0.00     0.000 C
ATOM     35  C2  BDP B   3      77.650  31.721  31.1830  0.00  0.00     0.000 C
ATOM     36  C3  BDP B   3      78.566  30.651  31.7660  0.00  0.00     0.000 C
ATOM     37  C4  BDP B   3      79.940  31.266  32.0770  0.00  0.00     0.000 C
ATOM     38  C5  BDP B   3      79.703  32.458  33.0240  0.00  0.00     0.000 C
ATOM     39  O5  BDP B   3      79.027  33.443  32.2440  0.00  0.00     0.000 O
ATOM     40   O  BDP B   3      76.283  31.308  31.1590  0.00  0.00     0.000 O
ATOM     42  HD  BDP B   3      76.281  31.885  30.5140  0.00  0.00     0.000 HD
ATOM     42   O  BDP B   3      78.658  29.614  30.7910  0.00  0.00     0.000 O
ATOM     44  HD  BDP B   3      78.656  30.191  30.1450  0.00  0.00     0.000 HD
BRANCH 38 44
ATOM     44   C  BDP B   3      80.952  33.043  33.6070  0.00  0.00     0.000 C
ATOM     45   O  BDP B   3      81.121  32.951  34.8430  0.00  0.00     0.000 OA
ATOM     46   O  BDP B   3      81.782  33.600  32.8560  0.00  0.00     0.000 OA
ENDBRANCH 38 44
BRANCH 34 47
ATOM     47  O3  NAG B   4      77.600  34.165  31.0790  0.00  0.00     0.000 O
BRANCH 47 50
ATOM     48  C1  NAG B   4      75.334  37.021  32.0050  0.00  0.00     0.000 C
ATOM     49  C2  NAG B   4      75.706  35.623  31.5410  0.00  0.00     0.000 C
ATOM     50  C3  NAG B   4      77.221  35.463  31.5800  0.00  0.00     0.000 C
ATOM     51  C4  NAG B   4      77.919  36.543  30.7690  0.00  0.00     0.000 C
ATOM     52  C5  NAG B   4      77.453  37.924  31.2330  0.00  0.00     0.000 C
ATOM     53  O5  NAG B   4      76.022  38.003  31.2060  0.00  0.00     0.000 O
ATOM     54   O  NAG B   4      79.333  36.407  30.9310  0.00  0.00     0.000 O
ATOM     56  HD  NAG B   4      79.122  36.930  30.2730  0.00  0.00     0.000 HD
ATOM     56   C  NAG B   4      78.037  39.028  30.3590  0.00  0.00     0.000 C
ATOM     57   O  NAG B   4      77.609  38.828  29.0050  0.00  0.00     0.000 O
ATOM     59  HD  NAG B   4      77.398  39.350  28.3470  0.00  0.00     0.000 HD
BRANCH 49 61
ATOM     59   N  NAG B   4      74.802  34.794  32.3380  0.00  0.00     0.000 N
ATOM     61  HD  NAG B   4      74.810  35.193  31.5700  0.00  0.00     0.000 HD
ATOM     61   O  NAG B   4      74.057  33.497  30.6450  0.00  0.00     0.000 OA
ATOM     62   C  NAG B   4      74.114  33.760  31.8370  0.00  0.00     0.000 C
ATOM     63   C  NAG B   4      73.413  32.902  32.8420  0.00  0.00     0.000 C
ENDBRANCH 49 61
BRANCH 48 64
ATOM     64  O4  BDP B   5      74.185  37.551  32.6580  0.00  0.00     0.000 O
BRANCH 64 68
ATOM     65  C1  BDP B   5      70.214  37.037  31.5000  0.00  0.00     0.000 C
ATOM     66  C2  BDP B   5      70.889  38.314  31.0190  0.00  0.00     0.000 C
ATOM     67  C3  BDP B   5      72.401  38.170  31.1350  0.00  0.00     0.000 C
ATOM     68  C4  BDP B   5      72.785  37.814  32.5670  0.00  0.00     0.000 C
ATOM     69  C5  BDP B   5      72.028  36.596  33.0800  0.00  0.00     0.000 C
ATOM     70  O5  BDP B   5      70.616  36.744  32.8480  0.00  0.00     0.000 O
ATOM     71   O  BDP B   5      70.486  38.593  29.6690  0.00  0.00     0.000 O
ATOM     73  HD  BDP B   5      70.226  38.704  28.8510  0.00  0.00     0.000 HD
ATOM     73   O  BDP B   5      73.053  39.389  30.7600  0.00  0.00     0.000 O
ATOM     75  HD  BDP B   5      72.794  39.500  29.9420  0.00  0.00     0.000 HD
BRANCH 69 75
ATOM     75   C  BDP B   5      72.284  36.468  34.5600  0.00  0.00     0.000 C
ATOM     76   O  BDP B   5      71.689  37.238  35.3410  0.00  0.00     0.000 OA
ATOM     77   O  BDP B   5      73.077  35.596  34.9610  0.00  0.00     0.000 OA
ENDBRANCH 69 75
BRANCH 65 78
ATOM     78  O3  NAG B   6      68.922  36.936  32.1040  0.00  0.00     0.000 O
BRANCH 78 81
ATOM     79  C1  NAG B   6      65.803  34.899  31.4280  0.00  0.00     0.000 C
ATOM     80  C2  NAG B   6      66.865  35.987  31.2050  0.00  0.00     0.000 C
ATOM     81  C3  NAG B   6      67.998  35.830  32.2070  0.00  0.00     0.000 C
ATOM     82  C4  NAG B   6      67.453  35.735  33.6360  0.00  0.00     0.000 C
ATOM     83  C5  NAG B   6      66.425  34.612  33.7120  0.00  0.00     0.000 C
ATOM     84  O5  NAG B   6      65.372  34.928  32.8010  0.00  0.00     0.000 O
BRANCH 80 87
ATOM     85   N  NAG B   6      67.235  35.906  29.7950  0.00  0.00     0.000 N
ATOM     87  HD  NAG B   6      67.056  36.071  28.9640  0.00  0.00     0.000 HD
ATOM     87   C  NAG B   6      67.518  36.969  29.0320  0.00  0.00     0.000 C
ATOM     88   C  NAG B   6      67.908  36.669  27.6200  0.00  0.00     0.000 C
ATOM     89   O  NAG B   6      67.480  38.120  29.4500  0.00  0.00     0.000 OA
ENDBRANCH 80 87
ATOM     90   O  NAG B   6      66.280  33.159  35.6390  0.00  0.00     0.000 O
ATOM     92  HD  NAG B   6      66.165  33.228  34.7840  0.00  0.00     0.000 HD
ATOM     92   O  NAG B   6      66.280  33.159  35.6390  0.00  0.00     0.000 O
ATOM     94  HD  NAG B   6      66.165  33.228  34.7840  0.00  0.00     0.000 HD
ENDBRANCH 78 81
ENDBRANCH 65 78
ENDBRANCH 64 68
ENDBRANCH 48 64
ENDBRANCH 47 50
ENDBRANCH 34 47
ENDBRANCH 33 37
ENDBRANCH 17 33
ENDBRANCH 16 19
ENDBRANCH 1 16
TORSDOF 16
ENDMDL
MODEL 92
REMARK VINA RESULT:      -0.8     56.197     61.340
ROOT
ATOM      1  C1  BDP B   1      40.717  31.139  67.4310  0.00  0.00     0.000 C
ATOM      2  C2  BDP B   1      41.999  31.859  67.0550  0.00  0.00     0.000 C
ATOM      3  C3  BDP B   1      41.733  33.233  66.4770  0.00  0.00     0.000 C
ATOM      4  C4  BDP B   1      40.316  33.743  66.7150  0.00  0.00     0.000 C
ATOM      5  C5  BDP B   1      39.251  32.697  66.4000  0.00  0.00     0.000 C
ATOM      6  O5  BDP B   1      39.790  31.365  66.3790  0.00  0.00     0.000 O
ATOM      7   O  BDP B   1      42.847  31.977  68.2030  0.00  0.00     0.000 O
ATOM      9  HD  BDP B   1      43.213  31.645  68.9140  0.00  0.00     0.000 HD
ATOM      9   O  BDP B   1      41.959  33.220  65.0580  0.00  0.00     0.000 O
ATOM     11  HD  BDP B   1      42.326  32.888  65.7690  0.00  0.00     0.000 HD
ATOM     11   O  BDP B   1      40.168  34.193  68.0670  0.00  0.00     0.000 O
ATOM     13  HD  BDP B   1      40.535  33.861  68.7780  0.00  0.00     0.000 HD
ENDROOT
BRANCH 5 13
ATOM     13   C  BDP B   1      38.686  33.032  65.0650  0.00  0.00     0.000 C
ATOM     14   O  BDP B   1      37.705  33.803  65.0160  0.00  0.00     0.000 OA
ATOM     15   O  BDP B   1      39.222  32.557  64.0410  0.00  0.00     0.000 OA
ENDBRANCH 5 13
BRANCH 1 16
ATOM     16  O3  NAG B   2      40.278  30.622  68.6850  0.00  0.00     0.000 O
BRANCH 16 19
ATOM     17  C1  NAG B   2      40.633  31.488  72.2040  0.00  0.00     0.000 C
ATOM     18  C2  NAG B   2      40.355  31.900  70.7580  0.00  0.00     0.000 C
ATOM     19  C3  NAG B   2      39.711  30.755  69.9900  0.00  0.00     0.000 C
ATOM     20  C4  NAG B   2      39.831  29.428  70.7440  0.00  0.00     0.000 C
ATOM     21  C5  NAG B   2      41.132  29.245  71.5370  0.00  0.00     0.000 C
ATOM     22  O5  NAG B   2      41.622  30.460  72.1160  0.00  0.00     0.000 O
ATOM     23   O  NAG B   2      38.707  29.300  71.6200  0.00  0.00     0.000 O
ATOM     25  HD  NAG B   2      38.714  30.131  71.8650  0.00  0.00     0.000 HD
ATOM     25   C  NAG B   2      42.231  28.650  70.6440  0.00  0.00     0.000 C
ATOM     26   O  NAG B   2      42.155  27.218  70.5900  0.00  0.00     0.000 O
ATOM     28  HD  NAG B   2      42.162  28.049  70.8350  0.00  0.00     0.000 HD
BRANCH 18 30
ATOM     28   N  NAG B   2      39.415  32.537  71.6800  0.00  0.00     0.000 N
ATOM     30  HD  NAG B   2      38.768  32.358  72.2280  0.00  0.00     0.000 HD
ATOM     30   C  NAG B   2      38.401  33.333  71.3150  0.00  0.00     0.000 C
ATOM     31   C  NAG B   2      37.582  33.875  72.4520  0.00  0.00     0.000 C
ATOM     32   O  NAG B   2      38.145  33.601  70.1640  0.00  0.00     0.000 OA
ENDBRANCH 18 30
BRANCH 17 33
ATOM     33  O4  BDP B   3      41.337  31.624  73.4570  0.00  0.00     0.000 O
BRANCH 33 37
ATOM     34  C1  BDP B   3      42.641  33.809  76.8880  0.00  0.00     0.000 C
ATOM     35  C2  BDP B   3      42.066  32.418  77.1250  0.00  0.00     0.000 C
ATOM     36  C3  BDP B   3      42.023  31.553  75.8700  0.00  0.00     0.000 C
ATOM     37  C4  BDP B   3      41.457  32.374  74.7020  0.00  0.00     0.000 C
ATOM     38  C5  BDP B   3      42.340  33.629  74.5550  0.00  0.00     0.000 C
ATOM     39  O5  BDP B   3      42.085  34.418  75.7170  0.00  0.00     0.000 O
ATOM     40   O  BDP B   3      42.856  31.830  78.1600  0.00  0.00     0.000 O
ATOM     42  HD  BDP B   3      42.323  32.321  78.6330  0.00  0.00     0.000 HD
ATOM     42   O  BDP B   3      41.200  30.428  76.1760  0.00  0.00     0.000 O
ATOM     44  HD  BDP B   3      40.666  30.920  76.6490  0.00  0.00     0.000 HD
BRANCH 38 44
ATOM     44   C  BDP B   3      42.068  34.436  73.3240  0.00  0.00     0.000 C
ATOM     45   O  BDP B   3      40.930  34.937  73.1920  0.00  0.00     0.000 OA
ATOM     46   O  BDP B   3      42.970  34.586  72.4710  0.00  0.00     0.000 OA
ENDBRANCH 38 44
BRANCH 34 47
ATOM     47  O3  NAG B   4      41.962  34.804  77.6530  0.00  0.00     0.000 O
BRANCH 47 50
ATOM     48  C1  NAG B   4      43.987  37.430  79.4290  0.00  0.00     0.000 C
ATOM     49  C2  NAG B   4      43.421  36.048  79.1540  0.00  0.00     0.000 C
ATOM     50  C3  NAG B   4      42.564  36.093  77.8940  0.00  0.00     0.000 C
ATOM     51  C4  NAG B   4      41.476  37.150  77.9950  0.00  0.00     0.000 C
ATOM     52  C5  NAG B   4      42.097  38.503  78.3420  0.00  0.00     0.000 C
ATOM     53  O5  NAG B   4      42.916  38.391  79.5130  0.00  0.00     0.000 O
ATOM     54   O  NAG B   4      40.777  37.219  76.7490  0.00  0.00     0.000 O
ATOM     56  HD  NAG B   4      40.360  37.627  77.3890  0.00  0.00     0.000 HD
ATOM     56   C  NAG B   4      41.025  39.561  78.5740  0.00  0.00     0.000 C
ATOM     57   O  NAG B   4      40.186  39.147  79.6610  0.00  0.00     0.000 O
ATOM     59  HD  NAG B   4      39.769  39.555  80.3010  0.00  0.00     0.000 HD
BRANCH 49 61
ATOM     59   N  NAG B   4      44.615  35.209  79.2700  0.00  0.00     0.000 N
ATOM     61  HD  NAG B   4      43.981  35.511  79.7770  0.00  0.00     0.000 HD
ATOM     61   O  NAG B   4      43.711  33.634  80.6120  0.00  0.00     0.000 OA
ATOM     62   C  NAG B   4      44.636  34.043  79.9260  0.00  0.00     0.000 C
ATOM     63   C  NAG B   4      45.878  33.227  79.7560  0.00  0.00     0.000 C
ENDBRANCH 49 61
BRANCH 48 64
ATOM     64  O4  BDP B   5      45.181  37.881  80.0620  0.00  0.00     0.000 O
BRANCH 64 68
ATOM     65  C1  BDP B   5      46.592  36.719  83.8070  0.00  0.00     0.000 C
ATOM     66  C2  BDP B   5      45.780  38.006  83.7710  0.00  0.00     0.000 C
ATOM     67  C3  BDP B   5      44.987  38.075  82.4720  0.00  0.00     0.000 C
ATOM     68  C4  BDP B   5      45.925  37.947  81.2770  0.00  0.00     0.000 C
ATOM     69  C5  BDP B   5      46.811  36.711  81.3720  0.00  0.00     0.000 C
ATOM     70  O5  BDP B   5      47.451  36.645  82.6580  0.00  0.00     0.000 O
ATOM     71   O  BDP B   5      44.921  38.067  84.9200  0.00  0.00     0.000 O
ATOM     73  HD  BDP B   5      44.410  38.044  85.6190  0.00  0.00     0.000 HD
ATOM     73   O  BDP B   5      44.275  39.315  82.3820  0.00  0.00     0.000 O
ATOM     75  HD  BDP B   5      43.764  39.292  83.0810  0.00  0.00     0.000 HD
BRANCH 69 75
ATOM     75   C  BDP B   5      47.859  36.795  80.2920  0.00  0.00     0.000 C
ATOM     76   O  BDP B   5      48.824  37.568  80.4520  0.00  0.00     0.000 OA
ATOM     77   O  BDP B   5      47.734  36.088  79.2740  0.00  0.00     0.000 OA
ENDBRANCH 69 75
BRANCH 65 78
ATOM     78  O3  NAG B   6      47.843  36.523  84.4720  0.00  0.00     0.000 O
BRANCH 78 81
ATOM     79  C1  NAG B   6      49.175  34.031  86.9930  0.00  0.00     0.000 C
ATOM     80  C2  NAG B   6      48.346  35.213  86.4650  0.00  0.00     0.000 C
ATOM     81  C3  NAG B   6      48.492  35.327  84.9560  0.00  0.00     0.000 C
ATOM     82  C4  NAG B   6      49.970  35.333  84.5500  0.00  0.00     0.000 C
ATOM     83  C5  NAG B   6      50.660  34.103  85.1290  0.00  0.00     0.000 C
ATOM     84  O5  NAG B   6      50.537  34.168  86.5500  0.00  0.00     0.000 O
BRANCH 80 87
ATOM     85   N  NAG B   6      46.991  35.013  86.9690  0.00  0.00     0.000 N
ATOM     87  HD  NAG B   6      46.421  35.053  87.6200  0.00  0.00     0.000 HD
ATOM     87   C  NAG B   6      46.186  36.005  87.3700  0.00  0.00     0.000 C
ATOM     88   C  NAG B   6      44.821  35.591  87.8200  0.00  0.00     0.000 C
ATOM     89   O  NAG B   6      46.522  37.183  87.3620  0.00  0.00     0.000 OA
ENDBRANCH 80 87
ATOM     90   O  NAG B   6      52.332  32.885  83.8780  0.00  0.00     0.000 O
ATOM     92  HD  NAG B   6      51.707  32.835  84.4750  0.00  0.00     0.000 HD
ATOM     92   O  NAG B   6      52.332  32.885  83.8780  0.00  0.00     0.000 O
ATOM     94  HD  NAG B   6      51.707  32.835  84.4750  0.00  0.00     0.000 HD
ENDBRANCH 78 81
ENDBRANCH 65 78
ENDBRANCH 64 68
ENDBRANCH 48 64
ENDBRANCH 47 50
ENDBRANCH 34 47
ENDBRANCH 33 37
ENDBRANCH 17 33
ENDBRANCH 16 19
ENDBRANCH 1 16
TORSDOF 16
ENDMDL
MODEL 93
REMARK VINA RESULT:      -0.8     48.812     54.214
ROOT
ATOM      1  C1  BDP B   1      28.421  50.521  34.5760  0.00  0.00     0.000 C
ATOM      2  C2  BDP B   1      28.424  50.819  33.0870  0.00  0.00     0.000 C
ATOM      3  C3  BDP B   1      27.057  51.231  32.5860  0.00  0.00     0.000 C
ATOM      4  C4  BDP B   1      26.075  51.602  33.6920  0.00  0.00     0.000 C
ATOM      5  C5  BDP B   1      26.062  50.590  34.8330  0.00  0.00     0.000 C
ATOM      6  O5  BDP B   1      27.245  49.773  34.8460  0.00  0.00     0.000 O
ATOM      7   O  BDP B   1      29.373  51.852  32.7990  0.00  0.00     0.000 O
ATOM      9  HD  BDP B   1      30.153  52.216  32.8990  0.00  0.00     0.000 HD
ATOM      9   O  BDP B   1      26.472  50.164  31.8230  0.00  0.00     0.000 O
ATOM     11  HD  BDP B   1      27.251  50.528  31.9230  0.00  0.00     0.000 HD
ATOM     11   O  BDP B   1      26.371  52.906  34.2060  0.00  0.00     0.000 O
ATOM     13  HD  BDP B   1      27.150  53.271  34.3050  0.00  0.00     0.000 HD
ENDROOT
BRANCH 5 13
ATOM     13   C  BDP B   1      24.861  49.731  34.6460  0.00  0.00     0.000 C
ATOM     14   O  BDP B   1      24.979  48.693  33.9620  0.00  0.00     0.000 OA
ATOM     15   O  BDP B   1      23.787  50.058  35.1960  0.00  0.00     0.000 OA
ENDBRANCH 5 13
BRANCH 1 16
ATOM     16  O3  NAG B   2      29.172  51.103  35.6390  0.00  0.00     0.000 O
BRANCH 16 19
ATOM     17  C1  NAG B   2      30.543  54.374  36.4620  0.00  0.00     0.000 C
ATOM     18  C2  NAG B   2      29.386  53.509  35.9610  0.00  0.00     0.000 C
ATOM     19  C3  NAG B   2      29.435  52.128  36.5990  0.00  0.00     0.000 C
ATOM     20  C4  NAG B   2      30.782  51.865  37.2790  0.00  0.00     0.000 C
ATOM     21  C5  NAG B   2      31.999  52.479  36.5730  0.00  0.00     0.000 C
ATOM     22  O5  NAG B   2      31.725  53.745  35.9630  0.00  0.00     0.000 O
ATOM     23   O  NAG B   2      30.712  52.342  38.6260  0.00  0.00     0.000 O
ATOM     25  HD  NAG B   2      30.273  53.061  38.4230  0.00  0.00     0.000 HD
ATOM     25   C  NAG B   2      32.539  51.524  35.4980  0.00  0.00     0.000 C
ATOM     26   O  NAG B   2      33.446  50.560  36.0520  0.00  0.00     0.000 O
ATOM     28  HD  NAG B   2      33.007  51.278  35.8480  0.00  0.00     0.000 HD
BRANCH 18 30
ATOM     28   N  NAG B   2      28.917  54.529  36.8990  0.00  0.00     0.000 N
ATOM     30  HD  NAG B   2      28.970  54.770  37.7290  0.00  0.00     0.000 HD
ATOM     30   C  NAG B   2      27.651  54.661  37.3190  0.00  0.00     0.000 C
ATOM     31   C  NAG B   2      27.418  55.796  38.2760  0.00  0.00     0.000 C
ATOM     32   O  NAG B   2      26.753  53.929  36.9710  0.00  0.00     0.000 OA
ENDBRANCH 18 30
BRANCH 17 33
ATOM     33  O4  BDP B   3      31.456  55.485  36.3310  0.00  0.00     0.000 O
BRANCH 33 37
ATOM     34  C1  BDP B   3      32.395  59.625  35.8600  0.00  0.00     0.000 C
ATOM     35  C2  BDP B   3      33.152  58.857  36.9360  0.00  0.00     0.000 C
ATOM     36  C3  BDP B   3      33.085  57.343  36.7680  0.00  0.00     0.000 C
ATOM     37  C4  BDP B   3      31.637  56.925  36.4720  0.00  0.00     0.000 C
ATOM     38  C5  BDP B   3      31.182  57.704  35.2220  0.00  0.00     0.000 C
ATOM     39  O5  BDP B   3      31.095  59.069  35.6300  0.00  0.00     0.000 O
ATOM     40   O  BDP B   3      34.495  59.346  36.9060  0.00  0.00     0.000 O
ATOM     42  HD  BDP B   3      34.114  59.968  37.3720  0.00  0.00     0.000 HD
ATOM     42   O  BDP B   3      33.563  56.774  37.9860  0.00  0.00     0.000 O
ATOM     44  HD  BDP B   3      33.182  57.397  38.4520  0.00  0.00     0.000 HD
BRANCH 38 44
ATOM     44   C  BDP B   3      29.869  57.258  34.6590  0.00  0.00     0.000 C
ATOM     45   O  BDP B   3      28.856  57.362  35.3830  0.00  0.00     0.000 OA
ATOM     46   O  BDP B   3      29.820  56.798  33.4970  0.00  0.00     0.000 OA
ENDBRANCH 38 44
BRANCH 34 47
ATOM     47  O3  NAG B   4      31.742  60.779  36.3860  0.00  0.00     0.000 O
BRANCH 47 50
ATOM     48  C1  NAG B   4      31.999  63.991  34.4460  0.00  0.00     0.000 C
ATOM     49  C2  NAG B   4      32.478  62.829  35.3000  0.00  0.00     0.000 C
ATOM     50  C3  NAG B   4      31.326  61.856  35.5220  0.00  0.00     0.000 C
ATOM     51  C4  NAG B   4      30.114  62.550  36.1230  0.00  0.00     0.000 C
ATOM     52  C5  NAG B   4      29.723  63.750  35.2600  0.00  0.00     0.000 C
ATOM     53  O5  NAG B   4      30.852  64.610  35.0590  0.00  0.00     0.000 O
ATOM     54   O  NAG B   4      29.036  61.615  36.2070  0.00  0.00     0.000 O
ATOM     56  HD  NAG B   4      28.893  62.332  36.6720  0.00  0.00     0.000 HD
ATOM     56   C  NAG B   4      28.590  64.545  35.8990  0.00  0.00     0.000 C
ATOM     57   O  NAG B   4      29.017  65.019  37.1830  0.00  0.00     0.000 O
ATOM     59  HD  NAG B   4      28.874  65.736  37.6480  0.00  0.00     0.000 HD
BRANCH 49 61
ATOM     59   N  NAG B   4      33.748  62.599  34.6100  0.00  0.00     0.000 N
ATOM     61  HD  NAG B   4      33.451  63.036  35.2960  0.00  0.00     0.000 HD
ATOM     61   O  NAG B   4      35.019  62.341  36.4590  0.00  0.00     0.000 OA
ATOM     62   C  NAG B   4      34.888  62.303  35.2450  0.00  0.00     0.000 C
ATOM     63   C  NAG B   4      36.028  61.891  34.3680  0.00  0.00     0.000 C
ENDBRANCH 49 61
BRANCH 48 64
ATOM     64  O4  BDP B   5      32.658  64.849  33.5200  0.00  0.00     0.000 O
BRANCH 64 68
ATOM     65  C1  BDP B   5      33.976  66.986  30.1930  0.00  0.00     0.000 C
ATOM     66  C2  BDP B   5      32.858  67.631  30.9990  0.00  0.00     0.000 C
ATOM     67  C3  BDP B   5      32.781  66.985  32.3770  0.00  0.00     0.000 C
ATOM     68  C4  BDP B   5      32.602  65.477  32.2400  0.00  0.00     0.000 C
ATOM     69  C5  BDP B   5      33.665  64.852  31.3450  0.00  0.00     0.000 C
ATOM     70  O5  BDP B   5      33.764  65.568  30.1020  0.00  0.00     0.000 O
ATOM     71   O  BDP B   5      33.083  69.046  31.0890  0.00  0.00     0.000 O
ATOM     73  HD  BDP B   5      33.277  69.890  31.1290  0.00  0.00     0.000 HD
ATOM     73   O  BDP B   5      31.684  67.525  33.1250  0.00  0.00     0.000 O
ATOM     75  HD  BDP B   5      31.878  68.368  33.1650  0.00  0.00     0.000 HD
BRANCH 69 75
ATOM     75   C  BDP B   5      33.272  63.422  31.0730  0.00  0.00     0.000 C
ATOM     76   O  BDP B   5      33.976  62.507  31.5450  0.00  0.00     0.000 OA
ATOM     77   O  BDP B   5      32.257  63.195  30.3890  0.00  0.00     0.000 OA
ENDBRANCH 69 75
BRANCH 65 78
ATOM     78  O3  NAG B   6      34.023  66.841  28.7710  0.00  0.00     0.000 O
BRANCH 78 81
ATOM     79  C1  NAG B   6      36.491  67.772  26.0540  0.00  0.00     0.000 C
ATOM     80  C2  NAG B   6      35.419  67.987  27.1350  0.00  0.00     0.000 C
ATOM     81  C3  NAG B   6      35.134  66.683  27.8610  0.00  0.00     0.000 C
ATOM     82  C4  NAG B   6      34.837  65.557  26.8650  0.00  0.00     0.000 C
ATOM     83  C5  NAG B   6      35.984  65.450  25.8660  0.00  0.00     0.000 C
ATOM     84  O5  NAG B   6      36.082  66.702  25.1840  0.00  0.00     0.000 O
BRANCH 80 87
ATOM     85   N  NAG B   6      35.896  69.096  27.9580  0.00  0.00     0.000 N
ATOM     87  HD  NAG B   6      36.016  69.946  28.0720  0.00  0.00     0.000 HD
ATOM     87   C  NAG B   6      35.099  70.031  28.4900  0.00  0.00     0.000 C
ATOM     88   C  NAG B   6      35.781  71.062  29.3310  0.00  0.00     0.000 C
ATOM     89   O  NAG B   6      33.885  70.049  28.3220  0.00  0.00     0.000 OA
ENDBRANCH 80 87
ATOM     90   O  NAG B   6      36.771  63.307  25.0690  0.00  0.00     0.000 O
ATOM     92  HD  NAG B   6      36.985  64.126  25.2520  0.00  0.00     0.000 HD
ATOM     92   O  NAG B   6      36.771  63.307  25.0690  0.00  0.00     0.000 O
ATOM     94  HD  NAG B   6      36.985  64.126  25.2520  0.00  0.00     0.000 HD
ENDBRANCH 78 81
ENDBRANCH 65 78
ENDBRANCH 64 68
ENDBRANCH 48 64
ENDBRANCH 47 50
ENDBRANCH 34 47
ENDBRANCH 33 37
ENDBRANCH 17 33
ENDBRANCH 16 19
ENDBRANCH 1 16
TORSDOF 16
ENDMDL
MODEL 94
REMARK VINA RESULT:      -0.8     55.733     60.635
ROOT
ATOM      1  C1  BDP B   1      48.877  25.499  64.9990  0.00  0.00     0.000 C
ATOM      2  C2  BDP B   1      49.645  24.715  66.0480  0.00  0.00     0.000 C
ATOM      3  C3  BDP B   1      51.119  24.614  65.7170  0.00  0.00     0.000 C
ATOM      4  C4  BDP B   1      51.582  25.585  64.6360  0.00  0.00     0.000 C
ATOM      5  C5  BDP B   1      50.653  25.608  63.4270  0.00  0.00     0.000 C
ATOM      6  O5  BDP B   1      49.353  25.073  63.7310  0.00  0.00     0.000 O
ATOM      7   O  BDP B   1      49.482  25.328  67.3310  0.00  0.00     0.000 O
ATOM      9  HD  BDP B   1      48.988  25.702  67.9370  0.00  0.00     0.000 HD
ATOM      9   O  BDP B   1      51.431  23.285  65.2710  0.00  0.00     0.000 O
ATOM     11  HD  BDP B   1      50.938  23.659  65.8770  0.00  0.00     0.000 HD
ATOM     11   O  BDP B   1      51.708  26.907  65.1740  0.00  0.00     0.000 O
ATOM     13  HD  BDP B   1      51.215  27.281  65.7800  0.00  0.00     0.000 HD
ENDROOT
BRANCH 5 13
ATOM     13   C  BDP B   1      51.295  24.790  62.3610  0.00  0.00     0.000 C
ATOM     14   O  BDP B   1      51.034  23.570  62.3170  0.00  0.00     0.000 OA
ATOM     15   O  BDP B   1      52.049  25.350  61.5370  0.00  0.00     0.000 OA
ENDBRANCH 5 13
BRANCH 1 16
ATOM     16  O3  NAG B   2      48.090  26.682  65.1180  0.00  0.00     0.000 O
BRANCH 16 19
ATOM     17  C1  NAG B   2      48.113  29.714  67.1340  0.00  0.00     0.000 C
ATOM     18  C2  NAG B   2      48.853  28.682  66.2820  0.00  0.00     0.000 C
ATOM     19  C3  NAG B   2      47.926  28.097  65.2260  0.00  0.00     0.000 C
ATOM     20  C4  NAG B   2      46.459  28.428  65.5120  0.00  0.00     0.000 C
ATOM     21  C5  NAG B   2      46.077  28.463  66.9990  0.00  0.00     0.000 C
ATOM     22  O5  NAG B   2      47.117  28.972  67.8420  0.00  0.00     0.000 O
ATOM     23   O  NAG B   2      46.149  29.685  64.9020  0.00  0.00     0.000 O
ATOM     25  HD  NAG B   2      46.900  30.056  65.1200  0.00  0.00     0.000 HD
ATOM     25   C  NAG B   2      45.689  27.062  67.4910  0.00  0.00     0.000 C
ATOM     26   O  NAG B   2      44.310  26.769  67.2250  0.00  0.00     0.000 O
ATOM     28  HD  NAG B   2      45.061  27.140  67.4430  0.00  0.00     0.000 HD
BRANCH 18 30
ATOM     28   N  NAG B   2      49.273  30.043  65.9500  0.00  0.00     0.000 N
ATOM     30  HD  NAG B   2      48.983  30.783  65.6060  0.00  0.00     0.000 HD
ATOM     30   C  NAG B   2      50.147  30.362  64.9850  0.00  0.00     0.000 C
ATOM     31   C  NAG B   2      50.425  31.832  64.8440  0.00  0.00     0.000 C
ATOM     32   O  NAG B   2      50.677  29.544  64.2680  0.00  0.00     0.000 OA
ENDBRANCH 18 30
BRANCH 17 33
ATOM     33  O4  BDP B   3      47.944  30.489  68.3410  0.00  0.00     0.000 O
BRANCH 33 37
ATOM     34  C1  BDP B   3      49.248  33.267  71.3120  0.00  0.00     0.000 C
ATOM     35  C2  BDP B   3      47.850  33.464  70.7390  0.00  0.00     0.000 C
ATOM     36  C3  BDP B   3      47.302  32.232  70.0280  0.00  0.00     0.000 C
ATOM     37  C4  BDP B   3      48.382  31.653  69.1020  0.00  0.00     0.000 C
ATOM     38  C5  BDP B   3      49.621  31.362  69.9700  0.00  0.00     0.000 C
ATOM     39  O5  BDP B   3      50.122  32.639  70.3660  0.00  0.00     0.000 O
ATOM     40   O  BDP B   3      47.024  33.869  71.8330  0.00  0.00     0.000 O
ATOM     42  HD  BDP B   3      47.400  34.624  71.6360  0.00  0.00     0.000 HD
ATOM     42   O  BDP B   3      46.151  32.657  69.3000  0.00  0.00     0.000 O
ATOM     44  HD  BDP B   3      46.527  33.412  69.1030  0.00  0.00     0.000 HD
BRANCH 38 44
ATOM     44   C  BDP B   3      50.697  30.590  69.2730  0.00  0.00     0.000 C
ATOM     45   O  BDP B   3      51.231  31.106  68.2660  0.00  0.00     0.000 OA
ATOM     46   O  BDP B   3      51.030  29.465  69.7060  0.00  0.00     0.000 OA
ENDBRANCH 38 44
BRANCH 34 47
ATOM     47  O3  NAG B   4      50.049  34.440  71.1800  0.00  0.00     0.000 O
BRANCH 47 50
ATOM     48  C1  NAG B   4      52.106  35.511  74.1420  0.00  0.00     0.000 C
ATOM     49  C2  NAG B   4      50.848  35.254  73.3320  0.00  0.00     0.000 C
ATOM     50  C3  NAG B   4      51.226  34.631  71.9930  0.00  0.00     0.000 C
ATOM     51  C4  NAG B   4      52.229  35.489  71.2400  0.00  0.00     0.000 C
ATOM     52  C5  NAG B   4      53.441  35.772  72.1280  0.00  0.00     0.000 C
ATOM     53  O5  NAG B   4      53.021  36.325  73.3830  0.00  0.00     0.000 O
ATOM     54   O  NAG B   4      52.626  34.804  70.0490  0.00  0.00     0.000 O
ATOM     56  HD  NAG B   4      52.858  35.638  70.0460  0.00  0.00     0.000 HD
ATOM     56   C  NAG B   4      54.411  36.733  71.4520  0.00  0.00     0.000 C
ATOM     57   O  NAG B   4      53.736  37.969  71.1840  0.00  0.00     0.000 O
ATOM     59  HD  NAG B   4      53.967  38.804  71.1820  0.00  0.00     0.000 HD
BRANCH 49 61
ATOM     59   N  NAG B   4      50.042  34.681  74.4110  0.00  0.00     0.000 N
ATOM     61  HD  NAG B   4      50.176  35.452  74.0390  0.00  0.00     0.000 HD
ATOM     61   O  NAG B   4      48.135  35.800  73.9500  0.00  0.00     0.000 OA
ATOM     62   C  NAG B   4      48.742  34.947  74.5810  0.00  0.00     0.000 C
ATOM     63   C  NAG B   4      48.038  34.108  75.6000  0.00  0.00     0.000 C
ENDBRANCH 49 61
BRANCH 48 64
ATOM     64  O4  BDP B   5      52.367  35.552  75.5420  0.00  0.00     0.000 O
BRANCH 64 68
ATOM     65  C1  BDP B   5      53.707  34.948  79.4420  0.00  0.00     0.000 C
ATOM     66  C2  BDP B   5      54.529  35.911  78.5960  0.00  0.00     0.000 C
ATOM     67  C3  BDP B   5      53.712  36.360  77.3910  0.00  0.00     0.000 C
ATOM     68  C4  BDP B   5      53.239  35.148  76.5970  0.00  0.00     0.000 C
ATOM     69  C5  BDP B   5      52.508  34.138  77.4720  0.00  0.00     0.000 C
ATOM     70  O5  BDP B   5      53.281  33.832  78.6450  0.00  0.00     0.000 O
ATOM     71   O  BDP B   5      54.945  37.026  79.4000  0.00  0.00     0.000 O
ATOM     73  HD  BDP B   5      55.151  37.684  79.9240  0.00  0.00     0.000 HD
ATOM     73   O  BDP B   5      54.494  37.207  76.5400  0.00  0.00     0.000 O
ATOM     75  HD  BDP B   5      54.701  37.865  77.0640  0.00  0.00     0.000 HD
BRANCH 69 75
ATOM     75   C  BDP B   5      52.295  32.881  76.6670  0.00  0.00     0.000 C
ATOM     76   O  BDP B   5      53.289  32.198  76.3480  0.00  0.00     0.000 OA
ATOM     77   O  BDP B   5      51.136  32.558  76.3480  0.00  0.00     0.000 OA
ENDBRANCH 69 75
BRANCH 65 78
ATOM     78  O3  NAG B   6      54.215  33.885  80.2530  0.00  0.00     0.000 O
BRANCH 78 81
ATOM     79  C1  NAG B   6      53.854  32.865  83.8810  0.00  0.00     0.000 C
ATOM     80  C2  NAG B   6      54.329  33.698  82.6800  0.00  0.00     0.000 C
ATOM     81  C3  NAG B   6      53.661  33.212  81.4040  0.00  0.00     0.000 C
ATOM     82  C4  NAG B   6      53.819  31.695  81.2490  0.00  0.00     0.000 C
ATOM     83  C5  NAG B   6      53.297  31.001  82.5020  0.00  0.00     0.000 C
ATOM     84  O5  NAG B   6      54.070  31.469  83.6080  0.00  0.00     0.000 O
BRANCH 80 87
ATOM     85   N  NAG B   6      54.096  35.093  83.0420  0.00  0.00     0.000 N
ATOM     87  HD  NAG B   6      54.332  35.802  83.4800  0.00  0.00     0.000 HD
ATOM     87   C  NAG B   6      54.912  36.100  82.7060  0.00  0.00     0.000 C
ATOM     88   C  NAG B   6      54.475  37.462  83.1440  0.00  0.00     0.000 C
ATOM     89   O  NAG B   6      55.946  35.939  82.0680  0.00  0.00     0.000 OA
ENDBRANCH 80 87
ATOM     90   O  NAG B   6      52.064  28.925  82.3760  0.00  0.00     0.000 O
ATOM     92  HD  NAG B   6      52.183  29.662  82.8140  0.00  0.00     0.000 HD
ATOM     92   O  NAG B   6      52.064  28.925  82.3760  0.00  0.00     0.000 O
ATOM     94  HD  NAG B   6      52.183  29.662  82.8140  0.00  0.00     0.000 HD
ENDBRANCH 78 81
ENDBRANCH 65 78
ENDBRANCH 64 68
ENDBRANCH 48 64
ENDBRANCH 47 50
ENDBRANCH 34 47
ENDBRANCH 33 37
ENDBRANCH 17 33
ENDBRANCH 16 19
ENDBRANCH 1 16
TORSDOF 16
ENDMDL
MODEL 95
REMARK VINA RESULT:      -0.8     47.473     54.407
ROOT
ATOM      1  C1  BDP B   1      13.236  31.848  69.2220  0.00  0.00     0.000 C
ATOM      2  C2  BDP B   1      12.501  30.788  70.0230  0.00  0.00     0.000 C
ATOM      3  C3  BDP B   1      12.727  29.397  69.4680  0.00  0.00     0.000 C
ATOM      4  C4  BDP B   1      13.887  29.301  68.4840  0.00  0.00     0.000 C
ATOM      5  C5  BDP B   1      13.868  30.413  67.4390  0.00  0.00     0.000 C
ATOM      6  O5  BDP B   1      13.059  31.529  67.8500  0.00  0.00     0.000 O
ATOM      7   O  BDP B   1      12.919  30.833  71.3910  0.00  0.00     0.000 O
ATOM      9  HD  BDP B   1      13.118  31.273  72.1100  0.00  0.00     0.000 HD
ATOM      9   O  BDP B   1      11.544  28.940  68.7940  0.00  0.00     0.000 O
ATOM     11  HD  BDP B   1      11.743  29.380  69.5130  0.00  0.00     0.000 HD
ATOM     11   O  BDP B   1      15.138  29.315  69.1820  0.00  0.00     0.000 O
ATOM     13  HD  BDP B   1      15.337  29.755  69.9020  0.00  0.00     0.000 HD
ENDROOT
BRANCH 5 13
ATOM     13   C  BDP B   1      13.319  29.830  66.1850  0.00  0.00     0.000 C
ATOM     14   O  BDP B   1      14.117  29.312  65.3760  0.00  0.00     0.000 OA
ATOM     15   O  BDP B   1      12.084  29.852  65.9930  0.00  0.00     0.000 OA
ENDBRANCH 5 13
BRANCH 1 16
ATOM     16  O3  NAG B   2      14.222  32.796  69.6260  0.00  0.00     0.000 O
BRANCH 16 19
ATOM     17  C1  NAG B   2      16.945  32.903  72.0410  0.00  0.00     0.000 C
ATOM     18  C2  NAG B   2      16.186  32.178  70.9290  0.00  0.00     0.000 C
ATOM     19  C3  NAG B   2      15.554  33.178  69.9720  0.00  0.00     0.000 C
ATOM     20  C4  NAG B   2      15.551  34.595  70.5520  0.00  0.00     0.000 C
ATOM     21  C5  NAG B   2      15.338  34.677  72.0700  0.00  0.00     0.000 C
ATOM     22  O5  NAG B   2      15.942  33.595  72.7890  0.00  0.00     0.000 O
ATOM     23   O  NAG B   2      16.783  35.233  70.2010  0.00  0.00     0.000 O
ATOM     25  HD  NAG B   2      17.268  34.530  70.3400  0.00  0.00     0.000 HD
ATOM     25   C  NAG B   2      13.840  34.711  72.4050  0.00  0.00     0.000 C
ATOM     26   O  NAG B   2      13.311  36.043  72.3390  0.00  0.00     0.000 O
ATOM     28  HD  NAG B   2      13.796  35.339  72.4780  0.00  0.00     0.000 HD
BRANCH 18 30
ATOM     28   N  NAG B   2      17.631  32.118  70.7110  0.00  0.00     0.000 N
ATOM     30  HD  NAG B   2      18.310  32.609  70.4910  0.00  0.00     0.000 HD
ATOM     30   C  NAG B   2      18.228  31.477  69.6960  0.00  0.00     0.000 C
ATOM     31   C  NAG B   2      19.729  31.552  69.6970  0.00  0.00     0.000 C
ATOM     32   O  NAG B   2      17.622  30.884  68.8340  0.00  0.00     0.000 OA
ENDBRANCH 18 30
BRANCH 17 33
ATOM     33  O4  BDP B   3      17.526  32.963  73.3610  0.00  0.00     0.000 O
BRANCH 33 37
ATOM     34  C1  BDP B   3      21.511  33.595  74.7620  0.00  0.00     0.000 C
ATOM     35  C2  BDP B   3      20.934  32.192  74.9110  0.00  0.00     0.000 C
ATOM     36  C3  BDP B   3      19.715  31.936  74.0320  0.00  0.00     0.000 C
ATOM     37  C4  BDP B   3      18.749  33.125  74.1380  0.00  0.00     0.000 C
ATOM     38  C5  BDP B   3      19.535  34.391  73.7470  0.00  0.00     0.000 C
ATOM     39  O5  BDP B   3      20.485  34.594  74.7930  0.00  0.00     0.000 O
ATOM     40   O  BDP B   3      22.005  31.288  74.6290  0.00  0.00     0.000 O
ATOM     42  HD  BDP B   3      22.186  31.490  75.4510  0.00  0.00     0.000 HD
ATOM     42   O  BDP B   3      19.121  30.726  74.4970  0.00  0.00     0.000 O
ATOM     44  HD  BDP B   3      19.302  30.928  75.3200  0.00  0.00     0.000 HD
BRANCH 38 44
ATOM     44   C  BDP B   3      18.693  35.617  73.5820  0.00  0.00     0.000 C
ATOM     45   O  BDP B   3      18.579  36.100  72.4340  0.00  0.00     0.000 OA
ATOM     46   O  BDP B   3      18.133  36.122  74.5810  0.00  0.00     0.000 OA
ENDBRANCH 38 44
BRANCH 34 47
ATOM     47  O3  NAG B   4      21.973  34.117  76.0070  0.00  0.00     0.000 O
BRANCH 47 50
ATOM     48  C1  NAG B   4      25.315  35.841  76.0710  0.00  0.00     0.000 C
ATOM     49  C2  NAG B   4      24.340  34.683  75.9530  0.00  0.00     0.000 C
ATOM     50  C3  NAG B   4      22.913  35.210  76.0500  0.00  0.00     0.000 C
ATOM     51  C4  NAG B   4      22.699  36.014  77.3230  0.00  0.00     0.000 C
ATOM     52  C5  NAG B   4      23.751  37.119  77.4220  0.00  0.00     0.000 C
ATOM     53  O5  NAG B   4      25.068  36.568  77.2900  0.00  0.00     0.000 O
ATOM     54   O  NAG B   4      21.382  36.570  77.3060  0.00  0.00     0.000 O
ATOM     56  HD  NAG B   4      21.753  36.613  78.0880  0.00  0.00     0.000 HD
ATOM     56   C  NAG B   4      23.646  37.866  78.7460  0.00  0.00     0.000 C
ATOM     57   O  NAG B   4      23.846  36.941  79.8230  0.00  0.00     0.000 O
ATOM     59  HD  NAG B   4      24.216  36.984  80.6040  0.00  0.00     0.000 HD
BRANCH 49 61
ATOM     59   N  NAG B   4      24.989  34.005  74.8300  0.00  0.00     0.000 N
ATOM     61  HD  NAG B   4      24.988  33.973  75.6950  0.00  0.00     0.000 HD
ATOM     61   O  NAG B   4      24.831  31.907  75.6510  0.00  0.00     0.000 OA
ATOM     62   C  NAG B   4      25.112  32.675  74.7420  0.00  0.00     0.000 C
ATOM     63   C  NAG B   4      25.607  32.156  73.4300  0.00  0.00     0.000 C
ENDBRANCH 49 61
BRANCH 48 64
ATOM     64  O4  BDP B   5      26.624  36.064  75.5540  0.00  0.00     0.000 O
BRANCH 64 68
ATOM     65  C1  BDP B   5      30.030  36.818  77.8350  0.00  0.00     0.000 C
ATOM     66  C2  BDP B   5      29.783  37.769  76.6710  0.00  0.00     0.000 C
ATOM     67  C3  BDP B   5      28.334  37.652  76.2140  0.00  0.00     0.000 C
ATOM     68  C4  BDP B   5      28.011  36.205  75.8600  0.00  0.00     0.000 C
ATOM     69  C5  BDP B   5      28.359  35.245  76.9910  0.00  0.00     0.000 C
ATOM     70  O5  BDP B   5      29.703  35.473  77.4520  0.00  0.00     0.000 O
ATOM     71   O  BDP B   5      30.108  39.110  77.0680  0.00  0.00     0.000 O
ATOM     73  HD  BDP B   5      30.299  39.901  77.3640  0.00  0.00     0.000 HD
ATOM     73   O  BDP B   5      28.100  38.482  75.0700  0.00  0.00     0.000 O
ATOM     75  HD  BDP B   5      28.291  39.273  75.3660  0.00  0.00     0.000 HD
BRANCH 69 75
ATOM     75   C  BDP B   5      28.238  33.836  76.4700  0.00  0.00     0.000 C
ATOM     76   O  BDP B   5      27.646  32.988  77.1680  0.00  0.00     0.000 OA
ATOM     77   O  BDP B   5      28.726  33.559  75.3590  0.00  0.00     0.000 OA
ENDBRANCH 69 75
BRANCH 65 78
ATOM     78  O3  NAG B   6      31.268  36.182  78.1630  0.00  0.00     0.000 O
BRANCH 78 81
ATOM     79  C1  NAG B   6      33.431  35.952  81.2620  0.00  0.00     0.000 C
ATOM     80  C2  NAG B   6      32.782  36.597  80.0260  0.00  0.00     0.000 C
ATOM     81  C3  NAG B   6      31.769  35.647  79.4070  0.00  0.00     0.000 C
ATOM     82  C4  NAG B   6      32.390  34.266  79.1720  0.00  0.00     0.000 C
ATOM     83  C5  NAG B   6      32.980  33.746  80.4780  0.00  0.00     0.000 C
ATOM     84  O5  NAG B   6      33.981  34.673  80.8980  0.00  0.00     0.000 O
BRANCH 80 87
ATOM     85   N  NAG B   6      32.270  37.890  80.4710  0.00  0.00     0.000 N
ATOM     87  HD  NAG B   6      32.410  38.717  80.6850  0.00  0.00     0.000 HD
ATOM     87   C  NAG B   6      32.286  39.000  79.7220  0.00  0.00     0.000 C
ATOM     88   C  NAG B   6      31.680  40.215  80.3490  0.00  0.00     0.000 C
ATOM     89   O  NAG B   6      32.750  39.034  78.5880  0.00  0.00     0.000 OA
ENDBRANCH 80 87
ATOM     90   O  NAG B   6      32.817  31.415  81.1000  0.00  0.00     0.000 O
ATOM     92  HD  NAG B   6      32.862  32.232  81.3850  0.00  0.00     0.000 HD
ATOM     92   O  NAG B   6      32.817  31.415  81.1000  0.00  0.00     0.000 O
ATOM     94  HD  NAG B   6      32.862  32.232  81.3850  0.00  0.00     0.000 HD
ENDBRANCH 78 81
ENDBRANCH 65 78
ENDBRANCH 64 68
ENDBRANCH 48 64
ENDBRANCH 47 50
ENDBRANCH 34 47
ENDBRANCH 33 37
ENDBRANCH 17 33
ENDBRANCH 16 19
ENDBRANCH 1 16
TORSDOF 16
ENDMDL
MODEL 96
REMARK VINA RESULT:      -0.8     82.911     86.451
ROOT
ATOM      1  C1  BDP B   1      86.504  52.781  41.7360  0.00  0.00     0.000 C
ATOM      2  C2  BDP B   1      87.295  51.539  41.3670  0.00  0.00     0.000 C
ATOM      3  C3  BDP B   1      88.516  51.867  40.5340  0.00  0.00     0.000 C
ATOM      4  C4  BDP B   1      88.893  53.344  40.5390  0.00  0.00     0.000 C
ATOM      5  C5  BDP B   1      87.695  54.260  40.3100  0.00  0.00     0.000 C
ATOM      6  O5  BDP B   1      86.447  53.597  40.5750  0.00  0.00     0.000 O
ATOM      7   O  BDP B   1      87.695  50.845  42.5540  0.00  0.00     0.000 O
ATOM      9  HD  BDP B   1      87.527  50.534  43.3440  0.00  0.00     0.000 HD
ATOM      9   O  BDP B   1      88.296  51.478  39.1690  0.00  0.00     0.000 O
ATOM     11  HD  BDP B   1      88.129  51.166  39.9590  0.00  0.00     0.000 HD
ATOM     11   O  BDP B   1      89.538  53.690  41.7710  0.00  0.00     0.000 O
ATOM     13  HD  BDP B   1      89.370  53.378  42.5620  0.00  0.00     0.000 HD
ENDROOT
BRANCH 5 13
ATOM     13   C  BDP B   1      87.739  54.697  38.8880  0.00  0.00     0.000 C
ATOM     14   O  BDP B   1      86.874  55.505  38.4920  0.00  0.00     0.000 OA
ATOM     15   O  BDP B   1      88.650  54.266  38.1480  0.00  0.00     0.000 OA
ENDBRANCH 5 13
BRANCH 1 16
ATOM     16  O3  NAG B   2      86.152  53.311  43.0130  0.00  0.00     0.000 O
BRANCH 16 19
ATOM     17  C1  NAG B   2      84.762  55.651  45.4300  0.00  0.00     0.000 C
ATOM     18  C2  NAG B   2      85.105  54.220  45.0160  0.00  0.00     0.000 C
ATOM     19  C3  NAG B   2      86.330  54.203  44.1140  0.00  0.00     0.000 C
ATOM     20  C4  NAG B   2      86.672  55.602  43.5950  0.00  0.00     0.000 C
ATOM     21  C5  NAG B   2      85.464  56.504  43.3070  0.00  0.00     0.000 C
ATOM     22  O5  NAG B   2      84.378  56.310  44.2210  0.00  0.00     0.000 O
ATOM     23   O  NAG B   2      87.538  56.239  44.5410  0.00  0.00     0.000 O
ATOM     25  HD  NAG B   2      87.111  55.945  45.2350  0.00  0.00     0.000 HD
ATOM     25   C  NAG B   2      84.948  56.277  41.8790  0.00  0.00     0.000 C
ATOM     26   O  NAG B   2      85.667  57.069  40.9230  0.00  0.00     0.000 O
ATOM     28  HD  NAG B   2      85.240  56.775  41.6160  0.00  0.00     0.000 HD
BRANCH 18 30
ATOM     28   N  NAG B   2      85.533  54.489  46.3880  0.00  0.00     0.000 N
ATOM     30  HD  NAG B   2      86.137  54.910  46.8450  0.00  0.00     0.000 HD
ATOM     30   C  NAG B   2      86.056  53.579  47.2210  0.00  0.00     0.000 C
ATOM     31   C  NAG B   2      86.409  54.100  48.5860  0.00  0.00     0.000 C
ATOM     32   O  NAG B   2      86.243  52.424  46.9150  0.00  0.00     0.000 OA
ENDBRANCH 18 30
BRANCH 17 33
ATOM     33  O4  BDP B   3      83.840  56.658  45.9020  0.00  0.00     0.000 O
BRANCH 33 37
ATOM     34  C1  BDP B   3      83.067  60.653  47.2000  0.00  0.00     0.000 C
ATOM     35  C2  BDP B   3      81.933  59.917  46.4960  0.00  0.00     0.000 C
ATOM     36  C3  BDP B   3      82.124  58.405  46.4470  0.00  0.00     0.000 C
ATOM     37  C4  BDP B   3      83.564  58.085  46.0180  0.00  0.00     0.000 C
ATOM     38  C5  BDP B   3      84.505  58.792  47.0110  0.00  0.00     0.000 C
ATOM     39  O5  BDP B   3      84.350  60.189  46.7620  0.00  0.00     0.000 O
ATOM     40   O  BDP B   3      80.733  60.289  47.1770  0.00  0.00     0.000 O
ATOM     42  HD  BDP B   3      80.839  60.978  46.6620  0.00  0.00     0.000 HD
ATOM     42   O  BDP B   3      81.168  57.902  45.5160  0.00  0.00     0.000 O
ATOM     44  HD  BDP B   3      81.273  58.590  45.0020  0.00  0.00     0.000 HD
BRANCH 38 44
ATOM     44   C  BDP B   3      85.947  58.411  46.8760  0.00  0.00     0.000 C
ATOM     45   O  BDP B   3      86.467  57.753  47.8040  0.00  0.00     0.000 OA
ATOM     46   O  BDP B   3      86.584  58.754  45.8570  0.00  0.00     0.000 OA
ENDBRANCH 38 44
BRANCH 34 47
ATOM     47  O3  NAG B   4      83.369  61.896  46.5690  0.00  0.00     0.000 O
BRANCH 47 50
ATOM     48  C1  NAG B   4      83.950  64.937  48.7060  0.00  0.00     0.000 C
ATOM     49  C2  NAG B   4      83.159  63.824  48.0410  0.00  0.00     0.000 C
ATOM     50  C3  NAG B   4      84.109  62.921  47.2640  0.00  0.00     0.000 C
ATOM     51  C4  NAG B   4      84.942  63.711  46.2660  0.00  0.00     0.000 C
ATOM     52  C5  NAG B   4      85.659  64.857  46.9810  0.00  0.00     0.000 C
ATOM     53  O5  NAG B   4      84.721  65.650  47.7190  0.00  0.00     0.000 O
ATOM     54   O  NAG B   4      85.886  62.832  45.6480  0.00  0.00     0.000 O
ATOM     56  HD  NAG B   4      85.811  63.587  45.2320  0.00  0.00     0.000 HD
ATOM     56   C  NAG B   4      86.404  65.746  45.9920  0.00  0.00     0.000 C
ATOM     57   O  NAG B   4      85.464  66.298  45.0600  0.00  0.00     0.000 O
ATOM     59  HD  NAG B   4      85.389  67.054  44.6430  0.00  0.00     0.000 HD
BRANCH 49 61
ATOM     59   N  NAG B   4      82.337  63.334  49.1480  0.00  0.00     0.000 N
ATOM     61  HD  NAG B   4      82.292  63.926  48.5180  0.00  0.00     0.000 HD
ATOM     61   O  NAG B   4      80.369  63.318  48.0390  0.00  0.00     0.000 OA
ATOM     62   C  NAG B   4      81.033  63.055  49.0310  0.00  0.00     0.000 C
ATOM     63   C  NAG B   4      80.412  62.363  50.2030  0.00  0.00     0.000 C
ENDBRANCH 49 61
BRANCH 48 64
ATOM     64  O4  BDP B   5      83.748  65.693  49.8960  0.00  0.00     0.000 O
BRANCH 64 68
ATOM     65  C1  BDP B   5      80.266  67.705  50.9910  0.00  0.00     0.000 C
ATOM     66  C2  BDP B   5      81.330  68.543  50.2960  0.00  0.00     0.000 C
ATOM     67  C3  BDP B   5      82.320  67.629  49.5860  0.00  0.00     0.000 C
ATOM     68  C4  BDP B   5      82.918  66.635  50.5750  0.00  0.00     0.000 C
ATOM     69  C5  BDP B   5      81.846  65.873  51.3440  0.00  0.00     0.000 C
ATOM     70  O5  BDP B   5      80.883  66.782  51.9040  0.00  0.00     0.000 O
ATOM     71   O  BDP B   5      80.703  69.457  49.3830  0.00  0.00     0.000 O
ATOM     73  HD  BDP B   5      80.276  69.972  48.8330  0.00  0.00     0.000 HD
ATOM     73   O  BDP B   5      83.373  68.394  48.9890  0.00  0.00     0.000 O
ATOM     75  HD  BDP B   5      82.946  68.910  48.4400  0.00  0.00     0.000 HD
BRANCH 69 75
ATOM     75   C  BDP B   5      82.516  65.104  52.4540  0.00  0.00     0.000 C
ATOM     76   O  BDP B   5      82.671  63.873  52.3230  0.00  0.00     0.000 OA
ATOM     77   O  BDP B   5      82.900  65.718  53.4670  0.00  0.00     0.000 OA
ENDBRANCH 69 75
BRANCH 65 78
ATOM     78  O3  NAG B   6      79.554  68.054  52.1820  0.00  0.00     0.000 O
BRANCH 78 81
ATOM     79  C1  NAG B   6      75.901  68.269  53.1510  0.00  0.00     0.000 C
ATOM     80  C2  NAG B   6      77.213  68.670  52.4590  0.00  0.00     0.000 C
ATOM     81  C3  NAG B   6      78.279  67.613  52.6980  0.00  0.00     0.000 C
ATOM     82  C4  NAG B   6      78.402  67.291  54.1910  0.00  0.00     0.000 C
ATOM     83  C5  NAG B   6      77.035  66.899  54.7390  0.00  0.00     0.000 C
ATOM     84  O5  NAG B   6      76.157  68.008  54.5430  0.00  0.00     0.000 O
BRANCH 80 87
ATOM     85   N  NAG B   6      76.867  68.935  51.0650  0.00  0.00     0.000 N
ATOM     87  HD  NAG B   6      76.525  69.458  50.4650  0.00  0.00     0.000 HD
ATOM     87   C  NAG B   6      77.422  69.905  50.3270  0.00  0.00     0.000 C
ATOM     88   C  NAG B   6      76.955  69.988  48.9090  0.00  0.00     0.000 C
ATOM     89   O  NAG B   6      78.270  70.674  50.7630  0.00  0.00     0.000 OA
ENDBRANCH 80 87
ATOM     90   O  NAG B   6      76.786  65.129  56.3680  0.00  0.00     0.000 O
ATOM     92  HD  NAG B   6      76.418  65.553  55.7080  0.00  0.00     0.000 HD
ATOM     92   O  NAG B   6      76.786  65.129  56.3680  0.00  0.00     0.000 O
ATOM     94  HD  NAG B   6      76.418  65.553  55.7080  0.00  0.00     0.000 HD
ENDBRANCH 78 81
ENDBRANCH 65 78
ENDBRANCH 64 68
ENDBRANCH 48 64
ENDBRANCH 47 50
ENDBRANCH 34 47
ENDBRANCH 33 37
ENDBRANCH 17 33
ENDBRANCH 16 19
ENDBRANCH 1 16
TORSDOF 16
ENDMDL
MODEL 97
REMARK VINA RESULT:      -0.8     99.572    103.671
ROOT
ATOM      1  C1  BDP B   1      30.783 101.203  83.7790  0.00  0.00     0.000 C
ATOM      2  C2  BDP B   1      29.818 102.092  84.5420  0.00  0.00     0.000 C
ATOM      3  C3  BDP B   1      28.403 101.985  84.0130  0.00  0.00     0.000 C
ATOM      4  C4  BDP B   1      28.171 100.786  83.0990  0.00  0.00     0.000 C
ATOM      5  C5  BDP B   1      29.264 100.626  82.0470  0.00  0.00     0.000 C
ATOM      6  O5  BDP B   1      30.465 101.333  82.4010  0.00  0.00     0.000 O
ATOM      7   O  BDP B   1      29.838 101.752  85.9320  0.00  0.00     0.000 O
ATOM      9  HD  BDP B   1      30.264 101.549  86.6590  0.00  0.00     0.000 HD
ATOM      9   O  BDP B   1      28.065 103.169  83.2730  0.00  0.00     0.000 O
ATOM     11  HD  BDP B   1      28.491 102.966  84.0000  0.00  0.00     0.000 HD
ATOM     11   O  BDP B   1      28.062  99.584  83.8710  0.00  0.00     0.000 O
ATOM     13  HD  BDP B   1      28.488  99.381  84.5970  0.00  0.00     0.000 HD
ENDROOT
BRANCH 5 13
ATOM     13   C  BDP B   1      28.725 101.161  80.7670  0.00  0.00     0.000 C
ATOM     14   O  BDP B   1      28.115 100.376  80.0110  0.00  0.00     0.000 OA
ATOM     15   O  BDP B   1      28.876 102.373  80.5020  0.00  0.00     0.000 OA
ENDBRANCH 5 13
BRANCH 1 16
ATOM     16  O3  NAG B   2      31.626 100.146  84.2320  0.00  0.00     0.000 O
BRANCH 16 19
ATOM     17  C1  NAG B   2      31.478  97.573  86.8030  0.00  0.00     0.000 C
ATOM     18  C2  NAG B   2      30.822  98.339  85.6540  0.00  0.00     0.000 C
ATOM     19  C3  NAG B   2      31.870  98.803  84.6540  0.00  0.00     0.000 C
ATOM     20  C4  NAG B   2      33.287  98.689  85.2220  0.00  0.00     0.000 C
ATOM     21  C5  NAG B   2      33.412  98.980  86.7240  0.00  0.00     0.000 C
ATOM     22  O5  NAG B   2      32.282  98.538  87.4860  0.00  0.00     0.000 O
ATOM     23   O  NAG B   2      33.786  97.378  84.9390  0.00  0.00     0.000 O
ATOM     25  HD  NAG B   2      33.037  96.979  85.1130  0.00  0.00     0.000 HD
ATOM     25   C  NAG B   2      33.610 100.483  86.9690  0.00  0.00     0.000 C
ATOM     26   O  NAG B   2      34.989 100.862  86.8610  0.00  0.00     0.000 O
ATOM     28  HD  NAG B   2      34.240 100.463  87.0350  0.00  0.00     0.000 HD
BRANCH 18 30
ATOM     28   N  NAG B   2      30.605  96.899  85.5230  0.00  0.00     0.000 N
ATOM     30  HD  NAG B   2      31.018  96.160  85.3400  0.00  0.00     0.000 HD
ATOM     30   C  NAG B   2      29.890  96.315  84.5500  0.00  0.00     0.000 C
ATOM     31   C  NAG B   2      29.805  94.818  84.6400  0.00  0.00     0.000 C
ATOM     32   O  NAG B   2      29.354  96.930  83.6580  0.00  0.00     0.000 OA
ENDBRANCH 18 30
BRANCH 17 33
ATOM     33  O4  BDP B   3      31.493  97.066  88.1560  0.00  0.00     0.000 O
BRANCH 33 37
ATOM     34  C1  BDP B   3      31.715  93.125  89.7850  0.00  0.00     0.000 C
ATOM     35  C2  BDP B   3      30.384  93.856  89.9100  0.00  0.00     0.000 C
ATOM     36  C3  BDP B   3      30.248  95.042  88.9620  0.00  0.00     0.000 C
ATOM     37  C4  BDP B   3      31.535  95.881  89.0020  0.00  0.00     0.000 C
ATOM     38  C5  BDP B   3      32.704  94.941  88.6490  0.00  0.00     0.000 C
ATOM     39  O5  BDP B   3      32.819  94.038  89.7490  0.00  0.00     0.000 O
ATOM     40   O  BDP B   3      29.368  92.875  89.6980  0.00  0.00     0.000 O
ATOM     42  HD  BDP B   3      29.560  92.721  90.5280  0.00  0.00     0.000 HD
ATOM     42   O  BDP B   3      29.114  95.789  89.4000  0.00  0.00     0.000 O
ATOM     44  HD  BDP B   3      29.307  95.636  90.2300  0.00  0.00     0.000 HD
BRANCH 38 44
ATOM     44   C  BDP B   3      34.011  95.636  88.4260  0.00  0.00     0.000 C
ATOM     45   O  BDP B   3      34.486  95.633  87.2690  0.00  0.00     0.000 OA
ATOM     46   O  BDP B   3      34.587  96.192  89.3870  0.00  0.00     0.000 OA
ENDBRANCH 38 44
BRANCH 34 47
ATOM     47  O3  NAG B   4      32.202  92.683  91.0510  0.00  0.00     0.000 O
BRANCH 47 50
ATOM     48  C1  NAG B   4      33.609  89.206  91.3400  0.00  0.00     0.000 C
ATOM     49  C2  NAG B   4      32.543  90.275  91.1740  0.00  0.00     0.000 C
ATOM     50  C3  NAG B   4      33.204  91.648  91.1410  0.00  0.00     0.000 C
ATOM     51  C4  NAG B   4      34.067  91.884  92.3710  0.00  0.00     0.000 C
ATOM     52  C5  NAG B   4      35.072  90.742  92.5250  0.00  0.00     0.000 C
ATOM     53  O5  NAG B   4      34.397  89.477  92.5160  0.00  0.00     0.000 O
ATOM     54   O  NAG B   4      34.742  93.136  92.2330  0.00  0.00     0.000 O
ATOM     56  HD  NAG B   4      34.777  92.826  93.0400  0.00  0.00     0.000 HD
ATOM     56   C  NAG B   4      35.871  90.879  93.8160  0.00  0.00     0.000 C
ATOM     57   O  NAG B   4      34.968  90.853  94.9300  0.00  0.00     0.000 O
ATOM     59  HD  NAG B   4      35.003  90.542  95.7370  0.00  0.00     0.000 HD
BRANCH 49 61
ATOM     59   N  NAG B   4      31.764  89.719  90.0670  0.00  0.00     0.000 N
ATOM     61  HD  NAG B   4      31.770  89.697  90.9330  0.00  0.00     0.000 HD
ATOM     61   O  NAG B   4      29.725  90.029  90.9870  0.00  0.00     0.000 OA
ATOM     62   C  NAG B   4      30.426  89.711  90.0380  0.00  0.00     0.000 C
ATOM     63   C  NAG B   4      29.810  89.300  88.7380  0.00  0.00     0.000 C
ENDBRANCH 49 61
BRANCH 48 64
ATOM     64  O4  BDP B   5      33.691  87.846  90.9260  0.00  0.00     0.000 O
BRANCH 64 68
ATOM     65  C1  BDP B   5      35.147  84.174  89.5950  0.00  0.00     0.000 C
ATOM     66  C2  BDP B   5      36.191  85.254  89.8470  0.00  0.00     0.000 C
ATOM     67  C3  BDP B   5      35.592  86.354  90.7140  0.00  0.00     0.000 C
ATOM     68  C4  BDP B   5      34.330  86.907  90.0620  0.00  0.00     0.000 C
ATOM     69  C5  BDP B   5      33.333  85.809  89.7160  0.00  0.00     0.000 C
ATOM     70  O5  BDP B   5      33.979  84.749  88.9880  0.00  0.00     0.000 O
ATOM     71   O  BDP B   5      37.351  84.669  90.4590  0.00  0.00     0.000 O
ATOM     73  HD  BDP B   5      38.016  84.270  90.8440  0.00  0.00     0.000 HD
ATOM     73   O  BDP B   5      36.533  87.417  90.8990  0.00  0.00     0.000 O
ATOM     75  HD  BDP B   5      37.198  87.018  91.2840  0.00  0.00     0.000 HD
BRANCH 69 75
ATOM     75   C  BDP B   5      32.242  86.410  88.8660  0.00  0.00     0.000 C
ATOM     76   O  BDP B   5      32.547  87.281  88.0270  0.00  0.00     0.000 OA
ATOM     77   O  BDP B   5      31.071  86.018  89.0230  0.00  0.00     0.000 OA
ENDBRANCH 69 75
BRANCH 65 78
ATOM     78  O3  NAG B   6      35.056  83.335  88.4400  0.00  0.00     0.000 O
BRANCH 78 81
ATOM     79  C1  NAG B   6      34.892  79.600  87.8410  0.00  0.00     0.000 C
ATOM     80  C2  NAG B   6      35.520  80.954  88.2090  0.00  0.00     0.000 C
ATOM     81  C3  NAG B   6      34.454  82.037  88.2470  0.00  0.00     0.000 C
ATOM     82  C4  NAG B   6      33.625  82.031  86.9580  0.00  0.00     0.000 C
ATOM     83  C5  NAG B   6      33.056  80.636  86.7270  0.00  0.00     0.000 C
ATOM     84  O5  NAG B   6      34.157  79.734  86.6110  0.00  0.00     0.000 O
BRANCH 80 87
ATOM     85   N  NAG B   6      36.260  80.730  89.4480  0.00  0.00     0.000 N
ATOM     87  HD  NAG B   6      36.960  80.425  89.8570  0.00  0.00     0.000 HD
ATOM     87   C  NAG B   6      37.430  81.313  89.7370  0.00  0.00     0.000 C
ATOM     88   C  NAG B   6      38.009  80.977  91.0750  0.00  0.00     0.000 C
ATOM     89   O  NAG B   6      37.999  82.085  88.9750  0.00  0.00     0.000 OA
ENDBRANCH 80 87
ATOM     90   O  NAG B   6      30.823  80.308  85.8590  0.00  0.00     0.000 O
ATOM     92  HD  NAG B   6      31.451  79.987  86.3620  0.00  0.00     0.000 HD
ATOM     92   O  NAG B   6      30.823  80.308  85.8590  0.00  0.00     0.000 O
ATOM     94  HD  NAG B   6      31.451  79.987  86.3620  0.00  0.00     0.000 HD
ENDBRANCH 78 81
ENDBRANCH 65 78
ENDBRANCH 64 68
ENDBRANCH 48 64
ENDBRANCH 47 50
ENDBRANCH 34 47
ENDBRANCH 33 37
ENDBRANCH 17 33
ENDBRANCH 16 19
ENDBRANCH 1 16
TORSDOF 16
ENDMDL
MODEL 98
REMARK VINA RESULT:      -0.8     59.473     64.898
ROOT
ATOM      1  C1  BDP B   1      20.319  49.924  69.7340  0.00  0.00     0.000 C
ATOM      2  C2  BDP B   1      19.092  50.584  69.1300  0.00  0.00     0.000 C
ATOM      3  C3  BDP B   1      18.180  51.167  70.1880  0.00  0.00     0.000 C
ATOM      4  C4  BDP B   1      18.824  51.292  71.5640  0.00  0.00     0.000 C
ATOM      5  C5  BDP B   1      19.569  50.028  71.9840  0.00  0.00     0.000 C
ATOM      6  O5  BDP B   1      19.878  49.184  70.8630  0.00  0.00     0.000 O
ATOM      7   O  BDP B   1      19.492  51.614  68.2190  0.00  0.00     0.000 O
ATOM      9  HD  BDP B   1      19.996  51.908  67.5790  0.00  0.00     0.000 HD
ATOM      9   O  BDP B   1      17.007  50.349  70.3280  0.00  0.00     0.000 O
ATOM     11  HD  BDP B   1      17.511  50.644  69.6880  0.00  0.00     0.000 HD
ATOM     11   O  BDP B   1      19.716  52.413  71.5980  0.00  0.00     0.000 O
ATOM     13  HD  BDP B   1      20.220  52.707  70.9580  0.00  0.00     0.000 HD
ENDROOT
BRANCH 5 13
ATOM     13   C  BDP B   1      18.690  49.296  72.9370  0.00  0.00     0.000 C
ATOM     14   O  BDP B   1      17.628  49.843  73.3000  0.00  0.00     0.000 OA
ATOM     15   O  BDP B   1      19.027  48.155  73.3200  0.00  0.00     0.000 OA
ENDBRANCH 5 13
BRANCH 1 16
ATOM     16  O3  NAG B   2      21.706  50.190  69.5370  0.00  0.00     0.000 O
BRANCH 16 19
ATOM     17  C1  NAG B   2      23.801  53.089  68.8580  0.00  0.00     0.000 C
ATOM     18  C2  NAG B   2      22.665  52.427  69.6390  0.00  0.00     0.000 C
ATOM     19  C3  NAG B   2      22.906  50.930  69.7680  0.00  0.00     0.000 C
ATOM     20  C4  NAG B   2      24.002  50.448  68.8140  0.00  0.00     0.000 C
ATOM     21  C5  NAG B   2      24.047  51.164  67.4570  0.00  0.00     0.000 C
ATOM     22  O5  NAG B   2      23.708  52.554  67.5360  0.00  0.00     0.000 O
ATOM     23   O  NAG B   2      25.267  50.576  69.4720  0.00  0.00     0.000 O
ATOM     25  HD  NAG B   2      25.080  51.341  69.8330  0.00  0.00     0.000 HD
ATOM     25   C  NAG B   2      23.103  50.486  66.4550  0.00  0.00     0.000 C
ATOM     26   O  NAG B   2      23.732  49.375  65.8000  0.00  0.00     0.000 O
ATOM     28  HD  NAG B   2      23.546  50.140  66.1610  0.00  0.00     0.000 HD
BRANCH 18 30
ATOM     28   N  NAG B   2      23.536  53.200  70.5240  0.00  0.00     0.000 N
ATOM     30  HD  NAG B   2      24.342  53.224  70.8390  0.00  0.00     0.000 HD
ATOM     30   C  NAG B   2      23.403  53.278  71.8550  0.00  0.00     0.000 C
ATOM     31   C  NAG B   2      24.418  54.147  72.5420  0.00  0.00     0.000 C
ATOM     32   O  NAG B   2      22.543  52.696  72.4740  0.00  0.00     0.000 OA
ENDBRANCH 18 30
BRANCH 17 33
ATOM     33  O4  BDP B   3      24.342  54.157  68.0500  0.00  0.00     0.000 O
BRANCH 33 37
ATOM     34  C1  BDP B   3      25.368  58.231  67.2830  0.00  0.00     0.000 C
ATOM     35  C2  BDP B   3      26.432  57.179  66.9960  0.00  0.00     0.000 C
ATOM     36  C3  BDP B   3      25.877  55.764  66.8830  0.00  0.00     0.000 C
ATOM     37  C4  BDP B   3      24.903  55.502  68.0430  0.00  0.00     0.000 C
ATOM     38  C5  BDP B   3      23.819  56.596  67.9840  0.00  0.00     0.000 C
ATOM     39  O5  BDP B   3      24.480  57.814  68.3270  0.00  0.00     0.000 O
ATOM     40   O  BDP B   3      27.094  57.597  65.8000  0.00  0.00     0.000 O
ATOM     42  HD  BDP B   3      27.497  58.096  66.3820  0.00  0.00     0.000 HD
ATOM     42   O  BDP B   3      26.996  54.880  66.9210  0.00  0.00     0.000 O
ATOM     44  HD  BDP B   3      27.398  55.379  67.5030  0.00  0.00     0.000 HD
BRANCH 38 44
ATOM     44   C  BDP B   3      22.662  56.370  68.9070  0.00  0.00     0.000 C
ATOM     45   O  BDP B   3      21.525  56.244  68.4010  0.00  0.00     0.000 OA
ATOM     46   O  BDP B   3      22.857  56.315  70.1410  0.00  0.00     0.000 OA
ENDBRANCH 38 44
BRANCH 34 47
ATOM     47  O3  NAG B   4      25.842  59.240  68.1730  0.00  0.00     0.000 O
BRANCH 47 50
ATOM     48  C1  NAG B   4      25.069  62.844  67.4240  0.00  0.00     0.000 C
ATOM     49  C2  NAG B   4      25.737  61.491  67.2510  0.00  0.00     0.000 C
ATOM     50  C3  NAG B   4      25.172  60.514  68.2760  0.00  0.00     0.000 C
ATOM     51  C4  NAG B   4      25.310  61.047  69.6930  0.00  0.00     0.000 C
ATOM     52  C5  NAG B   4      24.683  62.438  69.7880  0.00  0.00     0.000 C
ATOM     53  O5  NAG B   4      25.227  63.301  68.7810  0.00  0.00     0.000 O
ATOM     54   O  NAG B   4      24.669  60.142  70.5960  0.00  0.00     0.000 O
ATOM     56  HD  NAG B   4      25.178  60.713  71.0010  0.00  0.00     0.000 HD
ATOM     56   C  NAG B   4      24.912  63.056  71.1620  0.00  0.00     0.000 C
ATOM     57   O  NAG B   4      26.323  63.169  71.3940  0.00  0.00     0.000 O
ATOM     59  HD  NAG B   4      26.831  63.741  71.8000  0.00  0.00     0.000 HD
BRANCH 49 61
ATOM     59   N  NAG B   4      25.616  61.277  65.8090  0.00  0.00     0.000 N
ATOM     61  HD  NAG B   4      26.174  61.631  66.3690  0.00  0.00     0.000 HD
ATOM     61   O  NAG B   4      27.761  60.672  65.4430  0.00  0.00     0.000 OA
ATOM     62   C  NAG B   4      26.614  60.817  65.0460  0.00  0.00     0.000 C
ATOM     63   C  NAG B   4      26.243  60.458  63.6420  0.00  0.00     0.000 C
ENDBRANCH 49 61
BRANCH 48 64
ATOM     64  O4  BDP B   5      24.778  63.904  66.5180  0.00  0.00     0.000 O
BRANCH 64 68
ATOM     65  C1  BDP B   5      27.452  65.717  63.8840  0.00  0.00     0.000 C
ATOM     66  C2  BDP B   5      27.254  66.418  65.2210  0.00  0.00     0.000 C
ATOM     67  C3  BDP B   5      26.619  65.455  66.2150  0.00  0.00     0.000 C
ATOM     68  C4  BDP B   5      25.314  64.903  65.6510  0.00  0.00     0.000 C
ATOM     69  C5  BDP B   5      25.499  64.296  64.2660  0.00  0.00     0.000 C
ATOM     70  O5  BDP B   5      26.197  65.210  63.4020  0.00  0.00     0.000 O
ATOM     71   O  BDP B   5      28.515  66.915  65.6950  0.00  0.00     0.000 O
ATOM     73  HD  BDP B   5      29.302  67.176  65.9440  0.00  0.00     0.000 HD
ATOM     73   O  BDP B   5      26.353  66.118  67.4570  0.00  0.00     0.000 O
ATOM     75  HD  BDP B   5      27.140  66.379  67.7060  0.00  0.00     0.000 HD
BRANCH 69 75
ATOM     75   C  BDP B   5      24.136  64.002  63.6920  0.00  0.00     0.000 C
ATOM     76   O  BDP B   5      23.736  62.821  63.6730  0.00  0.00     0.000 OA
ATOM     77   O  BDP B   5      23.448  64.945  63.2590  0.00  0.00     0.000 OA
ENDBRANCH 69 75
BRANCH 65 78
ATOM     78  O3  NAG B   6      27.440  66.332  62.5930  0.00  0.00     0.000 O
BRANCH 78 81
ATOM     79  C1  NAG B   6      29.801  66.392  59.6330  0.00  0.00     0.000 C
ATOM     80  C2  NAG B   6      29.283  66.713  61.0450  0.00  0.00     0.000 C
ATOM     81  C3  NAG B   6      28.016  65.923  61.3330  0.00  0.00     0.000 C
ATOM     82  C4  NAG B   6      26.993  66.103  60.2070  0.00  0.00     0.000 C
ATOM     83  C5  NAG B   6      27.637  65.739  58.8740  0.00  0.00     0.000 C
ATOM     84  O5  NAG B   6      28.748  66.614  58.6780  0.00  0.00     0.000 O
BRANCH 80 87
ATOM     85   N  NAG B   6      30.407  66.483  61.9480  0.00  0.00     0.000 N
ATOM     87  HD  NAG B   6      31.159  66.745  62.2890  0.00  0.00     0.000 HD
ATOM     87   C  NAG B   6      30.667  67.232  63.0260  0.00  0.00     0.000 C
ATOM     88   C  NAG B   6      31.847  66.809  63.8420  0.00  0.00     0.000 C
ATOM     89   O  NAG B   6      29.985  68.197  63.3500  0.00  0.00     0.000 OA
ENDBRANCH 80 87
ATOM     90   O  NAG B   6      26.412  64.554  57.1590  0.00  0.00     0.000 O
ATOM     92  HD  NAG B   6      27.188  64.700  57.5130  0.00  0.00     0.000 HD
ATOM     92   O  NAG B   6      26.412  64.554  57.1590  0.00  0.00     0.000 O
ATOM     94  HD  NAG B   6      27.188  64.700  57.5130  0.00  0.00     0.000 HD
ENDBRANCH 78 81
ENDBRANCH 65 78
ENDBRANCH 64 68
ENDBRANCH 48 64
ENDBRANCH 47 50
ENDBRANCH 34 47
ENDBRANCH 33 37
ENDBRANCH 17 33
ENDBRANCH 16 19
ENDBRANCH 1 16
TORSDOF 16
ENDMDL
MODEL 99
REMARK VINA RESULT:      -0.8     96.757    101.305
ROOT
ATOM      1  C1  BDP B   1      44.940  87.029  99.0540  0.00  0.00     0.000 C
ATOM      2  C2  BDP B   1      44.326  87.891 100.1420  0.00  0.00     0.000 C
ATOM      3  C3  BDP B   1      44.156  89.330  99.7020  0.00  0.00     0.000 C
ATOM      4  C4  BDP B   1      44.290  89.539  98.1980  0.00  0.00     0.000 C
ATOM      5  C5  BDP B   1      45.503  88.827  97.6090  0.00  0.00     0.000 C
ATOM      6  O5  BDP B   1      45.991  87.784  98.4700  0.00  0.00     0.000 O
ATOM      7   O  BDP B   1      43.057  87.354 100.5310  0.00  0.00     0.000 O
ATOM      9  HD  BDP B   1      42.546  86.686 100.7380  0.00  0.00     0.000 HD
ATOM      9   O  BDP B   1      45.136  90.158 100.3470  0.00  0.00     0.000 O
ATOM     11  HD  BDP B   1      44.625  89.490 100.5540  0.00  0.00     0.000 HD
ATOM     11   O  BDP B   1      43.101  89.106  97.5250  0.00  0.00     0.000 O
ATOM     13  HD  BDP B   1      42.590  88.438  97.7320  0.00  0.00     0.000 HD
ENDROOT
BRANCH 5 13
ATOM     13   C  BDP B   1      46.564  89.852  97.4110  0.00  0.00     0.000 C
ATOM     14   O  BDP B   1      47.363  90.062  98.3470  0.00  0.00     0.000 OA
ATOM     15   O  BDP B   1      46.637  90.448  96.3150  0.00  0.00     0.000 OA
ENDBRANCH 5 13
BRANCH 1 16
ATOM     16  O3  NAG B   2      44.445  85.856  98.4110  0.00  0.00     0.000 O
BRANCH 16 19
ATOM     17  C1  NAG B   2      41.169  84.601  97.4370  0.00  0.00     0.000 C
ATOM     18  C2  NAG B   2      42.195  85.734  97.4840  0.00  0.00     0.000 C
ATOM     19  C3  NAG B   2      43.610  85.175  97.4730  0.00  0.00     0.000 C
ATOM     20  C4  NAG B   2      43.629  83.671  97.7620  0.00  0.00     0.000 C
ATOM     21  C5  NAG B   2      42.572  83.187  98.7650  0.00  0.00     0.000 C
ATOM     22  O5  NAG B   2      41.331  83.897  98.6710  0.00  0.00     0.000 O
ATOM     23   O  NAG B   2      43.480  82.969  96.5240  0.00  0.00     0.000 O
ATOM     25  HD  NAG B   2      42.884  83.510  96.2070  0.00  0.00     0.000 HD
ATOM     25   C  NAG B   2      43.096  83.306 100.2030  0.00  0.00     0.000 C
ATOM     26   O  NAG B   2      43.868  82.158 100.5830  0.00  0.00     0.000 O
ATOM     28  HD  NAG B   2      43.271  82.700 100.2660  0.00  0.00     0.000 HD
BRANCH 18 30
ATOM     28   N  NAG B   2      41.628  85.591  96.1440  0.00  0.00     0.000 N
ATOM     30  HD  NAG B   2      41.656  85.086  95.4400  0.00  0.00     0.000 HD
ATOM     30   C  NAG B   2      41.872  86.416  95.1150  0.00  0.00     0.000 C
ATOM     31   C  NAG B   2      41.161  86.063  93.8400  0.00  0.00     0.000 C
ATOM     32   O  NAG B   2      42.609  87.371  95.1880  0.00  0.00     0.000 OA
ENDBRANCH 18 30
BRANCH 17 33
ATOM     33  O4  BDP B   3      39.848  84.064  97.6660  0.00  0.00     0.000 O
BRANCH 33 37
ATOM     34  C1  BDP B   3      36.794  82.293  95.2610  0.00  0.00     0.000 C
ATOM     35  C2  BDP B   3      36.936  83.810  95.2030  0.00  0.00     0.000 C
ATOM     36  C3  BDP B   3      38.272  84.319  95.7300  0.00  0.00     0.000 C
ATOM     37  C4  BDP B   3      38.602  83.617  97.0560  0.00  0.00     0.000 C
ATOM     38  C5  BDP B   3      38.584  82.100  96.7870  0.00  0.00     0.000 C
ATOM     39  O5  BDP B   3      37.220  81.771  96.5250  0.00  0.00     0.000 O
ATOM     40   O  BDP B   3      36.714  84.180  93.8410  0.00  0.00     0.000 O
ATOM     42  HD  BDP B   3      35.896  84.092  94.1120  0.00  0.00     0.000 HD
ATOM     42   O  BDP B   3      38.137  85.730  95.8950  0.00  0.00     0.000 O
ATOM     44  HD  BDP B   3      37.319  85.641  96.1660  0.00  0.00     0.000 HD
BRANCH 38 44
ATOM     44   C  BDP B   3      39.099  81.265  97.9180  0.00  0.00     0.000 C
ATOM     45   O  BDP B   3      38.389  81.168  98.9440  0.00  0.00     0.000 OA
ATOM     46   O  BDP B   3      40.207  80.696  97.8110  0.00  0.00     0.000 OA
ENDBRANCH 38 44
BRANCH 34 47
ATOM     47  O3  NAG B   4      35.470  81.893  95.6090  0.00  0.00     0.000 O
BRANCH 47 50
ATOM     48  C1  NAG B   4      33.877  79.055  93.7240  0.00  0.00     0.000 C
ATOM     49  C2  NAG B   4      34.420  80.455  93.9490  0.00  0.00     0.000 C
ATOM     50  C3  NAG B   4      35.009  80.551  95.3520  0.00  0.00     0.000 C
ATOM     51  C4  NAG B   4      33.995  80.151  96.4120  0.00  0.00     0.000 C
ATOM     52  C5  NAG B   4      33.432  78.765  96.0950  0.00  0.00     0.000 C
ATOM     53  O5  NAG B   4      32.925  78.727  94.7550  0.00  0.00     0.000 O
ATOM     54   O  NAG B   4      34.633  80.156  97.6920  0.00  0.00     0.000 O
ATOM     56  HD  NAG B   4      33.770  80.122  97.7490  0.00  0.00     0.000 HD
ATOM     56   C  NAG B   4      32.321  78.383  97.0660  0.00  0.00     0.000 C
ATOM     57   O  NAG B   4      31.263  79.345  96.9680  0.00  0.00     0.000 O
ATOM     59  HD  NAG B   4      30.399  79.312  97.0260  0.00  0.00     0.000 HD
BRANCH 49 61
ATOM     59   N  NAG B   4      35.224  80.666  92.7440  0.00  0.00     0.000 N
ATOM     61  HD  NAG B   4      34.411  80.792  93.0130  0.00  0.00     0.000 HD
ATOM     61   O  NAG B   4      34.417  82.712  92.2320  0.00  0.00     0.000 OA
ATOM     62   C  NAG B   4      35.207  81.801  92.0350  0.00  0.00     0.000 C
ATOM     63   C  NAG B   4      36.249  81.912  90.9670  0.00  0.00     0.000 C
ENDBRANCH 49 61
BRANCH 48 64
ATOM     64  O4  BDP B   5      33.725  78.249  92.5590  0.00  0.00     0.000 O
BRANCH 64 68
ATOM     65  C1  BDP B   5      31.916  79.385  88.9800  0.00  0.00     0.000 C
ATOM     66  C2  BDP B   5      31.032  78.631  89.9640  0.00  0.00     0.000 C
ATOM     67  C3  BDP B   5      31.664  78.664  91.3500  0.00  0.00     0.000 C
ATOM     68  C4  BDP B   5      33.081  78.104  91.2950  0.00  0.00     0.000 C
ATOM     69  C5  BDP B   5      33.930  78.793  90.2340  0.00  0.00     0.000 C
ATOM     70  O5  BDP B   5      33.238  78.823  88.9730  0.00  0.00     0.000 O
ATOM     71   O  BDP B   5      29.716  79.204  89.9670  0.00  0.00     0.000 O
ATOM     73  HD  BDP B   5      28.946  79.600  89.9440  0.00  0.00     0.000 HD
ATOM     73   O  BDP B   5      30.887  77.894  92.2750  0.00  0.00     0.000 O
ATOM     75  HD  BDP B   5      30.117  78.290  92.2530  0.00  0.00     0.000 HD
BRANCH 69 75
ATOM     75   C  BDP B   5      35.217  78.022  90.0840  0.00  0.00     0.000 C
ATOM     76   O  BDP B   5      35.197  76.935  89.4710  0.00  0.00     0.000 OA
ATOM     77   O  BDP B   5      36.262  78.492  90.5700  0.00  0.00     0.000 OA
ENDBRANCH 69 75
BRANCH 65 78
ATOM     78  O3  NAG B   6      32.043  79.123  87.5800  0.00  0.00     0.000 O
BRANCH 78 81
ATOM     79  C1  NAG B   6      31.729  81.198  84.4280  0.00  0.00     0.000 C
ATOM     80  C2  NAG B   6      31.266  80.442  85.6840  0.00  0.00     0.000 C
ATOM     81  C3  NAG B   6      32.467  79.963  86.4840  0.00  0.00     0.000 C
ATOM     82  C4  NAG B   6      33.450  79.201  85.5900  0.00  0.00     0.000 C
ATOM     83  C5  NAG B   6      33.830  80.072  84.3980  0.00  0.00     0.000 C
ATOM     84  O5  NAG B   6      32.633  80.367  83.6780  0.00  0.00     0.000 O
BRANCH 80 87
ATOM     85   N  NAG B   6      30.344  81.337  86.3770  0.00  0.00     0.000 N
ATOM     87  HD  NAG B   6      29.559  81.698  86.4450  0.00  0.00     0.000 HD
ATOM     87   C  NAG B   6      29.244  80.928  87.0200  0.00  0.00     0.000 C
ATOM     88   C  NAG B   6      28.451  82.001  87.6970  0.00  0.00     0.000 C
ATOM     89   O  NAG B   6      28.900  79.754  87.0760  0.00  0.00     0.000 OA
ENDBRANCH 80 87
ATOM     90   O  NAG B   6      36.086  80.105  83.5250  0.00  0.00     0.000 O
ATOM     92  HD  NAG B   6      35.356  80.557  83.6430  0.00  0.00     0.000 HD
ATOM     92   O  NAG B   6      36.086  80.105  83.5250  0.00  0.00     0.000 O
ATOM     94  HD  NAG B   6      35.356  80.557  83.6430  0.00  0.00     0.000 HD
ENDBRANCH 78 81
ENDBRANCH 65 78
ENDBRANCH 64 68
ENDBRANCH 48 64
ENDBRANCH 47 50
ENDBRANCH 34 47
ENDBRANCH 33 37
ENDBRANCH 17 33
ENDBRANCH 16 19
ENDBRANCH 1 16
TORSDOF 16
ENDMDL
MODEL 100
REMARK VINA RESULT:      -0.8     50.270     56.122
ROOT
ATOM      1  C1  BDP B   1      21.563  22.783  76.2760  0.00  0.00     0.000 C
ATOM      2  C2  BDP B   1      20.191  23.313  76.6550  0.00  0.00     0.000 C
ATOM      3  C3  BDP B   1      19.687  22.713  77.9500  0.00  0.00     0.000 C
ATOM      4  C4  BDP B   1      20.762  22.006  78.7680  0.00  0.00     0.000 C
ATOM      5  C5  BDP B   1      21.629  21.076  77.9250  0.00  0.00     0.000 C
ATOM      6  O5  BDP B   1      21.550  21.385  76.5230  0.00  0.00     0.000 O
ATOM      7   O  BDP B   1      20.235  24.739  76.7710  0.00  0.00     0.000 O
ATOM      9  HD  BDP B   1      20.483  25.517  76.4830  0.00  0.00     0.000 HD
ATOM      9   O  BDP B   1      18.649  21.759  77.6770  0.00  0.00     0.000 O
ATOM     11  HD  BDP B   1      18.897  22.537  77.3890  0.00  0.00     0.000 HD
ATOM     11   O  BDP B   1      21.591  22.964  79.4380  0.00  0.00     0.000 O
ATOM     13  HD  BDP B   1      21.839  23.742  79.1500  0.00  0.00     0.000 HD
ENDROOT
BRANCH 5 13
ATOM     13   C  BDP B   1      21.145  19.688  78.1610  0.00  0.00     0.000 C
ATOM     14   O  BDP B   1      20.225  19.253  77.4370  0.00  0.00     0.000 OA
ATOM     15   O  BDP B   1      21.687  18.998  79.0510  0.00  0.00     0.000 OA
ENDBRANCH 5 13
BRANCH 1 16
ATOM     16  O3  NAG B   2      22.793  23.470  76.0540  0.00  0.00     0.000 O
BRANCH 16 19
ATOM     17  C1  NAG B   2      26.328  24.196  75.5710  0.00  0.00     0.000 C
ATOM     18  C2  NAG B   2      24.858  24.533  75.3180  0.00  0.00     0.000 C
ATOM     19  C3  NAG B   2      23.999  24.096  76.4960  0.00  0.00     0.000 C
ATOM     20  C4  NAG B   2      24.758  23.153  77.4330  0.00  0.00     0.000 C
ATOM     21  C5  NAG B   2      25.735  22.193  76.7400  0.00  0.00     0.000 C
ATOM     22  O5  NAG B   2      26.385  22.768  75.6000  0.00  0.00     0.000 O
ATOM     23   O  NAG B   2      25.457  23.940  78.4020  0.00  0.00     0.000 O
ATOM     25  HD  NAG B   2      25.703  24.547  77.8350  0.00  0.00     0.000 HD
ATOM     25   C  NAG B   2      25.014  20.912  76.2990  0.00  0.00     0.000 C
ATOM     26   O  NAG B   2      24.945  19.949  77.3600  0.00  0.00     0.000 O
ATOM     28  HD  NAG B   2      25.190  20.556  76.7930  0.00  0.00     0.000 HD
BRANCH 18 30
ATOM     28   N  NAG B   2      25.605  25.720  75.7320  0.00  0.00     0.000 N
ATOM     30  HD  NAG B   2      25.945  26.105  76.4290  0.00  0.00     0.000 HD
ATOM     30   C  NAG B   2      25.123  26.971  75.7270  0.00  0.00     0.000 C
ATOM     31   C  NAG B   2      26.091  28.023  76.1880  0.00  0.00     0.000 C
ATOM     32   O  NAG B   2      23.997  27.249  75.3870  0.00  0.00     0.000 OA
ENDBRANCH 18 30
BRANCH 17 33
ATOM     33  O4  BDP B   3      27.673  23.928  75.1180  0.00  0.00     0.000 O
BRANCH 33 37
ATOM     34  C1  BDP B   3      31.795  23.618  76.1920  0.00  0.00     0.000 C
ATOM     35  C2  BDP B   3      31.382  23.046  74.8410  0.00  0.00     0.000 C
ATOM     36  C3  BDP B   3      30.032  23.556  74.3490  0.00  0.00     0.000 C
ATOM     37  C4  BDP B   3      29.013  23.496  75.4960  0.00  0.00     0.000 C
ATOM     38  C5  BDP B   3      29.592  24.316  76.6650  0.00  0.00     0.000 C
ATOM     39  O5  BDP B   3      30.718  23.576  77.1350  0.00  0.00     0.000 O
ATOM     40   O  BDP B   3      32.442  23.357  73.9340  0.00  0.00     0.000 O
ATOM     42  HD  BDP B   3      32.773  22.659  74.3250  0.00  0.00     0.000 HD
ATOM     42   O  BDP B   3      29.652  22.720  73.2570  0.00  0.00     0.000 O
ATOM     44  HD  BDP B   3      29.983  22.022  73.6470  0.00  0.00     0.000 HD
BRANCH 38 44
ATOM     44   C  BDP B   3      28.633  24.549  77.7910  0.00  0.00     0.000 C
ATOM     45   O  BDP B   3      28.419  23.605  78.5830  0.00  0.00     0.000 OA
ATOM     46   O  BDP B   3      28.079  25.664  77.9100  0.00  0.00     0.000 OA
ENDBRANCH 38 44
BRANCH 34 47
ATOM     47  O3  NAG B   4      32.461  22.650  77.0000  0.00  0.00     0.000 O
BRANCH 47 50
ATOM     48  C1  NAG B   4      35.579  23.704  78.8220  0.00  0.00     0.000 C
ATOM     49  C2  NAG B   4      34.707  23.350  77.6300  0.00  0.00     0.000 C
ATOM     50  C3  NAG B   4      33.290  23.053  78.1100  0.00  0.00     0.000 C
ATOM     51  C4  NAG B   4      33.276  21.969  79.1750  0.00  0.00     0.000 C
ATOM     52  C5  NAG B   4      34.224  22.347  80.3130  0.00  0.00     0.000 C
ATOM     53  O5  NAG B   4      35.528  22.646  79.7990  0.00  0.00     0.000 O
ATOM     54   O  NAG B   4      31.940  21.811  79.6610  0.00  0.00     0.000 O
ATOM     56  HD  NAG B   4      32.460  21.160  79.8960  0.00  0.00     0.000 HD
ATOM     56   C  NAG B   4      34.331  21.225  81.3400  0.00  0.00     0.000 C
ATOM     57   O  NAG B   4      34.831  20.046  80.6940  0.00  0.00     0.000 O
ATOM     59  HD  NAG B   4      35.351  19.395  80.9300  0.00  0.00     0.000 HD
BRANCH 49 61
ATOM     59   N  NAG B   4      35.160  24.417  76.7370  0.00  0.00     0.000 N
ATOM     61  HD  NAG B   4      35.345  23.588  76.9050  0.00  0.00     0.000 HD
ATOM     61   O  NAG B   4      35.367  23.149  74.8800  0.00  0.00     0.000 OA
ATOM     62   C  NAG B   4      35.380  24.241  75.4290  0.00  0.00     0.000 C
ATOM     63   C  NAG B   4      35.629  25.487  74.6410  0.00  0.00     0.000 C
ENDBRANCH 49 61
BRANCH 48 64
ATOM     64  O4  BDP B   5      36.727  24.534  78.9710  0.00  0.00     0.000 O
BRANCH 64 68
ATOM     65  C1  BDP B   5      39.528  27.445  79.9970  0.00  0.00     0.000 C
ATOM     66  C2  BDP B   5      39.492  26.210  80.8880  0.00  0.00     0.000 C
ATOM     67  C3  BDP B   5      38.763  25.082  80.1700  0.00  0.00     0.000 C
ATOM     68  C4  BDP B   5      37.369  25.539  79.7550  0.00  0.00     0.000 C
ATOM     69  C5  BDP B   5      37.404  26.833  78.9520  0.00  0.00     0.000 C
ATOM     70  O5  BDP B   5      38.193  27.827  79.6290  0.00  0.00     0.000 O
ATOM     71   O  BDP B   5      40.832  25.834  81.2440  0.00  0.00     0.000 O
ATOM     73  HD  BDP B   5      41.659  25.640  81.4120  0.00  0.00     0.000 HD
ATOM     73   O  BDP B   5      38.650  23.935  81.0210  0.00  0.00     0.000 O
ATOM     75  HD  BDP B   5      39.477  23.740  81.1890  0.00  0.00     0.000 HD
BRANCH 69 75
ATOM     75   C  BDP B   5      35.990  27.332  78.7980  0.00  0.00     0.000 C
ATOM     76   O  BDP B   5      35.475  27.334  77.6610  0.00  0.00     0.000 OA
ATOM     77   O  BDP B   5      35.375  27.725  79.8070  0.00  0.00     0.000 OA
ENDBRANCH 69 75
BRANCH 65 78
ATOM     78  O3  NAG B   6      39.554  28.806  80.4340  0.00  0.00     0.000 O
BRANCH 78 81
ATOM     79  C1  NAG B   6      41.787  31.795  79.7870  0.00  0.00     0.000 C
ATOM     80  C2  NAG B   6      41.369  30.431  80.3580  0.00  0.00     0.000 C
ATOM     81  C3  NAG B   6      40.025  30.009  79.7880  0.00  0.00     0.000 C
ATOM     82  C4  NAG B   6      38.990  31.128  79.9470  0.00  0.00     0.000 C
ATOM     83  C5  NAG B   6      39.530  32.411  79.3260  0.00  0.00     0.000 C
ATOM     84  O5  NAG B   6      40.735  32.750  80.0140  0.00  0.00     0.000 O
BRANCH 80 87
ATOM     85   N  NAG B   6      42.491  29.530  80.1080  0.00  0.00     0.000 N
ATOM     87  HD  NAG B   6      43.282  29.244  80.3140  0.00  0.00     0.000 HD
ATOM     87   C  NAG B   6      42.883  28.569  80.9530  0.00  0.00     0.000 C
ATOM     88   C  NAG B   6      44.033  27.730  80.4940  0.00  0.00     0.000 C
ATOM     89   O  NAG B   6      42.339  28.365  82.0320  0.00  0.00     0.000 OA
ENDBRANCH 80 87
ATOM     90   O  NAG B   6      38.099  33.919  78.0920  0.00  0.00     0.000 O
ATOM     92  HD  NAG B   6      38.901  33.605  78.1820  0.00  0.00     0.000 HD
ATOM     92   O  NAG B   6      38.099  33.919  78.0920  0.00  0.00     0.000 O
ATOM     94  HD  NAG B   6      38.901  33.605  78.1820  0.00  0.00     0.000 HD
ENDBRANCH 78 81
ENDBRANCH 65 78
ENDBRANCH 64 68
ENDBRANCH 48 64
ENDBRANCH 47 50
ENDBRANCH 34 47
ENDBRANCH 33 37
ENDBRANCH 17 33
ENDBRANCH 16 19
ENDBRANCH 1 16
TORSDOF 16
ENDMDL
