MODEL 1
REMARK VINA RESULT:      -8.1      0.000      0.000
ROOT
ATOM      1  C1  GAD B   1      10.841  58.992  49.4870  0.00  0.00     0.000 C
ATOM      2  C2  GAD B   1      12.331  58.705  49.6890  0.00  0.00     0.000 C
ATOM      3  C3  GAD B   1      12.523  57.685  50.8180  0.00  0.00     0.000 C
ATOM      4  C4  GAD B   1      11.472  57.761  51.9280  0.00  0.00     0.000 C
ATOM      5  C5  GAD B   1      10.369  58.535  51.8770  0.00  0.00     0.000 C
ATOM      6  O5  GAD B   1      10.206  59.373  50.7170  0.00  0.00     0.000 O
ATOM      7   O  GAD B   1      12.974  58.289  48.4270  0.00  0.00     0.000 O
ATOM      9  HD  GAD B   1      12.240  58.618  48.1080  0.00  0.00     0.000 HD
ATOM      9   O  GAD B   1      13.804  57.846  51.4670  0.00  0.00     0.000 O
ATOM     11  HD  GAD B   1      13.069  58.175  51.1480  0.00  0.00     0.000 HD
ENDROOT
BRANCH 5 11
ATOM     11   C  GAD B   1       9.293  58.537  52.8960  0.00  0.00     0.000 C
ATOM     12   O  GAD B   1       9.613  58.176  54.0710  0.00  0.00     0.000 OA
ATOM     13   O  GAD B   1       8.084  58.817  52.5580  0.00  0.00     0.000 OA
ENDBRANCH 5 11
BRANCH 1 14
ATOM     14  O3  ASG B   2      10.363  60.102  48.8940  0.00  0.00     0.000 O
BRANCH 14 17
ATOM     15  C1  ASG B   2       7.251  61.099  46.9950  0.00  0.00     0.000 C
ATOM     16  C2  ASG B   2       8.711  60.660  47.1770  0.00  0.00     0.000 C
ATOM     17  C3  ASG B   2       9.009  60.514  48.6720  0.00  0.00     0.000 C
ATOM     18  C4  ASG B   2       8.754  61.829  49.3820  0.00  0.00     0.000 C
ATOM     19  C5  ASG B   2       7.333  62.294  49.0760  0.00  0.00     0.000 C
ATOM     20  O5  ASG B   2       7.129  62.348  47.6500  0.00  0.00     0.000 O
ATOM     21   C  ASG B   2       7.046  63.665  49.5990  0.00  0.00     0.000 C
ATOM     22   O  ASG B   2       5.808  64.105  49.0990  0.00  0.00     0.000 O
ATOM     24  HD  ASG B   2       5.071  64.500  48.8720  0.00  0.00     0.000 HD
BRANCH 16 26
ATOM     24   N  ASG B   2       9.110  59.433  46.5270  0.00  0.00     0.000 N
ATOM     26  HD  ASG B   2       8.405  59.874  46.2880  0.00  0.00     0.000 HD
ATOM     26   C  ASG B   2      10.286  59.263  45.8960  0.00  0.00     0.000 C
ATOM     27   C  ASG B   2      10.670  57.856  45.5910  0.00  0.00     0.000 C
ATOM     28   O  ASG B   2      10.997  60.213  45.5920  0.00  0.00     0.000 OA
ENDBRANCH 16 26
BRANCH 18 29
ATOM     29   O  ASG B   2       9.776  62.768  48.9010  0.00  0.00     0.000 O
ATOM     30   O  ASG B   2      10.007  63.934  51.0530  0.00  0.00     0.000 OA
ATOM     31   O  ASG B   2      11.745  62.412  50.3070  0.00  0.00     0.000 OA
ATOM     32   O  ASG B   2      11.416  64.522  49.1740  0.00  0.00     0.000 OA
ATOM     33   S  ASG B   2      10.799  63.441  49.9430  0.00  0.00     0.000 S
ENDBRANCH 18 29
BRANCH 15 34
ATOM     34  O4  ASG B   3       6.874  61.257  45.6580  0.00  0.00     0.000 O
BRANCH 34 38
ATOM     35  C1  GCT B   3       6.192  63.596  42.4280  0.00  0.00     0.000 C
ATOM     36  C2  GCT B   3       7.653  63.277  42.6600  0.00  0.00     0.000 C
ATOM     37  C3  GCT B   3       7.806  62.078  43.5850  0.00  0.00     0.000 C
ATOM     38  C4  GCT B   3       7.135  62.389  44.9290  0.00  0.00     0.000 C
ATOM     39  C5  GCT B   3       5.886  63.284  44.7600  0.00  0.00     0.000 C
ATOM     40  O5  GCT B   3       5.384  63.036  43.4580  0.00  0.00     0.000 O
ATOM     41   O  GCT B   3       8.211  62.989  41.3860  0.00  0.00     0.000 O
ATOM     43  HD  GCT B   3       8.450  63.499  40.7280  0.00  0.00     0.000 HD
ATOM     43   O  GCT B   3       9.210  61.774  43.7170  0.00  0.00     0.000 O
ATOM     45  HD  GCT B   3       9.450  62.284  43.0600  0.00  0.00     0.000 HD
BRANCH 39 45
ATOM     45   C  GCT B   3       6.037  64.776  44.9620  0.00  0.00     0.000 C
ATOM     46   O  GCT B   3       7.196  65.272  45.1290  0.00  0.00     0.000 OA
ATOM     47   O  GCT B   3       5.007  65.470  44.9420  0.00  0.00     0.000 OA
ENDBRANCH 39 45
BRANCH 35 48
ATOM     48  O3  ASG B   4       6.090  64.774  41.8520  0.00  0.00     0.000 O
BRANCH 48 51
ATOM     49  C1  ASG B   4       4.458  65.759  38.6810  0.00  0.00     0.000 C
ATOM     50  C2  ASG B   4       5.566  65.479  39.7100  0.00  0.00     0.000 C
ATOM     51  C3  ASG B   4       5.015  64.746  40.9300  0.00  0.00     0.000 C
ATOM     52  C4  ASG B   4       3.783  65.444  41.4810  0.00  0.00     0.000 C
ATOM     53  C5  ASG B   4       2.777  65.599  40.3440  0.00  0.00     0.000 C
ATOM     54  O5  ASG B   4       3.361  66.408  39.3040  0.00  0.00     0.000 O
BRANCH 50 57
ATOM     55   N  ASG B   4       6.576  64.709  39.0200  0.00  0.00     0.000 N
ATOM     57  HD  ASG B   4       6.846  65.331  38.4810  0.00  0.00     0.000 HD
ATOM     57   O  ASG B   4       7.837  66.480  38.4850  0.00  0.00     0.000 OA
ATOM     58   C  ASG B   4       7.696  65.263  38.5470  0.00  0.00     0.000 C
ATOM     59   C  ASG B   4       8.735  64.303  38.0520  0.00  0.00     0.000 C
ENDBRANCH 50 57
BRANCH 52 60
ATOM     60   O  ASG B   4       4.318  66.724  42.0130  0.00  0.00     0.000 O
ATOM     61   O  ASG B   4       2.435  66.988  43.6300  0.00  0.00     0.000 OA
ATOM     62   O  ASG B   4       4.250  68.528  43.6630  0.00  0.00     0.000 OA
ATOM     63   O  ASG B   4       2.828  68.443  41.7420  0.00  0.00     0.000 OA
ATOM     64   S  ASG B   4       3.401  67.715  42.8780  0.00  0.00     0.000 S
ENDBRANCH 52 60
ATOM     65   O  ASG B   4       0.469  66.035  39.7400  0.00  0.00     0.000 O
ATOM     67  HD  ASG B   4       0.730  66.598  39.1360  0.00  0.00     0.000 HD
ATOM     67   O  ASG B   4       0.469  66.035  39.7400  0.00  0.00     0.000 O
ATOM     69  HD  ASG B   4       0.730  66.598  39.1360  0.00  0.00     0.000 HD
ENDBRANCH 48 51
ENDBRANCH 35 48
ENDBRANCH 34 38
ENDBRANCH 15 34
ENDBRANCH 14 17
ENDBRANCH 1 14
TORSDOF 12
ENDMDL
MODEL 2
REMARK VINA RESULT:      -7.6     15.825     19.400
ROOT
ATOM      1  C1  GAD B   1      18.844  52.553  57.4650  0.00  0.00     0.000 C
ATOM      2  C2  GAD B   1      17.571  53.145  58.0760  0.00  0.00     0.000 C
ATOM      3  C3  GAD B   1      17.170  52.354  59.3270  0.00  0.00     0.000 C
ATOM      4  C4  GAD B   1      17.528  50.866  59.2790  0.00  0.00     0.000 C
ATOM      5  C5  GAD B   1      18.272  50.295  58.3110  0.00  0.00     0.000 C
ATOM      6  O5  GAD B   1      18.712  51.143  57.2330  0.00  0.00     0.000 O
ATOM      7   O  GAD B   1      17.720  54.590  58.3360  0.00  0.00     0.000 O
ATOM      9  HD  GAD B   1      18.397  54.472  57.8090  0.00  0.00     0.000 HD
ATOM      9   O  GAD B   1      15.745  52.416  59.5600  0.00  0.00     0.000 O
ATOM     11  HD  GAD B   1      16.422  52.298  59.0340  0.00  0.00     0.000 HD
ENDROOT
BRANCH 5 11
ATOM     11   C  GAD B   1      18.713  48.881  58.3100  0.00  0.00     0.000 C
ATOM     12   O  GAD B   1      19.380  48.487  57.3040  0.00  0.00     0.000 OA
ATOM     13   O  GAD B   1      18.352  48.091  59.2590  0.00  0.00     0.000 OA
ENDBRANCH 5 11
BRANCH 1 14
ATOM     14  O3  ASG B   2      19.216  52.732  56.1830  0.00  0.00     0.000 O
BRANCH 14 17
ATOM     15  C1  ASG B   2      19.375  50.805  52.9360  0.00  0.00     0.000 C
ATOM     16  C2  ASG B   2      19.923  51.493  54.1950  0.00  0.00     0.000 C
ATOM     17  C3  ASG B   2      18.756  52.079  54.9940  0.00  0.00     0.000 C
ATOM     18  C4  ASG B   2      17.985  53.066  54.1380  0.00  0.00     0.000 C
ATOM     19  C5  ASG B   2      17.565  52.379  52.8420  0.00  0.00     0.000 C
ATOM     20  O5  ASG B   2      18.718  51.811  52.1890  0.00  0.00     0.000 O
ATOM     21   C  ASG B   2      16.943  53.322  51.8620  0.00  0.00     0.000 C
ATOM     22   O  ASG B   2      16.781  52.670  50.6270  0.00  0.00     0.000 O
ATOM     24  HD  ASG B   2      16.621  52.398  49.8200  0.00  0.00     0.000 HD
BRANCH 16 26
ATOM     24   N  ASG B   2      20.728  50.669  55.0670  0.00  0.00     0.000 N
ATOM     26  HD  ASG B   2      20.607  50.477  54.2310  0.00  0.00     0.000 HD
ATOM     26   C  ASG B   2      21.828  51.103  55.7090  0.00  0.00     0.000 C
ATOM     27   C  ASG B   2      22.325  50.237  56.8150  0.00  0.00     0.000 C
ATOM     28   O  ASG B   2      22.384  52.149  55.3990  0.00  0.00     0.000 OA
ENDBRANCH 16 26
BRANCH 18 29
ATOM     29   O  ASG B   2      18.878  54.210  53.9130  0.00  0.00     0.000 O
ATOM     30   O  ASG B   2      17.071  55.876  53.8920  0.00  0.00     0.000 OA
ATOM     31   O  ASG B   2      18.549  55.717  55.8110  0.00  0.00     0.000 OA
ATOM     32   O  ASG B   2      19.385  56.564  53.7070  0.00  0.00     0.000 OA
ATOM     33   S  ASG B   2      18.426  55.682  54.3730  0.00  0.00     0.000 S
ENDBRANCH 18 29
BRANCH 15 34
ATOM     34  O4  ASG B   3      20.367  50.228  52.1350  0.00  0.00     0.000 O
BRANCH 34 38
ATOM     35  C1  GCT B   3      22.734  50.378  48.8580  0.00  0.00     0.000 C
ATOM     36  C2  GCT B   3      23.323  51.057  50.0750  0.00  0.00     0.000 C
ATOM     37  C3  GCT B   3      22.619  50.601  51.3440  0.00  0.00     0.000 C
ATOM     38  C4  GCT B   3      21.127  50.943  51.2450  0.00  0.00     0.000 C
ATOM     39  C5  GCT B   3      20.602  50.832  49.7950  0.00  0.00     0.000 C
ATOM     40  O5  GCT B   3      21.428  49.886  49.1380  0.00  0.00     0.000 O
ATOM     41   O  GCT B   3      24.695  50.694  50.1140  0.00  0.00     0.000 O
ATOM     43  HD  GCT B   3      25.381  50.964  49.6600  0.00  0.00     0.000 HD
ATOM     43   O  GCT B   3      23.263  51.223  52.4760  0.00  0.00     0.000 O
ATOM     45  HD  GCT B   3      23.949  51.493  52.0220  0.00  0.00     0.000 HD
BRANCH 39 45
ATOM     45   C  GCT B   3      20.522  52.091  48.9600  0.00  0.00     0.000 C
ATOM     46   O  GCT B   3      20.960  53.187  49.4340  0.00  0.00     0.000 OA
ATOM     47   O  GCT B   3      20.035  51.999  47.8210  0.00  0.00     0.000 OA
ENDBRANCH 39 45
BRANCH 35 48
ATOM     48  O3  ASG B   4      23.170  50.977  47.7710  0.00  0.00     0.000 O
BRANCH 48 51
ATOM     49  C1  ASG B   4      24.531  49.070  44.9070  0.00  0.00     0.000 C
ATOM     50  C2  ASG B   4      24.478  49.827  46.2450  0.00  0.00     0.000 C
ATOM     51  C3  ASG B   4      23.037  50.093  46.6710  0.00  0.00     0.000 C
ATOM     52  C4  ASG B   4      22.234  50.718  45.5420  0.00  0.00     0.000 C
ATOM     53  C5  ASG B   4      22.362  49.819  44.3150  0.00  0.00     0.000 C
ATOM     54  O5  ASG B   4      23.749  49.738  43.9310  0.00  0.00     0.000 O
BRANCH 50 57
ATOM     55   N  ASG B   4      25.235  48.909  47.0650  0.00  0.00     0.000 N
ATOM     57  HD  ASG B   4      26.017  49.078  46.7340  0.00  0.00     0.000 HD
ATOM     57   O  ASG B   4      27.145  50.072  46.9420  0.00  0.00     0.000 OA
ATOM     58   C  ASG B   4      26.493  49.158  47.4390  0.00  0.00     0.000 C
ATOM     59   C  ASG B   4      27.063  48.221  48.4590  0.00  0.00     0.000 C
ENDBRANCH 50 57
BRANCH 52 60
ATOM     60   O  ASG B   4      22.843  52.064  45.3870  0.00  0.00     0.000 O
ATOM     61   O  ASG B   4      20.664  53.120  44.7790  0.00  0.00     0.000 OA
ATOM     62   O  ASG B   4      22.600  54.477  45.0650  0.00  0.00     0.000 OA
ATOM     63   O  ASG B   4      22.540  52.894  43.2740  0.00  0.00     0.000 OA
ATOM     64   S  ASG B   4      22.075  53.243  44.6190  0.00  0.00     0.000 S
ENDBRANCH 52 60
ATOM     65   O  ASG B   4      21.461  49.236  42.1410  0.00  0.00     0.000 O
ATOM     67  HD  ASG B   4      22.259  49.237  41.8060  0.00  0.00     0.000 HD
ATOM     67   O  ASG B   4      21.461  49.236  42.1410  0.00  0.00     0.000 O
ATOM     69  HD  ASG B   4      22.259  49.237  41.8060  0.00  0.00     0.000 HD
ENDBRANCH 48 51
ENDBRANCH 35 48
ENDBRANCH 34 38
ENDBRANCH 15 34
ENDBRANCH 14 17
ENDBRANCH 1 14
TORSDOF 12
ENDMDL
MODEL 3
REMARK VINA RESULT:      -7.6      5.398     10.204
ROOT
ATOM      1  C1  GAD B   1       4.409  64.713  43.0180  0.00  0.00     0.000 C
ATOM      2  C2  GAD B   1       5.328  63.659  42.3920  0.00  0.00     0.000 C
ATOM      3  C3  GAD B   1       5.828  62.690  43.4700  0.00  0.00     0.000 C
ATOM      4  C4  GAD B   1       6.005  63.318  44.8550  0.00  0.00     0.000 C
ATOM      5  C5  GAD B   1       5.616  64.567  45.1780  0.00  0.00     0.000 C
ATOM      6  O5  GAD B   1       5.039  65.369  44.1290  0.00  0.00     0.000 O
ATOM      7   O  GAD B   1       4.667  62.970  41.2660  0.00  0.00     0.000 O
ATOM      9  HD  GAD B   1       4.135  63.649  41.3470  0.00  0.00     0.000 HD
ATOM      9   O  GAD B   1       7.111  62.123  43.1210  0.00  0.00     0.000 O
ATOM     11  HD  GAD B   1       6.578  62.801  43.2010  0.00  0.00     0.000 HD
ENDROOT
BRANCH 5 11
ATOM     11   C  GAD B   1       5.685  65.147  46.5400  0.00  0.00     0.000 C
ATOM     12   O  GAD B   1       6.538  64.645  47.3360  0.00  0.00     0.000 OA
ATOM     13   O  GAD B   1       4.851  66.060  46.8960  0.00  0.00     0.000 OA
ENDBRANCH 5 11
BRANCH 1 14
ATOM     14  O3  ASG B   2       4.147  65.909  42.4580  0.00  0.00     0.000 O
BRANCH 14 17
ATOM     15  C1  ASG B   2       3.808  67.349  38.9810  0.00  0.00     0.000 C
ATOM     16  C2  ASG B   2       4.495  67.048  40.3200  0.00  0.00     0.000 C
ATOM     17  C3  ASG B   2       3.549  66.220  41.1940  0.00  0.00     0.000 C
ATOM     18  C4  ASG B   2       2.253  66.976  41.4160  0.00  0.00     0.000 C
ATOM     19  C5  ASG B   2       1.665  67.365  40.0630  0.00  0.00     0.000 C
ATOM     20  O5  ASG B   2       2.643  68.091  39.2910  0.00  0.00     0.000 O
ATOM     21   C  ASG B   2       0.472  68.258  40.1860  0.00  0.00     0.000 C
ATOM     22   O  ASG B   2       0.120  68.743  38.9130  0.00  0.00     0.000 O
ATOM     24  HD  ASG B   2      -0.208  69.112  38.2020  0.00  0.00     0.000 HD
BRANCH 16 26
ATOM     24   N  ASG B   2       5.812  66.474  40.1650  0.00  0.00     0.000 N
ATOM     26  HD  ASG B   2       5.473  67.018  39.5830  0.00  0.00     0.000 HD
ATOM     26   C  ASG B   2       6.819  66.653  41.0400  0.00  0.00     0.000 C
ATOM     27   C  ASG B   2       7.977  65.725  40.9060  0.00  0.00     0.000 C
ATOM     28   O  ASG B   2       6.781  67.529  41.8960  0.00  0.00     0.000 OA
ENDBRANCH 16 26
BRANCH 18 29
ATOM     29   O  ASG B   2       2.586  68.139  42.2490  0.00  0.00     0.000 O
ATOM     30   O  ASG B   2       0.424  68.177  43.4180  0.00  0.00     0.000 OA
ATOM     31   O  ASG B   2       2.411  67.390  44.5700  0.00  0.00     0.000 OA
ATOM     32   O  ASG B   2       2.179  69.733  44.0190  0.00  0.00     0.000 OA
ATOM     33   S  ASG B   2       1.844  68.355  43.6580  0.00  0.00     0.000 S
ENDBRANCH 18 29
BRANCH 15 34
ATOM     34  O4  ASG B   3       4.595  68.102  38.1020  0.00  0.00     0.000 O
BRANCH 34 38
ATOM     35  C1  GCT B   3       6.394  65.829  35.2810  0.00  0.00     0.000 C
ATOM     36  C2  GCT B   3       6.495  67.317  35.0290  0.00  0.00     0.000 C
ATOM     37  C3  GCT B   3       6.202  68.103  36.2990  0.00  0.00     0.000 C
ATOM     38  C4  GCT B   3       4.788  67.765  36.7860  0.00  0.00     0.000 C
ATOM     39  C5  GCT B   3       4.407  66.297  36.4890  0.00  0.00     0.000 C
ATOM     40  O5  GCT B   3       5.620  65.566  36.4460  0.00  0.00     0.000 O
ATOM     41   O  GCT B   3       7.824  67.563  34.5920  0.00  0.00     0.000 O
ATOM     43  HD  GCT B   3       8.220  67.431  33.8330  0.00  0.00     0.000 HD
ATOM     43   O  GCT B   3       6.380  69.508  36.0220  0.00  0.00     0.000 O
ATOM     45  HD  GCT B   3       6.775  69.376  35.2630  0.00  0.00     0.000 HD
BRANCH 39 45
ATOM     45   C  GCT B   3       3.600  66.001  35.2440  0.00  0.00     0.000 C
ATOM     46   O  GCT B   3       3.330  64.796  34.9440  0.00  0.00     0.000 OA
ATOM     47   O  GCT B   3       3.217  66.965  34.5610  0.00  0.00     0.000 OA
ENDBRANCH 39 45
BRANCH 35 48
ATOM     48  O3  ASG B   4       6.389  65.192  34.1300  0.00  0.00     0.000 O
BRANCH 48 51
ATOM     49  C1  ASG B   4       8.580  62.225  33.8290  0.00  0.00     0.000 C
ATOM     50  C2  ASG B   4       8.141  63.698  33.8830  0.00  0.00     0.000 C
ATOM     51  C3  ASG B   4       6.695  63.827  34.3560  0.00  0.00     0.000 C
ATOM     52  C4  ASG B   4       5.775  62.906  33.5710  0.00  0.00     0.000 C
ATOM     53  C5  ASG B   4       6.334  61.489  33.6600  0.00  0.00     0.000 C
ATOM     54  O5  ASG B   4       7.651  61.462  33.0760  0.00  0.00     0.000 O
BRANCH 50 57
ATOM     55   N  ASG B   4       9.169  64.195  34.7690  0.00  0.00     0.000 N
ATOM     57  HD  ASG B   4       9.826  64.176  34.2040  0.00  0.00     0.000 HD
ATOM     57   O  ASG B   4      10.425  65.069  33.1340  0.00  0.00     0.000 OA
ATOM     58   C  ASG B   4      10.189  64.939  34.3310  0.00  0.00     0.000 C
ATOM     59   C  ASG B   4      11.046  65.553  35.3950  0.00  0.00     0.000 C
ENDBRANCH 50 57
BRANCH 52 60
ATOM     60   O  ASG B   4       5.785  63.489  32.2040  0.00  0.00     0.000 O
ATOM     61   O  ASG B   4       3.309  63.283  31.9590  0.00  0.00     0.000 OA
ATOM     62   O  ASG B   4       4.581  64.373  30.2670  0.00  0.00     0.000 OA
ATOM     63   O  ASG B   4       4.920  62.038  30.6570  0.00  0.00     0.000 OA
ATOM     64   S  ASG B   4       4.527  63.333  31.2220  0.00  0.00     0.000 S
ENDBRANCH 52 60
ATOM     65   O  ASG B   4       5.882  59.123  33.3780  0.00  0.00     0.000 O
ATOM     67  HD  ASG B   4       6.628  59.028  32.9480  0.00  0.00     0.000 HD
ATOM     67   O  ASG B   4       5.882  59.123  33.3780  0.00  0.00     0.000 O
ATOM     69  HD  ASG B   4       6.628  59.028  32.9480  0.00  0.00     0.000 HD
ENDBRANCH 48 51
ENDBRANCH 35 48
ENDBRANCH 34 38
ENDBRANCH 15 34
ENDBRANCH 14 17
ENDBRANCH 1 14
TORSDOF 12
ENDMDL
MODEL 4
REMARK VINA RESULT:      -7.3      2.581      5.139
ROOT
ATOM      1  C1  GAD B   1      10.036  61.479  50.2540  0.00  0.00     0.000 C
ATOM      2  C2  GAD B   1       9.859  62.833  50.9490  0.00  0.00     0.000 C
ATOM      3  C3  GAD B   1      10.313  62.738  52.4100  0.00  0.00     0.000 C
ATOM      4  C4  GAD B   1      10.091  61.368  53.0570  0.00  0.00     0.000 C
ATOM      5  C5  GAD B   1       9.682  60.271  52.3890  0.00  0.00     0.000 C
ATOM      6  O5  GAD B   1       9.395  60.423  50.9850  0.00  0.00     0.000 O
ATOM      7   O  GAD B   1      10.540  63.911  50.2070  0.00  0.00     0.000 O
ATOM      9  HD  GAD B   1      10.540  63.299  49.5950  0.00  0.00     0.000 HD
ATOM      9   O  GAD B   1       9.619  63.692  53.2450  0.00  0.00     0.000 O
ATOM     11  HD  GAD B   1       9.619  63.080  52.6330  0.00  0.00     0.000 HD
ENDROOT
BRANCH 5 11
ATOM     11   C  GAD B   1       9.566  58.918  52.9810  0.00  0.00     0.000 C
ATOM     12   O  GAD B   1      10.644  58.358  53.3530  0.00  0.00     0.000 OA
ATOM     13   O  GAD B   1       8.423  58.329  53.0270  0.00  0.00     0.000 OA
ENDBRANCH 5 11
BRANCH 1 14
ATOM     14  O3  ASG B   2       9.374  61.113  49.1410  0.00  0.00     0.000 O
BRANCH 14 17
ATOM     15  C1  ASG B   2       8.404  62.483  45.7550  0.00  0.00     0.000 C
ATOM     16  C2  ASG B   2       8.183  62.004  47.1970  0.00  0.00     0.000 C
ATOM     17  C3  ASG B   2       9.526  61.567  47.7910  0.00  0.00     0.000 C
ATOM     18  C4  ASG B   2      10.131  60.462  46.9460  0.00  0.00     0.000 C
ATOM     19  C5  ASG B   2      10.218  60.932  45.4980  0.00  0.00     0.000 C
ATOM     20  O5  ASG B   2       8.923  61.375  45.0440  0.00  0.00     0.000 O
ATOM     21   C  ASG B   2      10.648  59.848  44.5620  0.00  0.00     0.000 C
ATOM     22   O  ASG B   2      10.500  60.292  43.2360  0.00  0.00     0.000 O
ATOM     24  HD  ASG B   2      10.463  60.429  42.3810  0.00  0.00     0.000 HD
BRANCH 16 26
ATOM     24   N  ASG B   2       7.571  62.949  48.1020  0.00  0.00     0.000 N
ATOM     26  HD  ASG B   2       7.501  63.021  47.2420  0.00  0.00     0.000 HD
ATOM     26   C  ASG B   2       6.649  62.618  49.0250  0.00  0.00     0.000 C
ATOM     27   C  ASG B   2       6.387  63.635  50.0830  0.00  0.00     0.000 C
ATOM     28   O  ASG B   2       6.064  61.543  48.9950  0.00  0.00     0.000 OA
ENDBRANCH 16 26
BRANCH 18 29
ATOM     29   O  ASG B   2       9.264  59.288  47.1140  0.00  0.00     0.000 O
ATOM     30   O  ASG B   2      11.076  57.654  46.8130  0.00  0.00     0.000 OA
ATOM     31   O  ASG B   2      10.154  58.048  49.0240  0.00  0.00     0.000 OA
ATOM     32   O  ASG B   2       8.830  56.922  47.3440  0.00  0.00     0.000 OA
ATOM     33   S  ASG B   2       9.889  57.894  47.6130  0.00  0.00     0.000 S
ENDBRANCH 18 29
BRANCH 15 34
ATOM     34  O4  ASG B   3       7.233  62.912  45.1200  0.00  0.00     0.000 O
BRANCH 34 38
ATOM     35  C1  GCT B   3       6.050  64.471  41.5800  0.00  0.00     0.000 C
ATOM     36  C2  GCT B   3       5.383  63.158  41.9280  0.00  0.00     0.000 C
ATOM     37  C3  GCT B   3       5.525  62.856  43.4130  0.00  0.00     0.000 C
ATOM     38  C4  GCT B   3       7.013  62.779  43.7730  0.00  0.00     0.000 C
ATOM     39  C5  GCT B   3       7.863  63.763  42.9360  0.00  0.00     0.000 C
ATOM     40  O5  GCT B   3       7.005  64.830  42.5720  0.00  0.00     0.000 O
ATOM     41   O  GCT B   3       4.013  63.297  41.5820  0.00  0.00     0.000 O
ATOM     43  HD  GCT B   3       3.601  63.278  40.8200  0.00  0.00     0.000 HD
ATOM     43   O  GCT B   3       4.814  61.633  43.7030  0.00  0.00     0.000 O
ATOM     45  HD  GCT B   3       4.403  61.613  42.9410  0.00  0.00     0.000 HD
BRANCH 39 45
ATOM     45   C  GCT B   3       8.561  63.239  41.7000  0.00  0.00     0.000 C
ATOM     46   O  GCT B   3       9.070  64.059  40.8720  0.00  0.00     0.000 OA
ATOM     47   O  GCT B   3       8.622  62.008  41.5480  0.00  0.00     0.000 OA
ENDBRANCH 39 45
BRANCH 35 48
ATOM     48  O3  ASG B   4       6.144  64.578  40.2720  0.00  0.00     0.000 O
BRANCH 48 51
ATOM     49  C1  ASG B   4       4.247  67.412  38.8370  0.00  0.00     0.000 C
ATOM     50  C2  ASG B   4       4.537  66.052  39.4940  0.00  0.00     0.000 C
ATOM     51  C3  ASG B   4       6.002  65.940  39.9090  0.00  0.00     0.000 C
ATOM     52  C4  ASG B   4       6.928  66.317  38.7640  0.00  0.00     0.000 C
ATOM     53  C5  ASG B   4       6.529  67.703  38.2670  0.00  0.00     0.000 C
ATOM     54  O5  ASG B   4       5.170  67.659  37.7890  0.00  0.00     0.000 O
BRANCH 50 57
ATOM     55   N  ASG B   4       3.276  66.665  39.8400  0.00  0.00     0.000 N
ATOM     57  HD  ASG B   4       2.764  66.151  39.3670  0.00  0.00     0.000 HD
ATOM     57   O  ASG B   4       2.063  64.813  39.5070  0.00  0.00     0.000 OA
ATOM     58   C  ASG B   4       2.140  65.965  39.9210  0.00  0.00     0.000 C
ATOM     59   C  ASG B   4       0.968  66.697  40.4980  0.00  0.00     0.000 C
ENDBRANCH 50 57
BRANCH 52 60
ATOM     60   O  ASG B   4       6.725  65.224  37.7790  0.00  0.00     0.000 O
ATOM     61   O  ASG B   4       9.171  64.757  37.5980  0.00  0.00     0.000 OA
ATOM     62   O  ASG B   4       7.610  63.357  36.4700  0.00  0.00     0.000 OA
ATOM     63   O  ASG B   4       7.813  65.646  35.8080  0.00  0.00     0.000 OA
ATOM     64   S  ASG B   4       7.937  64.665  36.8910  0.00  0.00     0.000 S
ENDBRANCH 52 60
ATOM     65   O  ASG B   4       7.189  69.651  36.9820  0.00  0.00     0.000 O
ATOM     67  HD  ASG B   4       6.417  69.656  36.5880  0.00  0.00     0.000 HD
ATOM     67   O  ASG B   4       7.189  69.651  36.9820  0.00  0.00     0.000 O
ATOM     69  HD  ASG B   4       6.417  69.656  36.5880  0.00  0.00     0.000 HD
ENDBRANCH 48 51
ENDBRANCH 35 48
ENDBRANCH 34 38
ENDBRANCH 15 34
ENDBRANCH 14 17
ENDBRANCH 1 14
TORSDOF 12
ENDMDL
MODEL 5
REMARK VINA RESULT:      -7.2      3.991     11.223
ROOT
ATOM      1  C1  GAD B   1      10.131  61.483  44.4900  0.00  0.00     0.000 C
ATOM      2  C2  GAD B   1      10.575  62.907  44.1440  0.00  0.00     0.000 C
ATOM      3  C3  GAD B   1      11.928  62.876  43.4220  0.00  0.00     0.000 C
ATOM      4  C4  GAD B   1      12.851  61.733  43.8530  0.00  0.00     0.000 C
ATOM      5  C5  GAD B   1      12.484  60.730  44.6750  0.00  0.00     0.000 C
ATOM      6  O5  GAD B   1      11.149  60.773  45.2110  0.00  0.00     0.000 O
ATOM      7   O  GAD B   1       9.536  63.625  43.3800  0.00  0.00     0.000 O
ATOM      9  HD  GAD B   1       9.061  62.965  43.6770  0.00  0.00     0.000 HD
ATOM      9   O  GAD B   1      12.673  64.096  43.6370  0.00  0.00     0.000 O
ATOM     11  HD  GAD B   1      12.197  63.435  43.9340  0.00  0.00     0.000 HD
ENDROOT
BRANCH 5 11
ATOM     11   C  GAD B   1      13.334  59.564  45.0130  0.00  0.00     0.000 C
ATOM     12   O  GAD B   1      14.585  59.769  45.0980  0.00  0.00     0.000 OA
ATOM     13   O  GAD B   1      12.810  58.395  45.1290  0.00  0.00     0.000 OA
ENDBRANCH 5 11
BRANCH 1 14
ATOM     14  O3  ASG B   2       9.238  61.187  45.4530  0.00  0.00     0.000 O
BRANCH 14 17
ATOM     15  C1  ASG B   2       8.027  61.871  48.9660  0.00  0.00     0.000 C
ATOM     16  C2  ASG B   2       8.426  61.017  47.7550  0.00  0.00     0.000 C
ATOM     17  C3  ASG B   2       8.852  61.939  46.6090  0.00  0.00     0.000 C
ATOM     18  C4  ASG B   2       7.717  62.879  46.2500  0.00  0.00     0.000 C
ATOM     19  C5  ASG B   2       7.266  63.619  47.5060  0.00  0.00     0.000 C
ATOM     20  O5  ASG B   2       6.940  62.674  48.5450  0.00  0.00     0.000 O
ATOM     21   C  ASG B   2       6.041  64.446  47.2830  0.00  0.00     0.000 C
ATOM     22   O  ASG B   2       5.567  64.920  48.5200  0.00  0.00     0.000 O
ATOM     24  HD  ASG B   2       5.169  65.280  49.1990  0.00  0.00     0.000 HD
BRANCH 16 26
ATOM     24   N  ASG B   2       8.405  59.627  47.3600  0.00  0.00     0.000 N
ATOM     26  HD  ASG B   2       8.237  60.269  46.8030  0.00  0.00     0.000 HD
ATOM     26   C  ASG B   2       9.467  58.805  47.4450  0.00  0.00     0.000 C
ATOM     27   C  ASG B   2       9.179  57.348  47.3240  0.00  0.00     0.000 C
ATOM     28   O  ASG B   2      10.602  59.234  47.6130  0.00  0.00     0.000 OA
ENDBRANCH 16 26
BRANCH 18 29
ATOM     29   O  ASG B   2       6.655  62.047  45.6670  0.00  0.00     0.000 O
ATOM     30   O  ASG B   2       5.742  63.844  44.2600  0.00  0.00     0.000 OA
ATOM     31   O  ASG B   2       7.034  62.053  43.2510  0.00  0.00     0.000 OA
ATOM     32   O  ASG B   2       4.833  61.602  44.1450  0.00  0.00     0.000 OA
ATOM     33   S  ASG B   2       6.040  62.424  44.2310  0.00  0.00     0.000 S
ENDBRANCH 18 29
BRANCH 15 34
ATOM     34  O4  ASG B   3       7.624  61.120  50.0760  0.00  0.00     0.000 O
BRANCH 34 38
ATOM     35  C1  GCT B   3      10.992  59.140  51.1230  0.00  0.00     0.000 C
ATOM     36  C2  GCT B   3       9.757  58.694  51.8740  0.00  0.00     0.000 C
ATOM     37  C3  GCT B   3       8.493  59.140  51.1520  0.00  0.00     0.000 C
ATOM     38  C4  GCT B   3       8.492  60.669  51.0370  0.00  0.00     0.000 C
ATOM     39  C5  GCT B   3       9.918  61.239  50.8600  0.00  0.00     0.000 C
ATOM     40  O5  GCT B   3      10.687  60.219  50.2460  0.00  0.00     0.000 O
ATOM     41   O  GCT B   3       9.814  57.276  51.9370  0.00  0.00     0.000 O
ATOM     43  HD  GCT B   3      10.279  56.734  52.4270  0.00  0.00     0.000 HD
ATOM     43   O  GCT B   3       7.349  58.631  51.8700  0.00  0.00     0.000 O
ATOM     45  HD  GCT B   3       7.815  58.089  52.3600  0.00  0.00     0.000 HD
BRANCH 39 45
ATOM     45   C  GCT B   3      10.647  61.746  52.0850  0.00  0.00     0.000 C
ATOM     46   O  GCT B   3      10.089  61.668  53.2250  0.00  0.00     0.000 OA
ATOM     47   O  GCT B   3      11.786  62.215  51.9270  0.00  0.00     0.000 OA
ENDBRANCH 39 45
BRANCH 35 48
ATOM     48  O3  ASG B   4      12.050  58.978  51.8890  0.00  0.00     0.000 O
BRANCH 48 51
ATOM     49  C1  ASG B   4      14.854  56.573  52.0920  0.00  0.00     0.000 C
ATOM     50  C2  ASG B   4      13.765  57.564  52.5360  0.00  0.00     0.000 C
ATOM     51  C3  ASG B   4      12.826  57.906  51.3830  0.00  0.00     0.000 C
ATOM     52  C4  ASG B   4      13.603  58.312  50.1420  0.00  0.00     0.000 C
ATOM     53  C5  ASG B   4      14.600  57.202  49.8210  0.00  0.00     0.000 C
ATOM     54  O5  ASG B   4      15.510  57.051  50.9290  0.00  0.00     0.000 O
BRANCH 50 57
ATOM     55   N  ASG B   4      12.900  57.207  53.6370  0.00  0.00     0.000 N
ATOM     57  HD  ASG B   4      13.516  57.093  54.2350  0.00  0.00     0.000 HD
ATOM     57   O  ASG B   4      14.301  57.931  55.2260  0.00  0.00     0.000 OA
ATOM     58   C  ASG B   4      13.193  57.516  54.9040  0.00  0.00     0.000 C
ATOM     59   C  ASG B   4      12.101  57.270  55.8990  0.00  0.00     0.000 C
ENDBRANCH 50 57
BRANCH 52 60
ATOM     60   O  ASG B   4      14.222  59.607  50.5280  0.00  0.00     0.000 O
ATOM     61   O  ASG B   4      13.430  60.751  48.4550  0.00  0.00     0.000 OA
ATOM     62   O  ASG B   4      14.535  62.003  50.1520  0.00  0.00     0.000 OA
ATOM     63   O  ASG B   4      15.749  60.313  48.9740  0.00  0.00     0.000 OA
ATOM     64   S  ASG B   4      14.445  60.777  49.4550  0.00  0.00     0.000 S
ENDBRANCH 52 60
ATOM     65   O  ASG B   4      16.065  56.228  48.1520  0.00  0.00     0.000 O
ATOM     67  HD  ASG B   4      16.698  56.167  48.7390  0.00  0.00     0.000 HD
ATOM     67   O  ASG B   4      16.065  56.228  48.1520  0.00  0.00     0.000 O
ATOM     69  HD  ASG B   4      16.698  56.167  48.7390  0.00  0.00     0.000 HD
ENDBRANCH 48 51
ENDBRANCH 35 48
ENDBRANCH 34 38
ENDBRANCH 15 34
ENDBRANCH 14 17
ENDBRANCH 1 14
TORSDOF 12
ENDMDL
MODEL 6
REMARK VINA RESULT:      -7.1      4.788     12.273
ROOT
ATOM      1  C1  GAD B   1       7.012  63.041  32.7780  0.00  0.00     0.000 C
ATOM      2  C2  GAD B   1       7.891  61.883  32.2970  0.00  0.00     0.000 C
ATOM      3  C3  GAD B   1       7.014  60.735  31.7830  0.00  0.00     0.000 C
ATOM      4  C4  GAD B   1       5.668  60.595  32.4990  0.00  0.00     0.000 C
ATOM      5  C5  GAD B   1       5.190  61.479  33.3970  0.00  0.00     0.000 C
ATOM      6  O5  GAD B   1       6.032  62.599  33.7300  0.00  0.00     0.000 O
ATOM      7   O  GAD B   1       8.880  62.336  31.3000  0.00  0.00     0.000 O
ATOM      9  HD  GAD B   1       8.641  63.105  31.6200  0.00  0.00     0.000 HD
ATOM      9   O  GAD B   1       7.676  59.457  31.9230  0.00  0.00     0.000 O
ATOM     11  HD  GAD B   1       7.437  60.226  32.2420  0.00  0.00     0.000 HD
ENDROOT
BRANCH 5 11
ATOM     11   C  GAD B   1       3.846  61.411  34.0160  0.00  0.00     0.000 C
ATOM     12   O  GAD B   1       3.271  60.278  34.0180  0.00  0.00     0.000 OA
ATOM     13   O  GAD B   1       3.278  62.481  34.4470  0.00  0.00     0.000 OA
ENDBRANCH 5 11
BRANCH 1 14
ATOM     14  O3  ASG B   2       7.425  63.990  33.6400  0.00  0.00     0.000 O
BRANCH 14 17
ATOM     15  C1  ASG B   2       6.396  65.468  36.9620  0.00  0.00     0.000 C
ATOM     16  C2  ASG B   2       6.577  65.416  35.4380  0.00  0.00     0.000 C
ATOM     17  C3  ASG B   2       7.237  64.088  35.0560  0.00  0.00     0.000 C
ATOM     18  C4  ASG B   2       8.576  63.955  35.7580  0.00  0.00     0.000 C
ATOM     19  C5  ASG B   2       8.371  64.136  37.2590  0.00  0.00     0.000 C
ATOM     20  O5  ASG B   2       7.695  65.382  37.5170  0.00  0.00     0.000 O
ATOM     21   C  ASG B   2       9.659  64.185  38.0170  0.00  0.00     0.000 C
ATOM     22   O  ASG B   2       9.403  64.565  39.3460  0.00  0.00     0.000 O
ATOM     24  HD  ASG B   2       9.395  64.784  40.1840  0.00  0.00     0.000 HD
BRANCH 16 26
ATOM     24   N  ASG B   2       6.421  66.268  34.2810  0.00  0.00     0.000 N
ATOM     26  HD  ASG B   2       7.056  65.682  34.3420  0.00  0.00     0.000 HD
ATOM     26   C  ASG B   2       5.325  66.285  33.5010  0.00  0.00     0.000 C
ATOM     27   C  ASG B   2       5.197  67.447  32.5770  0.00  0.00     0.000 C
ATOM     28   O  ASG B   2       4.484  65.396  33.5520  0.00  0.00     0.000 OA
ENDBRANCH 16 26
BRANCH 18 29
ATOM     29   O  ASG B   2       9.456  64.976  35.1750  0.00  0.00     0.000 O
ATOM     30   O  ASG B   2      11.501  63.631  35.3990  0.00  0.00     0.000 OA
ATOM     31   O  ASG B   2      10.492  63.946  33.2140  0.00  0.00     0.000 OA
ATOM     32   O  ASG B   2      11.564  65.803  34.3310  0.00  0.00     0.000 OA
ATOM     33   S  ASG B   2      10.840  64.541  34.4830  0.00  0.00     0.000 S
ENDBRANCH 18 29
BRANCH 15 34
ATOM     34  O4  ASG B   3       5.793  66.645  37.4160  0.00  0.00     0.000 O
BRANCH 34 38
ATOM     35  C1  GCT B   3       5.468  65.443  41.2650  0.00  0.00     0.000 C
ATOM     36  C2  GCT B   3       4.144  65.556  40.5420  0.00  0.00     0.000 C
ATOM     37  C3  GCT B   3       4.351  65.577  39.0340  0.00  0.00     0.000 C
ATOM     38  C4  GCT B   3       5.235  66.774  38.6630  0.00  0.00     0.000 C
ATOM     39  C5  GCT B   3       6.288  67.077  39.7530  0.00  0.00     0.000 C
ATOM     40  O5  GCT B   3       6.540  65.854  40.4230  0.00  0.00     0.000 O
ATOM     41   O  GCT B   3       3.380  64.419  40.9180  0.00  0.00     0.000 O
ATOM     43  HD  GCT B   3       2.943  64.227  41.6410  0.00  0.00     0.000 HD
ATOM     43   O  GCT B   3       3.058  65.615  38.3930  0.00  0.00     0.000 O
ATOM     45  HD  GCT B   3       2.621  65.423  39.1150  0.00  0.00     0.000 HD
BRANCH 39 45
ATOM     45   C  GCT B   3       5.979  68.151  40.7730  0.00  0.00     0.000 C
ATOM     46   O  GCT B   3       6.869  68.492  41.6150  0.00  0.00     0.000 OA
ATOM     47   O  GCT B   3       4.854  68.676  40.7370  0.00  0.00     0.000 OA
ENDBRANCH 39 45
BRANCH 35 48
ATOM     48  O3  ASG B   4       5.287  65.691  42.5450  0.00  0.00     0.000 O
BRANCH 48 51
ATOM     49  C1  ASG B   4       6.559  62.592  44.1150  0.00  0.00     0.000 C
ATOM     50  C2  ASG B   4       5.777  63.515  43.1660  0.00  0.00     0.000 C
ATOM     51  C3  ASG B   4       6.243  64.963  43.2960  0.00  0.00     0.000 C
ATOM     52  C4  ASG B   4       6.270  65.404  44.7500  0.00  0.00     0.000 C
ATOM     53  C5  ASG B   4       7.120  64.406  45.5320  0.00  0.00     0.000 C
ATOM     54  O5  ASG B   4       6.519  63.099  45.4390  0.00  0.00     0.000 O
BRANCH 50 57
ATOM     55   N  ASG B   4       4.873  62.562  43.7670  0.00  0.00     0.000 N
ATOM     57  HD  ASG B   4       4.298  62.525  43.1210  0.00  0.00     0.000 HD
ATOM     57   O  ASG B   4       4.104  61.770  41.8190  0.00  0.00     0.000 OA
ATOM     58   C  ASG B   4       4.177  61.683  43.0400  0.00  0.00     0.000 C
ATOM     59   C  ASG B   4       3.455  60.626  43.8190  0.00  0.00     0.000 C
ENDBRANCH 50 57
BRANCH 52 60
ATOM     60   O  ASG B   4       4.835  65.427  45.1330  0.00  0.00     0.000 O
ATOM     61   O  ASG B   4       4.820  67.907  45.4200  0.00  0.00     0.000 OA
ATOM     62   O  ASG B   4       2.790  66.679  45.6170  0.00  0.00     0.000 OA
ATOM     63   O  ASG B   4       4.528  66.321  47.2190  0.00  0.00     0.000 OA
ATOM     64   S  ASG B   4       4.184  66.706  45.8470  0.00  0.00     0.000 S
ENDBRANCH 52 60
ATOM     65   O  ASG B   4       8.352  63.975  47.5760  0.00  0.00     0.000 O
ATOM     67  HD  ASG B   4       7.981  63.195  47.6390  0.00  0.00     0.000 HD
ATOM     67   O  ASG B   4       8.352  63.975  47.5760  0.00  0.00     0.000 O
ATOM     69  HD  ASG B   4       7.981  63.195  47.6390  0.00  0.00     0.000 HD
ENDBRANCH 48 51
ENDBRANCH 35 48
ENDBRANCH 34 38
ENDBRANCH 15 34
ENDBRANCH 14 17
ENDBRANCH 1 14
TORSDOF 12
ENDMDL
MODEL 7
REMARK VINA RESULT:      -7.1     15.154     20.190
ROOT
ATOM      1  C1  GAD B   1      21.331  51.589  45.9520  0.00  0.00     0.000 C
ATOM      2  C2  GAD B   1      21.579  50.175  45.4180  0.00  0.00     0.000 C
ATOM      3  C3  GAD B   1      21.331  50.132  43.9060  0.00  0.00     0.000 C
ATOM      4  C4  GAD B   1      20.246  51.094  43.4130  0.00  0.00     0.000 C
ATOM      5  C5  GAD B   1      19.650  52.025  44.1840  0.00  0.00     0.000 C
ATOM      6  O5  GAD B   1      20.035  52.077  45.5700  0.00  0.00     0.000 O
ATOM      7   O  GAD B   1      22.921  49.687  45.7920  0.00  0.00     0.000 O
ATOM      9  HD  GAD B   1      22.859  50.358  46.3360  0.00  0.00     0.000 HD
ATOM      9   O  GAD B   1      20.926  48.815  43.4710  0.00  0.00     0.000 O
ATOM     11  HD  GAD B   1      20.864  49.486  44.0150  0.00  0.00     0.000 HD
ENDROOT
BRANCH 5 11
ATOM     11   C  GAD B   1      18.678  53.030  43.6930  0.00  0.00     0.000 C
ATOM     12   O  GAD B   1      19.049  53.764  42.7250  0.00  0.00     0.000 OA
ATOM     13   O  GAD B   1      17.550  53.184  44.2910  0.00  0.00     0.000 OA
ENDBRANCH 5 11
BRANCH 1 14
ATOM     14  O3  ASG B   2      21.059  51.869  47.2410  0.00  0.00     0.000 O
BRANCH 14 17
ATOM     15  C1  ASG B   2      20.341  50.547  50.7070  0.00  0.00     0.000 C
ATOM     16  C2  ASG B   2      20.179  51.466  49.4880  0.00  0.00     0.000 C
ATOM     17  C3  ASG B   2      21.173  51.041  48.4040  0.00  0.00     0.000 C
ATOM     18  C4  ASG B   2      22.589  51.113  48.9430  0.00  0.00     0.000 C
ATOM     19  C5  ASG B   2      22.678  50.287  50.2230  0.00  0.00     0.000 C
ATOM     20  O5  ASG B   2      21.671  50.720  51.1590  0.00  0.00     0.000 O
ATOM     21   C  ASG B   2      23.994  50.433  50.9160  0.00  0.00     0.000 C
ATOM     22   O  ASG B   2      23.925  49.822  52.1810  0.00  0.00     0.000 O
ATOM     24  HD  ASG B   2      24.026  49.488  52.9740  0.00  0.00     0.000 HD
BRANCH 16 26
ATOM     24   N  ASG B   2      18.866  51.524  48.8860  0.00  0.00     0.000 N
ATOM     26  HD  ASG B   2      18.992  51.243  49.6960  0.00  0.00     0.000 HD
ATOM     26   C  ASG B   2      18.294  52.656  48.4370  0.00  0.00     0.000 C
ATOM     27   C  ASG B   2      17.109  52.484  47.5500  0.00  0.00     0.000 C
ATOM     28   O  ASG B   2      18.725  53.761  48.7420  0.00  0.00     0.000 OA
ENDBRANCH 16 26
BRANCH 18 29
ATOM     29   O  ASG B   2      22.881  52.536  49.1610  0.00  0.00     0.000 O
ATOM     30   O  ASG B   2      25.289  52.319  48.7180  0.00  0.00     0.000 OA
ATOM     31   O  ASG B   2      23.844  53.364  47.0720  0.00  0.00     0.000 OA
ATOM     32   O  ASG B   2      24.306  54.487  49.1630  0.00  0.00     0.000 OA
ATOM     33   S  ASG B   2      24.168  53.205  48.4700  0.00  0.00     0.000 S
ENDBRANCH 18 29
BRANCH 15 34
ATOM     34  O4  ASG B   3      19.469  50.849  51.7580  0.00  0.00     0.000 O
BRANCH 34 38
ATOM     35  C1  GCT B   3      18.639  52.831  55.1860  0.00  0.00     0.000 C
ATOM     36  C2  GCT B   3      18.399  53.643  53.9310  0.00  0.00     0.000 C
ATOM     37  C3  GCT B   3      18.303  52.738  52.7110  0.00  0.00     0.000 C
ATOM     38  C4  GCT B   3      19.611  51.951  52.5630  0.00  0.00     0.000 C
ATOM     39  C5  GCT B   3      20.237  51.606  53.9330  0.00  0.00     0.000 C
ATOM     40  O5  GCT B   3      19.170  51.551  54.8640  0.00  0.00     0.000 O
ATOM     41   O  GCT B   3      17.175  54.337  54.1270  0.00  0.00     0.000 O
ATOM     43  HD  GCT B   3      16.973  55.039  54.5920  0.00  0.00     0.000 HD
ATOM     43   O  GCT B   3      18.006  53.553  51.5570  0.00  0.00     0.000 O
ATOM     45  HD  GCT B   3      17.804  54.255  52.0220  0.00  0.00     0.000 HD
BRANCH 39 45
ATOM     45   C  GCT B   3      21.326  52.507  54.4740  0.00  0.00     0.000 C
ATOM     46   O  GCT B   3      21.843  52.256  55.6080  0.00  0.00     0.000 OA
ATOM     47   O  GCT B   3      21.688  53.463  53.7690  0.00  0.00     0.000 OA
ENDBRANCH 39 45
BRANCH 35 48
ATOM     48  O3  ASG B   4      18.977  53.638  56.1680  0.00  0.00     0.000 O
BRANCH 48 51
ATOM     49  C1  ASG B   4      17.354  54.945  59.2260  0.00  0.00     0.000 C
ATOM     50  C2  ASG B   4      18.245  54.890  57.9730  0.00  0.00     0.000 C
ATOM     51  C3  ASG B   4      17.937  53.655  57.1310  0.00  0.00     0.000 C
ATOM     52  C4  ASG B   4      17.939  52.395  57.9800  0.00  0.00     0.000 C
ATOM     53  C5  ASG B   4      16.975  52.607  59.1450  0.00  0.00     0.000 C
ATOM     54  O5  ASG B   4      17.431  53.720  59.9380  0.00  0.00     0.000 O
BRANCH 50 57
ATOM     55   N  ASG B   4      18.358  55.914  56.9600  0.00  0.00     0.000 N
ATOM     57  HD  ASG B   4      18.529  56.579  57.4870  0.00  0.00     0.000 HD
ATOM     57   O  ASG B   4      19.736  57.214  58.1530  0.00  0.00     0.000 OA
ATOM     58   C  ASG B   4      19.184  56.956  57.0880  0.00  0.00     0.000 C
ATOM     59   C  ASG B   4      19.346  57.808  55.8670  0.00  0.00     0.000 C
ENDBRANCH 50 57
BRANCH 52 60
ATOM     60   O  ASG B   4      19.363  52.244  58.3760  0.00  0.00     0.000 O
ATOM     61   O  ASG B   4      19.427  49.840  57.7090  0.00  0.00     0.000 OA
ATOM     62   O  ASG B   4      21.422  50.925  58.4250  0.00  0.00     0.000 OA
ATOM     63   O  ASG B   4      19.631  50.633  59.9820  0.00  0.00     0.000 OA
ATOM     64   S  ASG B   4      20.023  50.797  58.5790  0.00  0.00     0.000 S
ENDBRANCH 52 60
ATOM     65   O  ASG B   4      15.675  51.557  60.9020  0.00  0.00     0.000 O
ATOM     67  HD  ASG B   4      15.958  52.147  61.4690  0.00  0.00     0.000 HD
ATOM     67   O  ASG B   4      15.675  51.557  60.9020  0.00  0.00     0.000 O
ATOM     69  HD  ASG B   4      15.958  52.147  61.4690  0.00  0.00     0.000 HD
ENDBRANCH 48 51
ENDBRANCH 35 48
ENDBRANCH 34 38
ENDBRANCH 15 34
ENDBRANCH 14 17
ENDBRANCH 1 14
TORSDOF 12
ENDMDL
MODEL 8
REMARK VINA RESULT:      -7.1     10.075     15.765
ROOT
ATOM      1  C1  GAD B   1       3.780  67.574  36.0850  0.00  0.00     0.000 C
ATOM      2  C2  GAD B   1       2.468  68.288  35.7430  0.00  0.00     0.000 C
ATOM      3  C3  GAD B   1       1.691  68.604  37.0270  0.00  0.00     0.000 C
ATOM      4  C4  GAD B   1       1.885  67.585  38.1540  0.00  0.00     0.000 C
ATOM      5  C5  GAD B   1       2.775  66.573  38.1170  0.00  0.00     0.000 C
ATOM      6  O5  GAD B   1       3.554  66.425  36.9150  0.00  0.00     0.000 O
ATOM      7   O  GAD B   1       2.706  69.482  34.9100  0.00  0.00     0.000 O
ATOM      9  HD  GAD B   1       3.475  69.092  34.8190  0.00  0.00     0.000 HD
ATOM      9   O  GAD B   1       0.268  68.666  36.7850  0.00  0.00     0.000 O
ATOM     11  HD  GAD B   1       1.036  68.276  36.6940  0.00  0.00     0.000 HD
ENDROOT
BRANCH 5 11
ATOM     11   C  GAD B   1       3.046  65.648  39.2420  0.00  0.00     0.000 C
ATOM     12   O  GAD B   1       4.239  65.605  39.6770  0.00  0.00     0.000 OA
ATOM     13   O  GAD B   1       2.116  64.876  39.6820  0.00  0.00     0.000 OA
ENDBRANCH 5 11
BRANCH 1 14
ATOM     14  O3  ASG B   2       4.470  66.813  35.2140  0.00  0.00     0.000 O
BRANCH 14 17
ATOM     15  C1  ASG B   2       5.029  63.233  34.1430  0.00  0.00     0.000 C
ATOM     16  C2  ASG B   2       5.406  64.610  34.7080  0.00  0.00     0.000 C
ATOM     17  C3  ASG B   2       4.170  65.513  34.6930  0.00  0.00     0.000 C
ATOM     18  C4  ASG B   2       3.639  65.642  33.2770  0.00  0.00     0.000 C
ATOM     19  C5  ASG B   2       3.395  64.248  32.7080  0.00  0.00     0.000 C
ATOM     20  O5  ASG B   2       4.593  63.455  32.8150  0.00  0.00     0.000 O
ATOM     21   C  ASG B   2       3.028  64.271  31.2580  0.00  0.00     0.000 C
ATOM     22   O  ASG B   2       3.029  62.957  30.7570  0.00  0.00     0.000 O
ATOM     24  HD  ASG B   2       2.989  62.212  30.3180  0.00  0.00     0.000 HD
BRANCH 16 26
ATOM     24   N  ASG B   2       6.016  64.579  36.0170  0.00  0.00     0.000 N
ATOM     26  HD  ASG B   2       6.050  63.904  35.4750  0.00  0.00     0.000 HD
ATOM     26   C  ASG B   2       6.984  65.424  36.4160  0.00  0.00     0.000 C
ATOM     27   C  ASG B   2       7.248  65.473  37.8820  0.00  0.00     0.000 C
ATOM     28   O  ASG B   2       7.610  66.111  35.6180  0.00  0.00     0.000 OA
ENDBRANCH 16 26
BRANCH 18 29
ATOM     29   O  ASG B   2       4.647  66.398  32.5220  0.00  0.00     0.000 O
ATOM     30   O  ASG B   2       3.031  67.366  30.9430  0.00  0.00     0.000 OA
ATOM     31   O  ASG B   2       4.001  68.751  32.6850  0.00  0.00     0.000 OA
ATOM     32   O  ASG B   2       5.371  67.983  30.8470  0.00  0.00     0.000 OA
ATOM     33   S  ASG B   2       4.216  67.713  31.7040  0.00  0.00     0.000 S
ENDBRANCH 18 29
BRANCH 15 34
ATOM     34  O4  ASG B   3       6.094  62.325  34.1180  0.00  0.00     0.000 O
BRANCH 34 38
ATOM     35  C1  GCT B   3       9.139  60.426  32.2530  0.00  0.00     0.000 C
ATOM     36  C2  GCT B   3       9.372  61.907  32.4610  0.00  0.00     0.000 C
ATOM     37  C3  GCT B   3       8.430  62.459  33.5210  0.00  0.00     0.000 C
ATOM     38  C4  GCT B   3       6.981  62.231  33.0760  0.00  0.00     0.000 C
ATOM     39  C5  GCT B   3       6.819  60.917  32.2790  0.00  0.00     0.000 C
ATOM     40  O5  GCT B   3       7.848  60.048  32.7180  0.00  0.00     0.000 O
ATOM     41   O  GCT B   3      10.722  62.048  32.8790  0.00  0.00     0.000 O
ATOM     43  HD  GCT B   3      11.471  62.014  32.4450  0.00  0.00     0.000 HD
ATOM     43   O  GCT B   3       8.741  63.853  33.7300  0.00  0.00     0.000 O
ATOM     45  HD  GCT B   3       9.489  63.820  33.2960  0.00  0.00     0.000 HD
BRANCH 39 45
ATOM     45   C  GCT B   3       6.834  60.987  30.7670  0.00  0.00     0.000 C
ATOM     46   O  GCT B   3       6.676  59.924  30.0890  0.00  0.00     0.000 OA
ATOM     47   O  GCT B   3       6.990  62.101  30.2410  0.00  0.00     0.000 OA
ENDBRANCH 39 45
BRANCH 35 48
ATOM     48  O3  ASG B   4       9.768  60.035  31.1650  0.00  0.00     0.000 O
BRANCH 48 51
ATOM     49  C1  ASG B   4      12.061  57.150  31.4830  0.00  0.00     0.000 C
ATOM     50  C2  ASG B   4      11.529  58.589  31.5760  0.00  0.00     0.000 C
ATOM     51  C3  ASG B   4      10.036  58.647  31.2610  0.00  0.00     0.000 C
ATOM     52  C4  ASG B   4       9.720  57.923  29.9630  0.00  0.00     0.000 C
ATOM     53  C5  ASG B   4      10.278  56.506  30.0620  0.00  0.00     0.000 C
ATOM     54  O5  ASG B   4      11.707  56.573  30.2370  0.00  0.00     0.000 O
BRANCH 50 57
ATOM     55   N  ASG B   4      12.008  58.753  32.9290  0.00  0.00     0.000 N
ATOM     57  HD  ASG B   4      12.843  58.884  32.7400  0.00  0.00     0.000 HD
ATOM     57   O  ASG B   4      13.752  60.039  32.3610  0.00  0.00     0.000 OA
ATOM     58   C  ASG B   4      13.031  59.558  33.2310  0.00  0.00     0.000 C
ATOM     59   C  ASG B   4      13.267  59.786  34.6920  0.00  0.00     0.000 C
ENDBRANCH 50 57
BRANCH 52 60
ATOM     60   O  ASG B   4      10.364  58.770  28.9260  0.00  0.00     0.000 O
ATOM     61   O  ASG B   4       8.238  59.044  27.6460  0.00  0.00     0.000 OA
ATOM     62   O  ASG B   4      10.188  60.234  26.9740  0.00  0.00     0.000 OA
ATOM     63   O  ASG B   4      10.174  57.846  26.8380  0.00  0.00     0.000 OA
ATOM     64   S  ASG B   4       9.656  59.040  27.5130  0.00  0.00     0.000 S
ENDBRANCH 52 60
ATOM     65   O  ASG B   4      10.237  54.255  29.1590  0.00  0.00     0.000 O
ATOM     67  HD  ASG B   4      11.102  54.235  29.1610  0.00  0.00     0.000 HD
ATOM     67   O  ASG B   4      10.237  54.255  29.1590  0.00  0.00     0.000 O
ATOM     69  HD  ASG B   4      11.102  54.235  29.1610  0.00  0.00     0.000 HD
ENDBRANCH 48 51
ENDBRANCH 35 48
ENDBRANCH 34 38
ENDBRANCH 15 34
ENDBRANCH 14 17
ENDBRANCH 1 14
TORSDOF 12
ENDMDL
MODEL 9
REMARK VINA RESULT:      -6.9      8.393     13.684
ROOT
ATOM      1  C1  GAD B   1      18.774  51.961  48.3310  0.00  0.00     0.000 C
ATOM      2  C2  GAD B   1      17.921  52.412  47.1420  0.00  0.00     0.000 C
ATOM      3  C3  GAD B   1      18.200  51.522  45.9260  0.00  0.00     0.000 C
ATOM      4  C4  GAD B   1      19.634  50.991  45.8430  0.00  0.00     0.000 C
ATOM      5  C5  GAD B   1      20.555  51.138  46.8170  0.00  0.00     0.000 C
ATOM      6  O5  GAD B   1      20.165  51.887  47.9840  0.00  0.00     0.000 O
ATOM      7   O  GAD B   1      16.489  52.464  47.4970  0.00  0.00     0.000 O
ATOM      9  HD  GAD B   1      16.829  52.423  48.2920  0.00  0.00     0.000 HD
ATOM      9   O  GAD B   1      17.963  52.227  44.6860  0.00  0.00     0.000 O
ATOM     11  HD  GAD B   1      18.303  52.186  45.4820  0.00  0.00     0.000 HD
ENDROOT
BRANCH 5 11
ATOM     11   C  GAD B   1      21.909  50.538  46.7940  0.00  0.00     0.000 C
ATOM     12   O  GAD B   1      22.205  49.823  45.7860  0.00  0.00     0.000 OA
ATOM     13   O  GAD B   1      22.697  50.682  47.8000  0.00  0.00     0.000 OA
ENDBRANCH 5 11
BRANCH 1 14
ATOM     14  O3  ASG B   2      19.076  52.748  49.3810  0.00  0.00     0.000 O
BRANCH 14 17
ATOM     15  C1  ASG B   2      17.708  55.151  51.9570  0.00  0.00     0.000 C
ATOM     16  C2  ASG B   2      18.642  54.664  50.8400  0.00  0.00     0.000 C
ATOM     17  C3  ASG B   2      18.234  53.247  50.4270  0.00  0.00     0.000 C
ATOM     18  C4  ASG B   2      18.304  52.318  51.6240  0.00  0.00     0.000 C
ATOM     19  C5  ASG B   2      17.462  52.900  52.7560  0.00  0.00     0.000 C
ATOM     20  O5  ASG B   2      17.880  54.251  53.0360  0.00  0.00     0.000 O
ATOM     21   C  ASG B   2      17.604  52.137  54.0340  0.00  0.00     0.000 C
ATOM     22   O  ASG B   2      16.977  52.849  55.0730  0.00  0.00     0.000 O
ATOM     24  HD  ASG B   2      16.633  53.171  55.7990  0.00  0.00     0.000 HD
BRANCH 16 26
ATOM     24   N  ASG B   2      19.839  55.087  50.1500  0.00  0.00     0.000 N
ATOM     26  HD  ASG B   2      19.679  54.255  50.3290  0.00  0.00     0.000 HD
ATOM     26   C  ASG B   2      19.839  55.739  48.9730  0.00  0.00     0.000 C
ATOM     27   C  ASG B   2      21.122  56.392  48.5850  0.00  0.00     0.000 C
ATOM     28   O  ASG B   2      18.841  55.791  48.2650  0.00  0.00     0.000 OA
ENDBRANCH 16 26
BRANCH 18 29
ATOM     29   O  ASG B   2      19.725  52.196  51.9750  0.00  0.00     0.000 O
ATOM     30   O  ASG B   2      19.523  49.903  52.8370  0.00  0.00     0.000 OA
ATOM     31   O  ASG B   2      20.585  50.301  50.6910  0.00  0.00     0.000 OA
ATOM     32   O  ASG B   2      21.681  50.996  52.7310  0.00  0.00     0.000 OA
ATOM     33   S  ASG B   2      20.409  50.744  52.0540  0.00  0.00     0.000 S
ENDBRANCH 18 29
BRANCH 15 34
ATOM     34  O4  ASG B   3      17.994  56.445  52.4050  0.00  0.00     0.000 O
BRANCH 34 38
ATOM     35  C1  GCT B   3      14.393  57.947  51.3380  0.00  0.00     0.000 C
ATOM     36  C2  GCT B   3      15.562  58.571  50.6060  0.00  0.00     0.000 C
ATOM     37  C3  GCT B   3      16.801  57.693  50.7160  0.00  0.00     0.000 C
ATOM     38  C4  GCT B   3      17.164  57.516  52.1950  0.00  0.00     0.000 C
ATOM     39  C5  GCT B   3      15.911  57.479  53.0990  0.00  0.00     0.000 C
ATOM     40  O5  GCT B   3      14.847  56.999  52.2970  0.00  0.00     0.000 O
ATOM     41   O  GCT B   3      15.166  58.697  49.2480  0.00  0.00     0.000 O
ATOM     43  HD  GCT B   3      14.644  59.259  48.8450  0.00  0.00     0.000 HD
ATOM     43   O  GCT B   3      17.861  58.296  49.9460  0.00  0.00     0.000 O
ATOM     45  HD  GCT B   3      17.339  58.858  49.5420  0.00  0.00     0.000 HD
BRANCH 39 45
ATOM     45   C  GCT B   3      15.482  58.757  53.7860  0.00  0.00     0.000 C
ATOM     46   O  GCT B   3      16.141  59.826  53.5910  0.00  0.00     0.000 OA
ATOM     47   O  GCT B   3      14.477  58.712  54.5150  0.00  0.00     0.000 OA
ENDBRANCH 39 45
BRANCH 35 48
ATOM     48  O3  ASG B   4      13.428  58.835  51.4520  0.00  0.00     0.000 O
BRANCH 48 51
ATOM     49  C1  ASG B   4      10.451  58.302  49.3210  0.00  0.00     0.000 C
ATOM     50  C2  ASG B   4      11.881  58.686  49.7360  0.00  0.00     0.000 C
ATOM     51  C3  ASG B   4      12.191  58.212  51.1540  0.00  0.00     0.000 C
ATOM     52  C4  ASG B   4      11.101  58.632  52.1250  0.00  0.00     0.000 C
ATOM     53  C5  ASG B   4       9.764  58.134  51.5830  0.00  0.00     0.000 C
ATOM     54  O5  ASG B   4       9.521  58.740  50.2980  0.00  0.00     0.000 O
BRANCH 50 57
ATOM     55   N  ASG B   4      11.883  58.146  48.3960  0.00  0.00     0.000 N
ATOM     57  HD  ASG B   4      11.882  58.900  47.9690  0.00  0.00     0.000 HD
ATOM     57   O  ASG B   4      12.887  59.923  47.4740  0.00  0.00     0.000 OA
ATOM     58   C  ASG B   4      12.485  58.768  47.3770  0.00  0.00     0.000 C
ATOM     59   C  ASG B   4      12.584  57.982  46.1060  0.00  0.00     0.000 C
ENDBRANCH 50 57
BRANCH 52 60
ATOM     60   O  ASG B   4      11.234  60.111  52.1780  0.00  0.00     0.000 O
ATOM     61   O  ASG B   4      11.464  60.130  54.6640  0.00  0.00     0.000 OA
ATOM     62   O  ASG B   4      11.721  62.153  53.4340  0.00  0.00     0.000 OA
ATOM     63   O  ASG B   4       9.591  61.066  53.4570  0.00  0.00     0.000 OA
ATOM     64   S  ASG B   4      11.047  60.917  53.5510  0.00  0.00     0.000 S
ENDBRANCH 52 60
ATOM     65   O  ASG B   4       7.440  57.652  52.0820  0.00  0.00     0.000 O
ATOM     67  HD  ASG B   4       7.197  58.064  51.3610  0.00  0.00     0.000 HD
ATOM     67   O  ASG B   4       7.440  57.652  52.0820  0.00  0.00     0.000 O
ATOM     69  HD  ASG B   4       7.197  58.064  51.3610  0.00  0.00     0.000 HD
ENDBRANCH 48 51
ENDBRANCH 35 48
ENDBRANCH 34 38
ENDBRANCH 15 34
ENDBRANCH 14 17
ENDBRANCH 1 14
TORSDOF 12
ENDMDL
MODEL 10
REMARK VINA RESULT:      -6.9     16.122     20.791
ROOT
ATOM      1  C1  GAD B   1      20.237  51.041  48.3430  0.00  0.00     0.000 C
ATOM      2  C2  GAD B   1      19.337  51.748  47.3240  0.00  0.00     0.000 C
ATOM      3  C3  GAD B   1      19.595  51.192  45.9190  0.00  0.00     0.000 C
ATOM      4  C4  GAD B   1      21.035  50.736  45.6710  0.00  0.00     0.000 C
ATOM      5  C5  GAD B   1      21.984  50.665  46.6250  0.00  0.00     0.000 C
ATOM      6  O5  GAD B   1      21.617  51.092  47.9510  0.00  0.00     0.000 O
ATOM      7   O  GAD B   1      17.917  51.671  47.7180  0.00  0.00     0.000 O
ATOM      9  HD  GAD B   1      18.282  51.445  48.4700  0.00  0.00     0.000 HD
ATOM      9   O  GAD B   1      19.304  52.173  44.8980  0.00  0.00     0.000 O
ATOM     11  HD  GAD B   1      19.669  51.947  45.6500  0.00  0.00     0.000 HD
ENDROOT
BRANCH 5 11
ATOM     11   C  GAD B   1      23.348  50.125  46.4200  0.00  0.00     0.000 C
ATOM     12   O  GAD B   1      23.539  49.425  45.3770  0.00  0.00     0.000 OA
ATOM     13   O  GAD B   1      24.256  50.305  47.3130  0.00  0.00     0.000 OA
ENDBRANCH 5 11
BRANCH 1 14
ATOM     14  O3  ASG B   2      20.557  51.553  49.5460  0.00  0.00     0.000 O
BRANCH 14 17
ATOM     15  C1  ASG B   2      20.289  50.528  53.1730  0.00  0.00     0.000 C
ATOM     16  C2  ASG B   2      19.902  51.272  51.8870  0.00  0.00     0.000 C
ATOM     17  C3  ASG B   2      20.878  50.886  50.7720  0.00  0.00     0.000 C
ATOM     18  C4  ASG B   2      22.297  51.230  51.1830  0.00  0.00     0.000 C
ATOM     19  C5  ASG B   2      22.600  50.574  52.5260  0.00  0.00     0.000 C
ATOM     20  O5  ASG B   2      21.602  50.950  53.4950  0.00  0.00     0.000 O
ATOM     21   C  ASG B   2      23.920  50.994  53.0910  0.00  0.00     0.000 C
ATOM     22   O  ASG B   2      24.032  50.523  54.4110  0.00  0.00     0.000 O
ATOM     24  HD  ASG B   2      24.238  50.298  55.2220  0.00  0.00     0.000 HD
BRANCH 16 26
ATOM     24   N  ASG B   2      18.983  52.294  51.4430  0.00  0.00     0.000 N
ATOM     26  HD  ASG B   2      19.781  52.218  51.1180  0.00  0.00     0.000 HD
ATOM     26   C  ASG B   2      17.786  52.039  50.8830  0.00  0.00     0.000 C
ATOM     27   C  ASG B   2      16.840  53.187  50.8060  0.00  0.00     0.000 C
ATOM     28   O  ASG B   2      17.496  50.925  50.4630  0.00  0.00     0.000 OA
ENDBRANCH 16 26
BRANCH 18 29
ATOM     29   O  ASG B   2      22.371  52.697  51.2350  0.00  0.00     0.000 O
ATOM     30   O  ASG B   2      24.745  52.801  50.6060  0.00  0.00     0.000 OA
ATOM     31   O  ASG B   2      23.038  53.427  48.9980  0.00  0.00     0.000 OA
ATOM     32   O  ASG B   2      23.462  54.830  50.9210  0.00  0.00     0.000 OA
ATOM     33   S  ASG B   2      23.482  53.474  50.3710  0.00  0.00     0.000 S
ENDBRANCH 18 29
BRANCH 15 34
ATOM     34  O4  ASG B   3      19.451  50.808  54.2580  0.00  0.00     0.000 O
BRANCH 34 38
ATOM     35  C1  GCT B   3      18.431  53.021  57.4870  0.00  0.00     0.000 C
ATOM     36  C2  GCT B   3      19.207  53.786  56.4370  0.00  0.00     0.000 C
ATOM     37  C3  GCT B   3      19.176  53.055  55.1020  0.00  0.00     0.000 C
ATOM     38  C4  GCT B   3      19.795  51.663  55.2750  0.00  0.00     0.000 C
ATOM     39  C5  GCT B   3      19.501  51.068  56.6710  0.00  0.00     0.000 C
ATOM     40  O5  GCT B   3      18.290  51.655  57.1140  0.00  0.00     0.000 O
ATOM     41   O  GCT B   3      18.581  55.056  56.3180  0.00  0.00     0.000 O
ATOM     43  HD  GCT B   3      18.604  55.763  56.8160  0.00  0.00     0.000 HD
ATOM     43   O  GCT B   3      19.869  53.858  54.1220  0.00  0.00     0.000 O
ATOM     45  HD  GCT B   3      19.891  54.566  54.6210  0.00  0.00     0.000 HD
BRANCH 39 45
ATOM     45   C  GCT B   3      20.552  51.213  57.7500  0.00  0.00     0.000 C
ATOM     46   O  GCT B   3      21.598  51.897  57.5200  0.00  0.00     0.000 OA
ATOM     47   O  GCT B   3      20.340  50.658  58.8410  0.00  0.00     0.000 OA
ENDBRANCH 39 45
BRANCH 35 48
ATOM     48  O3  ASG B   4      18.691  53.527  58.6740  0.00  0.00     0.000 O
BRANCH 48 51
ATOM     49  C1  ASG B   4      16.943  55.912  60.8970  0.00  0.00     0.000 C
ATOM     50  C2  ASG B   4      18.067  55.262  60.0740  0.00  0.00     0.000 C
ATOM     51  C3  ASG B   4      17.524  54.157  59.1720  0.00  0.00     0.000 C
ATOM     52  C4  ASG B   4      16.652  53.188  59.9540  0.00  0.00     0.000 C
ATOM     53  C5  ASG B   4      15.571  53.993  60.6690  0.00  0.00     0.000 C
ATOM     54  O5  ASG B   4      16.196  54.918  61.5800  0.00  0.00     0.000 O
BRANCH 50 57
ATOM     55   N  ASG B   4      18.712  56.298  59.2990  0.00  0.00     0.000 N
ATOM     57  HD  ASG B   4      19.056  56.739  59.9610  0.00  0.00     0.000 HD
ATOM     57   O  ASG B   4      20.310  56.705  60.8140  0.00  0.00     0.000 OA
ATOM     58   C  ASG B   4      19.854  56.872  59.6870  0.00  0.00     0.000 C
ATOM     59   C  ASG B   4      20.505  57.768  58.6780  0.00  0.00     0.000 C
ENDBRANCH 50 57
BRANCH 52 60
ATOM     60   O  ASG B   4      17.614  52.507  60.8580  0.00  0.00     0.000 O
ATOM     61   O  ASG B   4      17.121  50.256  59.8970  0.00  0.00     0.000 OA
ATOM     62   O  ASG B   4      18.850  50.501  61.5160  0.00  0.00     0.000 OA
ATOM     63   O  ASG B   4      16.585  50.925  62.1560  0.00  0.00     0.000 OA
ATOM     64   S  ASG B   4      17.574  50.919  61.0740  0.00  0.00     0.000 S
ENDBRANCH 52 60
ATOM     65   O  ASG B   4      13.426  53.929  61.8000  0.00  0.00     0.000 O
ATOM     67  HD  ASG B   4      13.743  54.426  62.4340  0.00  0.00     0.000 HD
ATOM     67   O  ASG B   4      13.426  53.929  61.8000  0.00  0.00     0.000 O
ATOM     69  HD  ASG B   4      13.743  54.426  62.4340  0.00  0.00     0.000 HD
ENDBRANCH 48 51
ENDBRANCH 35 48
ENDBRANCH 34 38
ENDBRANCH 15 34
ENDBRANCH 14 17
ENDBRANCH 1 14
TORSDOF 12
ENDMDL
MODEL 11
REMARK VINA RESULT:      -6.8     18.691     25.666
ROOT
ATOM      1  C1  GAD B   1      27.300  45.064  60.1910  0.00  0.00     0.000 C
ATOM      2  C2  GAD B   1      25.907  44.578  60.6040  0.00  0.00     0.000 C
ATOM      3  C3  GAD B   1      25.801  43.060  60.4120  0.00  0.00     0.000 C
ATOM      4  C4  GAD B   1      26.630  42.508  59.2490  0.00  0.00     0.000 C
ATOM      5  C5  GAD B   1      27.512  43.234  58.5330  0.00  0.00     0.000 C
ATOM      6  O5  GAD B   1      27.638  44.630  58.8650  0.00  0.00     0.000 O
ATOM      7   O  GAD B   1      25.573  45.005  61.9760  0.00  0.00     0.000 O
ATOM      9  HD  GAD B   1      26.247  45.528  61.8260  0.00  0.00     0.000 HD
ATOM      9   O  GAD B   1      24.438  42.650  60.1610  0.00  0.00     0.000 O
ATOM     11  HD  GAD B   1      25.112  43.173  60.0120  0.00  0.00     0.000 HD
ENDROOT
BRANCH 5 11
ATOM     11   C  GAD B   1      28.396  42.686  57.4780  0.00  0.00     0.000 C
ATOM     12   O  GAD B   1      29.095  43.520  56.8220  0.00  0.00     0.000 OA
ATOM     13   O  GAD B   1      28.374  41.429  57.2050  0.00  0.00     0.000 OA
ENDBRANCH 5 11
BRANCH 1 14
ATOM     14  O3  ASG B   2      27.580  46.336  59.8490  0.00  0.00     0.000 O
BRANCH 14 17
ATOM     15  C1  ASG B   2      26.048  49.692  59.0350  0.00  0.00     0.000 C
ATOM     16  C2  ASG B   2      26.898  48.437  58.7960  0.00  0.00     0.000 C
ATOM     17  C3  ASG B   2      26.804  47.527  60.0240  0.00  0.00     0.000 C
ATOM     18  C4  ASG B   2      27.283  48.270  61.2570  0.00  0.00     0.000 C
ATOM     19  C5  ASG B   2      26.499  49.572  61.3890  0.00  0.00     0.000 C
ATOM     20  O5  ASG B   2      26.599  50.333  60.1700  0.00  0.00     0.000 O
ATOM     21   C  ASG B   2      27.016  50.450  62.4830  0.00  0.00     0.000 C
ATOM     22   O  ASG B   2      26.391  51.708  62.4060  0.00  0.00     0.000 O
ATOM     24  HD  ASG B   2      26.089  52.516  62.4800  0.00  0.00     0.000 HD
BRANCH 16 26
ATOM     24   N  ASG B   2      26.578  47.688  57.6020  0.00  0.00     0.000 N
ATOM     26  HD  ASG B   2      26.385  48.528  57.6870  0.00  0.00     0.000 HD
ATOM     26   C  ASG B   2      27.495  47.081  56.8260  0.00  0.00     0.000 C
ATOM     27   C  ASG B   2      26.970  46.084  55.8500  0.00  0.00     0.000 C
ATOM     28   O  ASG B   2      28.689  47.335  56.9210  0.00  0.00     0.000 OA
ENDBRANCH 16 26
BRANCH 18 29
ATOM     29   O  ASG B   2      28.724  48.488  61.0790  0.00  0.00     0.000 O
ATOM     30   O  ASG B   2      29.247  48.347  63.4770  0.00  0.00     0.000 OA
ATOM     31   O  ASG B   2      29.833  46.512  62.0000  0.00  0.00     0.000 OA
ATOM     32   O  ASG B   2      31.013  48.616  61.8430  0.00  0.00     0.000 OA
ATOM     33   S  ASG B   2      29.759  47.942  62.1810  0.00  0.00     0.000 S
ENDBRANCH 18 29
BRANCH 15 34
ATOM     34  O4  ASG B   3      26.061  50.592  57.9630  0.00  0.00     0.000 O
BRANCH 34 38
ATOM     35  C1  GCT B   3      22.069  51.242  58.0300  0.00  0.00     0.000 C
ATOM     36  C2  GCT B   3      22.562  50.568  56.7680  0.00  0.00     0.000 C
ATOM     37  C3  GCT B   3      23.945  49.968  56.9800  0.00  0.00     0.000 C
ATOM     38  C4  GCT B   3      24.922  51.081  57.3750  0.00  0.00     0.000 C
ATOM     39  C5  GCT B   3      24.241  52.176  58.2260  0.00  0.00     0.000 C
ATOM     40  O5  GCT B   3      23.157  51.554  58.8930  0.00  0.00     0.000 O
ATOM     41   O  GCT B   3      21.623  49.547  56.4630  0.00  0.00     0.000 O
ATOM     43  HD  GCT B   3      20.831  49.571  56.1130  0.00  0.00     0.000 HD
ATOM     43   O  GCT B   3      24.337  49.280  55.7730  0.00  0.00     0.000 O
ATOM     45  HD  GCT B   3      23.545  49.304  55.4230  0.00  0.00     0.000 HD
BRANCH 39 45
ATOM     45   C  GCT B   3      23.748  53.426  57.5300  0.00  0.00     0.000 C
ATOM     46   O  GCT B   3      23.235  54.366  58.2160  0.00  0.00     0.000 OA
ATOM     47   O  GCT B   3      23.879  53.491  56.2970  0.00  0.00     0.000 OA
ENDBRANCH 39 45
BRANCH 35 48
ATOM     48  O3  ASG B   4      21.009  51.970  57.7480  0.00  0.00     0.000 O
BRANCH 48 51
ATOM     49  C1  ASG B   4      17.354  51.414  57.9000  0.00  0.00     0.000 C
ATOM     50  C2  ASG B   4      18.732  51.828  57.3560  0.00  0.00     0.000 C
ATOM     51  C3  ASG B   4      19.856  51.319  58.2540  0.00  0.00     0.000 C
ATOM     52  C4  ASG B   4      19.602  51.675  59.7090  0.00  0.00     0.000 C
ATOM     53  C5  ASG B   4      18.219  51.154  60.0910  0.00  0.00     0.000 C
ATOM     54  O5  ASG B   4      17.229  51.792  59.2610  0.00  0.00     0.000 O
BRANCH 50 57
ATOM     55   N  ASG B   4      19.024  51.382  56.0130  0.00  0.00     0.000 N
ATOM     57  HD  ASG B   4      18.379  51.797  55.6110  0.00  0.00     0.000 HD
ATOM     57   O  ASG B   4      18.112  53.166  55.0140  0.00  0.00     0.000 OA
ATOM     58   C  ASG B   4      18.782  52.141  54.9400  0.00  0.00     0.000 C
ATOM     59   C  ASG B   4      19.336  51.630  53.6460  0.00  0.00     0.000 C
ENDBRANCH 50 57
BRANCH 52 60
ATOM     60   O  ASG B   4      19.733  53.155  59.7320  0.00  0.00     0.000 O
ATOM     61   O  ASG B   4      21.785  53.080  61.1520  0.00  0.00     0.000 OA
ATOM     62   O  ASG B   4      21.015  55.162  60.2920  0.00  0.00     0.000 OA
ATOM     63   O  ASG B   4      19.660  53.979  61.8680  0.00  0.00     0.000 OA
ATOM     64   S  ASG B   4      20.667  53.893  60.8060  0.00  0.00     0.000 S
ENDBRANCH 52 60
ATOM     65   O  ASG B   4      16.709  50.585  61.9010  0.00  0.00     0.000 O
ATOM     67  HD  ASG B   4      16.068  51.013  61.5040  0.00  0.00     0.000 HD
ATOM     67   O  ASG B   4      16.709  50.585  61.9010  0.00  0.00     0.000 O
ATOM     69  HD  ASG B   4      16.068  51.013  61.5040  0.00  0.00     0.000 HD
ENDBRANCH 48 51
ENDBRANCH 35 48
ENDBRANCH 34 38
ENDBRANCH 15 34
ENDBRANCH 14 17
ENDBRANCH 1 14
TORSDOF 12
ENDMDL
MODEL 12
REMARK VINA RESULT:      -6.5      7.276     14.947
ROOT
ATOM      1  C1  GAD B   1       9.467  62.732  29.5370  0.00  0.00     0.000 C
ATOM      2  C2  GAD B   1       9.830  61.414  28.8470  0.00  0.00     0.000 C
ATOM      3  C3  GAD B   1      10.369  61.688  27.4380  0.00  0.00     0.000 C
ATOM      4  C4  GAD B   1       9.761  62.915  26.7530  0.00  0.00     0.000 C
ATOM      5  C5  GAD B   1       8.940  63.795  27.3610  0.00  0.00     0.000 C
ATOM      6  O5  GAD B   1       8.583  63.524  28.7300  0.00  0.00     0.000 O
ATOM      7   O  GAD B   1      10.758  60.614  29.6690  0.00  0.00     0.000 O
ATOM      9  HD  GAD B   1      10.490  61.177  30.2690  0.00  0.00     0.000 HD
ATOM      9   O  GAD B   1      10.126  60.573  26.5500  0.00  0.00     0.000 O
ATOM     11  HD  GAD B   1       9.857  61.137  27.1510  0.00  0.00     0.000 HD
ENDROOT
BRANCH 5 11
ATOM     11   C  GAD B   1       8.432  65.041  26.7420  0.00  0.00     0.000 C
ATOM     12   O  GAD B   1       8.713  65.231  25.5180  0.00  0.00     0.000 OA
ATOM     13   O  GAD B   1       7.809  65.910  27.4560  0.00  0.00     0.000 OA
ENDBRANCH 5 11
BRANCH 1 14
ATOM     14  O3  ASG B   2       8.612  62.828  30.5730  0.00  0.00     0.000 O
BRANCH 14 17
ATOM     15  C1  ASG B   2       6.845  65.461  32.6280  0.00  0.00     0.000 C
ATOM     16  C2  ASG B   2       7.868  64.355  32.3340  0.00  0.00     0.000 C
ATOM     17  C3  ASG B   2       7.675  63.862  30.8970  0.00  0.00     0.000 C
ATOM     18  C4  ASG B   2       6.261  63.345  30.7120  0.00  0.00     0.000 C
ATOM     19  C5  ASG B   2       5.275  64.430  31.1330  0.00  0.00     0.000 C
ATOM     20  O5  ASG B   2       5.568  64.870  32.4740  0.00  0.00     0.000 O
ATOM     21   C  ASG B   2       3.858  63.953  31.1420  0.00  0.00     0.000 C
ATOM     22   O  ASG B   2       3.041  64.930  31.7380  0.00  0.00     0.000 O
ATOM     24  HD  ASG B   2       2.425  65.436  32.0760  0.00  0.00     0.000 HD
BRANCH 16 26
ATOM     24   N  ASG B   2       9.258  64.704  32.5220  0.00  0.00     0.000 N
ATOM     26  HD  ASG B   2       8.615  65.144  32.9020  0.00  0.00     0.000 HD
ATOM     26   C  ASG B   2      10.177  63.877  33.0520  0.00  0.00     0.000 C
ATOM     27   C  ASG B   2      11.602  64.268  32.8550  0.00  0.00     0.000 C
ATOM     28   O  ASG B   2       9.857  62.862  33.6600  0.00  0.00     0.000 OA
ENDBRANCH 16 26
BRANCH 18 29
ATOM     29   O  ASG B   2       6.152  62.128  31.5280  0.00  0.00     0.000 O
ATOM     30   O  ASG B   2       4.592  61.000  30.0000  0.00  0.00     0.000 OA
ATOM     31   O  ASG B   2       6.909  60.285  30.1110  0.00  0.00     0.000 OA
ATOM     32   O  ASG B   2       5.424  59.867  31.9720  0.00  0.00     0.000 OA
ATOM     33   S  ASG B   2       5.746  60.735  30.8390  0.00  0.00     0.000 S
ENDBRANCH 18 29
BRANCH 15 34
ATOM     34  O4  ASG B   3       6.941  65.986  33.9210  0.00  0.00     0.000 O
BRANCH 34 38
ATOM     35  C1  GCT B   3       5.859  66.174  37.8150  0.00  0.00     0.000 C
ATOM     36  C2  GCT B   3       6.435  64.837  37.3990  0.00  0.00     0.000 C
ATOM     37  C3  GCT B   3       7.207  64.962  36.0930  0.00  0.00     0.000 C
ATOM     38  C4  GCT B   3       6.263  65.471  34.9970  0.00  0.00     0.000 C
ATOM     39  C5  GCT B   3       5.203  66.450  35.5520  0.00  0.00     0.000 C
ATOM     40  O5  GCT B   3       5.773  67.054  36.7000  0.00  0.00     0.000 O
ATOM     41   O  GCT B   3       7.303  64.429  38.4470  0.00  0.00     0.000 O
ATOM     43  HD  GCT B   3       7.150  64.093  39.2300  0.00  0.00     0.000 HD
ATOM     43   O  GCT B   3       7.791  63.681  35.7800  0.00  0.00     0.000 O
ATOM     45  HD  GCT B   3       7.638  63.345  36.5630  0.00  0.00     0.000 HD
BRANCH 39 45
ATOM     45   C  GCT B   3       3.834  65.907  35.9000  0.00  0.00     0.000 C
ATOM     46   O  GCT B   3       3.009  66.642  36.5280  0.00  0.00     0.000 OA
ATOM     47   O  GCT B   3       3.562  64.750  35.5390  0.00  0.00     0.000 OA
ENDBRANCH 39 45
BRANCH 35 48
ATOM     48  O3  ASG B   4       4.990  65.990  38.7860  0.00  0.00     0.000 O
BRANCH 48 51
ATOM     49  C1  ASG B   4       5.697  67.153  42.2260  0.00  0.00     0.000 C
ATOM     50  C2  ASG B   4       5.673  66.248  40.9830  0.00  0.00     0.000 C
ATOM     51  C3  ASG B   4       5.165  67.005  39.7590  0.00  0.00     0.000 C
ATOM     52  C4  ASG B   4       3.861  67.726  40.0600  0.00  0.00     0.000 C
ATOM     53  C5  ASG B   4       4.077  68.606  41.2880  0.00  0.00     0.000 C
ATOM     54  O5  ASG B   4       4.435  67.773  42.4080  0.00  0.00     0.000 O
BRANCH 50 57
ATOM     55   N  ASG B   4       4.949  65.005  41.1190  0.00  0.00     0.000 N
ATOM     57  HD  ASG B   4       5.624  64.469  41.0380  0.00  0.00     0.000 HD
ATOM     57   O  ASG B   4       6.694  63.853  41.9210  0.00  0.00     0.000 OA
ATOM     58   C  ASG B   4       5.492  63.921  41.6810  0.00  0.00     0.000 C
ATOM     59   C  ASG B   4       4.550  62.787  41.9440  0.00  0.00     0.000 C
ENDBRANCH 50 57
BRANCH 52 60
ATOM     60   O  ASG B   4       2.890  66.619  40.2560  0.00  0.00     0.000 O
ATOM     61   O  ASG B   4       1.097  67.792  38.9750  0.00  0.00     0.000 OA
ATOM     62   O  ASG B   4       0.740  65.568  39.7470  0.00  0.00     0.000 OA
ATOM     63   O  ASG B   4       1.003  67.329  41.3440  0.00  0.00     0.000 OA
ATOM     64   S  ASG B   4       1.321  66.831  40.0020  0.00  0.00     0.000 S
ENDBRANCH 52 60
ATOM     65   O  ASG B   4       3.250  70.466  42.6050  0.00  0.00     0.000 O
ATOM     67  HD  ASG B   4       3.365  70.007  43.3310  0.00  0.00     0.000 HD
ATOM     67   O  ASG B   4       3.250  70.466  42.6050  0.00  0.00     0.000 O
ATOM     69  HD  ASG B   4       3.365  70.007  43.3310  0.00  0.00     0.000 HD
ENDBRANCH 48 51
ENDBRANCH 35 48
ENDBRANCH 34 38
ENDBRANCH 15 34
ENDBRANCH 14 17
ENDBRANCH 1 14
TORSDOF 12
ENDMDL
MODEL 13
REMARK VINA RESULT:      -6.5      8.024     17.480
ROOT
ATOM      1  C1  GAD B   1      11.780  59.449  50.7880  0.00  0.00     0.000 C
ATOM      2  C2  GAD B   1      11.195  59.507  49.3740  0.00  0.00     0.000 C
ATOM      3  C3  GAD B   1       9.698  59.833  49.4360  0.00  0.00     0.000 C
ATOM      4  C4  GAD B   1       8.981  59.291  50.6760  0.00  0.00     0.000 C
ATOM      5  C5  GAD B   1       9.606  58.712  51.7210  0.00  0.00     0.000 C
ATOM      6  O5  GAD B   1      11.035  58.557  51.6300  0.00  0.00     0.000 O
ATOM      7   O  GAD B   1      11.949  60.444  48.5180  0.00  0.00     0.000 O
ATOM      9  HD  GAD B   1      12.516  60.359  49.1670  0.00  0.00     0.000 HD
ATOM      9   O  GAD B   1       8.989  59.296  48.2970  0.00  0.00     0.000 O
ATOM     11  HD  GAD B   1       9.557  59.211  48.9460  0.00  0.00     0.000 HD
ENDROOT
BRANCH 5 11
ATOM     11   C  GAD B   1       8.935  58.280  52.9700  0.00  0.00     0.000 C
ATOM     12   O  GAD B   1       7.710  57.959  52.8830  0.00  0.00     0.000 OA
ATOM     13   O  GAD B   1       9.568  58.319  54.0890  0.00  0.00     0.000 OA
ENDBRANCH 5 11
BRANCH 1 14
ATOM     14  O3  ASG B   2      12.917  58.802  51.1040  0.00  0.00     0.000 O
BRANCH 14 17
ATOM     15  C1  ASG B   2      14.932  55.616  50.8400  0.00  0.00     0.000 C
ATOM     16  C2  ASG B   2      14.322  56.843  51.5300  0.00  0.00     0.000 C
ATOM     17  C3  ASG B   2      13.512  57.644  50.5060  0.00  0.00     0.000 C
ATOM     18  C4  ASG B   2      14.405  58.067  49.3560  0.00  0.00     0.000 C
ATOM     19  C5  ASG B   2      15.090  56.833  48.7760  0.00  0.00     0.000 C
ATOM     20  O5  ASG B   2      15.777  56.115  49.8200  0.00  0.00     0.000 O
ATOM     21   C  ASG B   2      16.117  57.171  47.7450  0.00  0.00     0.000 C
ATOM     22   O  ASG B   2      16.847  56.014  47.4170  0.00  0.00     0.000 O
ATOM     24  HD  ASG B   2      17.370  55.392  47.1180  0.00  0.00     0.000 HD
BRANCH 16 26
ATOM     24   N  ASG B   2      13.541  56.541  52.7080  0.00  0.00     0.000 N
ATOM     26  HD  ASG B   2      14.177  56.023  52.4290  0.00  0.00     0.000 HD
ATOM     26   C  ASG B   2      13.477  57.334  53.7930  0.00  0.00     0.000 C
ATOM     27   C  ASG B   2      12.375  57.044  54.7530  0.00  0.00     0.000 C
ATOM     28   O  ASG B   2      14.280  58.240  53.9770  0.00  0.00     0.000 OA
ENDBRANCH 16 26
BRANCH 18 29
ATOM     29   O  ASG B   2      15.358  59.042  49.9040  0.00  0.00     0.000 O
ATOM     30   O  ASG B   2      15.585  60.303  47.8060  0.00  0.00     0.000 OA
ATOM     31   O  ASG B   2      14.310  61.237  49.6490  0.00  0.00     0.000 OA
ATOM     32   O  ASG B   2      16.714  61.040  49.8180  0.00  0.00     0.000 OA
ATOM     33   S  ASG B   2      15.483  60.500  49.2400  0.00  0.00     0.000 S
ENDBRANCH 18 29
BRANCH 15 34
ATOM     34  O4  ASG B   3      15.691  54.810  51.6950  0.00  0.00     0.000 O
BRANCH 34 38
ATOM     35  C1  GCT B   3      19.115  53.807  53.6020  0.00  0.00     0.000 C
ATOM     36  C2  GCT B   3      18.781  55.281  53.6710  0.00  0.00     0.000 C
ATOM     37  C3  GCT B   3      17.315  55.521  53.3360  0.00  0.00     0.000 C
ATOM     38  C4  GCT B   3      17.031  55.002  51.9210  0.00  0.00     0.000 C
ATOM     39  C5  GCT B   3      17.873  53.751  51.5820  0.00  0.00     0.000 C
ATOM     40  O5  GCT B   3      18.158  53.109  52.8130  0.00  0.00     0.000 O
ATOM     41   O  GCT B   3      19.056  55.695  55.0020  0.00  0.00     0.000 O
ATOM     43  HD  GCT B   3      19.797  55.868  55.4150  0.00  0.00     0.000 HD
ATOM     43   O  GCT B   3      17.034  56.929  53.4840  0.00  0.00     0.000 O
ATOM     45  HD  GCT B   3      17.775  57.101  53.8970  0.00  0.00     0.000 HD
BRANCH 39 45
ATOM     45   C  GCT B   3      19.158  53.938  50.8060  0.00  0.00     0.000 C
ATOM     46   O  GCT B   3      19.521  55.108  50.4650  0.00  0.00     0.000 OA
ATOM     47   O  GCT B   3      19.826  52.925  50.5410  0.00  0.00     0.000 OA
ENDBRANCH 39 45
BRANCH 35 48
ATOM     48  O3  ASG B   4      20.422  53.656  53.6330  0.00  0.00     0.000 O
BRANCH 48 51
ATOM     49  C1  ASG B   4      20.466  51.250  56.4440  0.00  0.00     0.000 C
ATOM     50  C2  ASG B   4      20.048  52.445  55.5710  0.00  0.00     0.000 C
ATOM     51  C3  ASG B   4      20.726  52.395  54.2050  0.00  0.00     0.000 C
ATOM     52  C4  ASG B   4      22.226  52.188  54.3420  0.00  0.00     0.000 C
ATOM     53  C5  ASG B   4      22.456  50.943  55.1950  0.00  0.00     0.000 C
ATOM     54  O5  ASG B   4      21.880  51.152  56.4990  0.00  0.00     0.000 O
BRANCH 50 57
ATOM     55   N  ASG B   4      19.009  51.849  56.3800  0.00  0.00     0.000 N
ATOM     57  HD  ASG B   4      18.956  52.474  56.9770  0.00  0.00     0.000 HD
ATOM     57   O  ASG B   4      18.239  53.797  57.1710  0.00  0.00     0.000 OA
ATOM     58   C  ASG B   4      18.110  52.583  57.0420  0.00  0.00     0.000 C
ATOM     59   C  ASG B   4      16.976  51.821  57.6540  0.00  0.00     0.000 C
ENDBRANCH 50 57
BRANCH 52 60
ATOM     60   O  ASG B   4      22.697  53.455  54.9580  0.00  0.00     0.000 O
ATOM     61   O  ASG B   4      24.080  54.057  52.9690  0.00  0.00     0.000 OA
ATOM     62   O  ASG B   4      23.868  55.595  54.7740  0.00  0.00     0.000 OA
ATOM     63   O  ASG B   4      24.979  53.510  55.1440  0.00  0.00     0.000 OA
ATOM     64   S  ASG B   4      23.967  54.242  54.3770  0.00  0.00     0.000 S
ENDBRANCH 52 60
ATOM     65   O  ASG B   4      24.035  49.236  55.8830  0.00  0.00     0.000 O
ATOM     67  HD  ASG B   4      23.800  49.347  56.7090  0.00  0.00     0.000 HD
ATOM     67   O  ASG B   4      24.035  49.236  55.8830  0.00  0.00     0.000 O
ATOM     69  HD  ASG B   4      23.800  49.347  56.7090  0.00  0.00     0.000 HD
ENDBRANCH 48 51
ENDBRANCH 35 48
ENDBRANCH 34 38
ENDBRANCH 15 34
ENDBRANCH 14 17
ENDBRANCH 1 14
TORSDOF 12
ENDMDL
MODEL 14
REMARK VINA RESULT:      -6.4      5.798     14.589
ROOT
ATOM      1  C1  GAD B   1       9.557  61.083  48.4900  0.00  0.00     0.000 C
ATOM      2  C2  GAD B   1       8.140  60.957  47.9210  0.00  0.00     0.000 C
ATOM      3  C3  GAD B   1       7.636  62.328  47.4550  0.00  0.00     0.000 C
ATOM      4  C4  GAD B   1       8.169  63.511  48.2690  0.00  0.00     0.000 C
ATOM      5  C5  GAD B   1       9.121  63.412  49.2170  0.00  0.00     0.000 C
ATOM      6  O5  GAD B   1       9.629  62.095  49.5060  0.00  0.00     0.000 O
ATOM      7   O  GAD B   1       8.076  59.933  46.8610  0.00  0.00     0.000 O
ATOM      9  HD  GAD B   1       8.839  59.723  47.2120  0.00  0.00     0.000 HD
ATOM      9   O  GAD B   1       6.195  62.414  47.5190  0.00  0.00     0.000 O
ATOM     11  HD  GAD B   1       6.958  62.204  47.8700  0.00  0.00     0.000 HD
ENDROOT
BRANCH 5 11
ATOM     11   C  GAD B   1       9.719  64.562  49.9360  0.00  0.00     0.000 C
ATOM     12   O  GAD B   1       8.951  65.223  50.7010  0.00  0.00     0.000 OA
ATOM     13   O  GAD B   1      10.939  64.900  49.7110  0.00  0.00     0.000 OA
ENDBRANCH 5 11
BRANCH 1 14
ATOM     14  O3  ASG B   2      10.109  60.192  49.3350  0.00  0.00     0.000 O
BRANCH 14 17
ATOM     15  C1  ASG B   2      13.535  58.658  49.7700  0.00  0.00     0.000 C
ATOM     16  C2  ASG B   2      12.083  58.747  49.2790  0.00  0.00     0.000 C
ATOM     17  C3  ASG B   2      11.466  60.060  49.7720  0.00  0.00     0.000 C
ATOM     18  C4  ASG B   2      11.523  60.123  51.2860  0.00  0.00     0.000 C
ATOM     19  C5  ASG B   2      12.964  59.906  51.7400  0.00  0.00     0.000 C
ATOM     20  O5  ASG B   2      13.476  58.679  51.1840  0.00  0.00     0.000 O
ATOM     21   C  ASG B   2      13.091  59.786  53.2250  0.00  0.00     0.000 C
ATOM     22   O  ASG B   2      14.397  59.378  53.5490  0.00  0.00     0.000 O
ATOM     24  HD  ASG B   2      15.155  59.135  53.8920  0.00  0.00     0.000 HD
BRANCH 16 26
ATOM     24   N  ASG B   2      11.994  58.409  47.8770  0.00  0.00     0.000 N
ATOM     26  HD  ASG B   2      12.529  57.997  48.4190  0.00  0.00     0.000 HD
ATOM     26   C  ASG B   2      10.867  57.982  47.2760  0.00  0.00     0.000 C
ATOM     27   C  ASG B   2      10.868  58.011  45.7860  0.00  0.00     0.000 C
ATOM     28   O  ASG B   2       9.900  57.595  47.9200  0.00  0.00     0.000 OA
ENDBRANCH 16 26
BRANCH 18 29
ATOM     29   O  ASG B   2      10.608  59.086  51.7810  0.00  0.00     0.000 O
ATOM     30   O  ASG B   2       9.812  60.416  53.6900  0.00  0.00     0.000 OA
ATOM     31   O  ASG B   2       8.374  60.082  51.7620  0.00  0.00     0.000 OA
ATOM     32   O  ASG B   2       8.875  58.230  53.2320  0.00  0.00     0.000 OA
ATOM     33   S  ASG B   2       9.334  59.500  52.6700  0.00  0.00     0.000 S
ENDBRANCH 18 29
BRANCH 15 34
ATOM     34  O4  ASG B   3      14.194  57.492  49.3670  0.00  0.00     0.000 O
BRANCH 34 38
ATOM     35  C1  GCT B   3      16.949  54.566  49.8310  0.00  0.00     0.000 C
ATOM     36  C2  GCT B   3      16.021  54.733  51.0160  0.00  0.00     0.000 C
ATOM     37  C3  GCT B   3      14.774  55.511  50.6220  0.00  0.00     0.000 C
ATOM     38  C4  GCT B   3      15.186  56.894  50.1020  0.00  0.00     0.000 C
ATOM     39  C5  GCT B   3      16.535  56.852  49.3500  0.00  0.00     0.000 C
ATOM     40  O5  GCT B   3      16.669  55.540  48.8310  0.00  0.00     0.000 O
ATOM     41   O  GCT B   3      15.671  53.423  51.4410  0.00  0.00     0.000 O
ATOM     43  HD  GCT B   3      16.104  52.825  51.8930  0.00  0.00     0.000 HD
ATOM     43   O  GCT B   3      13.896  55.580  51.7650  0.00  0.00     0.000 O
ATOM     45  HD  GCT B   3      14.328  54.982  52.2170  0.00  0.00     0.000 HD
BRANCH 39 45
ATOM     45   C  GCT B   3      17.792  57.221  50.1070  0.00  0.00     0.000 C
ATOM     46   O  GCT B   3      17.719  57.510  51.3420  0.00  0.00     0.000 OA
ATOM     47   O  GCT B   3      18.866  57.214  49.4820  0.00  0.00     0.000 OA
ENDBRANCH 39 45
BRANCH 35 48
ATOM     48  O3  ASG B   4      18.117  54.132  50.2510  0.00  0.00     0.000 O
BRANCH 48 51
ATOM     49  C1  ASG B   4      19.968  50.944  49.9360  0.00  0.00     0.000 C
ATOM     50  C2  ASG B   4      19.339  52.192  50.5770  0.00  0.00     0.000 C
ATOM     51  C3  ASG B   4      18.420  52.913  49.5940  0.00  0.00     0.000 C
ATOM     52  C4  ASG B   4      19.114  53.150  48.2630  0.00  0.00     0.000 C
ATOM     53  C5  ASG B   4      19.635  51.809  47.7550  0.00  0.00     0.000 C
ATOM     54  O5  ASG B   4      20.583  51.280  48.7030  0.00  0.00     0.000 O
BRANCH 50 57
ATOM     55   N  ASG B   4      18.553  52.147  51.7890  0.00  0.00     0.000 N
ATOM     57  HD  ASG B   4      19.140  51.756  52.2910  0.00  0.00     0.000 HD
ATOM     57   O  ASG B   4      20.320  52.140  53.1640  0.00  0.00     0.000 OA
ATOM     58   C  ASG B   4      19.107  52.231  53.0020  0.00  0.00     0.000 C
ATOM     59   C  ASG B   4      18.149  52.387  54.1420  0.00  0.00     0.000 C
ENDBRANCH 50 57
BRANCH 52 60
ATOM     60   O  ASG B   4      20.173  54.139  48.5950  0.00  0.00     0.000 O
ATOM     61   O  ASG B   4      20.080  55.189  46.3320  0.00  0.00     0.000 OA
ATOM     62   O  ASG B   4      21.460  56.139  48.0240  0.00  0.00     0.000 OA
ATOM     63   O  ASG B   4      21.973  53.957  47.1900  0.00  0.00     0.000 OA
ATOM     64   S  ASG B   4      20.935  54.960  47.4480  0.00  0.00     0.000 S
ENDBRANCH 52 60
ATOM     65   O  ASG B   4      20.458  50.558  45.8470  0.00  0.00     0.000 O
ATOM     67  HD  ASG B   4      21.108  50.246  46.3280  0.00  0.00     0.000 HD
ATOM     67   O  ASG B   4      20.458  50.558  45.8470  0.00  0.00     0.000 O
ATOM     69  HD  ASG B   4      21.108  50.246  46.3280  0.00  0.00     0.000 HD
ENDBRANCH 48 51
ENDBRANCH 35 48
ENDBRANCH 34 38
ENDBRANCH 15 34
ENDBRANCH 14 17
ENDBRANCH 1 14
TORSDOF 12
ENDMDL
MODEL 15
REMARK VINA RESULT:      -6.3     11.725     18.229
ROOT
ATOM      1  C1  GAD B   1       7.197  61.795  32.1110  0.00  0.00     0.000 C
ATOM      2  C2  GAD B   1       6.042  60.793  32.2010  0.00  0.00     0.000 C
ATOM      3  C3  GAD B   1       4.897  61.382  33.0330  0.00  0.00     0.000 C
ATOM      4  C4  GAD B   1       5.345  62.329  34.1500  0.00  0.00     0.000 C
ATOM      5  C5  GAD B   1       6.612  62.757  34.3190  0.00  0.00     0.000 C
ATOM      6  O5  GAD B   1       7.606  62.246  33.4110  0.00  0.00     0.000 O
ATOM      7   O  GAD B   1       5.608  60.351  30.8620  0.00  0.00     0.000 O
ATOM      9  HD  GAD B   1       6.369  60.707  30.6520  0.00  0.00     0.000 HD
ATOM      9   O  GAD B   1       4.119  60.347  33.6740  0.00  0.00     0.000 O
ATOM     11  HD  GAD B   1       4.880  60.703  33.4640  0.00  0.00     0.000 HD
ENDROOT
BRANCH 5 11
ATOM     11   C  GAD B   1       7.037  63.755  35.3290  0.00  0.00     0.000 C
ATOM     12   O  GAD B   1       7.020  64.975  34.9750  0.00  0.00     0.000 OA
ATOM     13   O  GAD B   1       7.476  63.368  36.4740  0.00  0.00     0.000 OA
ENDBRANCH 5 11
BRANCH 1 14
ATOM     14  O3  ASG B   2       8.468  61.454  31.8260  0.00  0.00     0.000 O
BRANCH 14 17
ATOM     15  C1  ASG B   2      11.302  59.080  32.6070  0.00  0.00     0.000 C
ATOM     16  C2  ASG B   2      10.619  60.440  32.4020  0.00  0.00     0.000 C
ATOM     17  C3  ASG B   2       9.152  60.212  32.0260  0.00  0.00     0.000 C
ATOM     18  C4  ASG B   2       9.064  59.374  30.7650  0.00  0.00     0.000 C
ATOM     19  C5  ASG B   2       9.859  58.087  30.9650  0.00  0.00     0.000 C
ATOM     20  O5  ASG B   2      11.207  58.399  31.3700  0.00  0.00     0.000 O
ATOM     21   C  ASG B   2       9.968  57.273  29.7160  0.00  0.00     0.000 C
ATOM     22   O  ASG B   2      10.883  56.225  29.9210  0.00  0.00     0.000 O
ATOM     24  HD  ASG B   2      11.414  55.541  29.9060  0.00  0.00     0.000 HD
BRANCH 16 26
ATOM     24   N  ASG B   2      10.782  61.346  33.5150  0.00  0.00     0.000 N
ATOM     26  HD  ASG B   2      11.363  60.731  33.3310  0.00  0.00     0.000 HD
ATOM     26   C  ASG B   2      10.863  62.684  33.3920  0.00  0.00     0.000 C
ATOM     27   C  ASG B   2      10.685  63.469  34.6450  0.00  0.00     0.000 C
ATOM     28   O  ASG B   2      11.070  63.219  32.3100  0.00  0.00     0.000 OA
ENDBRANCH 16 26
BRANCH 18 29
ATOM     29   O  ASG B   2       9.591  60.205  29.6740  0.00  0.00     0.000 O
ATOM     30   O  ASG B   2       8.054  59.309  27.9780  0.00  0.00     0.000 OA
ATOM     31   O  ASG B   2       7.710  61.542  28.8650  0.00  0.00     0.000 OA
ATOM     32   O  ASG B   2       9.599  61.091  27.4260  0.00  0.00     0.000 OA
ATOM     33   S  ASG B   2       8.660  60.554  28.4110  0.00  0.00     0.000 S
ENDBRANCH 18 29
BRANCH 15 34
ATOM     34  O4  ASG B   3      12.652  59.178  32.9610  0.00  0.00     0.000 O
BRANCH 34 38
ATOM     35  C1  GCT B   3      15.950  56.962  33.7190  0.00  0.00     0.000 C
ATOM     36  C2  GCT B   3      16.049  57.804  32.4650  0.00  0.00     0.000 C
ATOM     37  C3  GCT B   3      15.002  58.909  32.4720  0.00  0.00     0.000 C
ATOM     38  C4  GCT B   3      13.606  58.281  32.5520  0.00  0.00     0.000 C
ATOM     39  C5  GCT B   3      13.600  56.986  33.3960  0.00  0.00     0.000 C
ATOM     40  O5  GCT B   3      14.668  57.101  34.3210  0.00  0.00     0.000 O
ATOM     41   O  GCT B   3      17.355  58.362  32.4560  0.00  0.00     0.000 O
ATOM     43  HD  GCT B   3      18.129  58.026  32.2630  0.00  0.00     0.000 HD
ATOM     43   O  GCT B   3      15.184  59.722  31.2930  0.00  0.00     0.000 O
ATOM     45  HD  GCT B   3      15.959  59.385  31.1000  0.00  0.00     0.000 HD
BRANCH 39 45
ATOM     45   C  GCT B   3      13.702  55.658  32.6780  0.00  0.00     0.000 C
ATOM     46   O  GCT B   3      13.809  54.586  33.3530  0.00  0.00     0.000 OA
ATOM     47   O  GCT B   3      13.662  55.668  31.4370  0.00  0.00     0.000 OA
ENDBRANCH 39 45
BRANCH 35 48
ATOM     48  O3  ASG B   4      16.673  55.873  33.5690  0.00  0.00     0.000 O
BRANCH 48 51
ATOM     49  C1  ASG B   4      19.822  55.224  35.4000  0.00  0.00     0.000 C
ATOM     50  C2  ASG B   4      18.866  55.689  34.2890  0.00  0.00     0.000 C
ATOM     51  C3  ASG B   4      17.414  55.644  34.7560  0.00  0.00     0.000 C
ATOM     52  C4  ASG B   4      17.077  54.299  35.3780  0.00  0.00     0.000 C
ATOM     53  C5  ASG B   4      18.092  54.020  36.4830  0.00  0.00     0.000 C
ATOM     54  O5  ASG B   4      19.412  53.964  35.9070  0.00  0.00     0.000 O
BRANCH 50 57
ATOM     55   N  ASG B   4      18.820  55.177  32.9380  0.00  0.00     0.000 N
ATOM     57  HD  ASG B   4      19.185  55.857  32.5460  0.00  0.00     0.000 HD
ATOM     57   O  ASG B   4      20.578  56.366  32.2220  0.00  0.00     0.000 OA
ATOM     58   C  ASG B   4      19.752  55.479  32.0290  0.00  0.00     0.000 C
ATOM     59   C  ASG B   4      19.683  54.704  30.7490  0.00  0.00     0.000 C
ENDBRANCH 50 57
BRANCH 52 60
ATOM     60   O  ASG B   4      17.139  53.359  34.2290  0.00  0.00     0.000 O
ATOM     61   O  ASG B   4      15.132  52.088  34.9940  0.00  0.00     0.000 OA
ATOM     62   O  ASG B   4      16.143  51.560  32.9040  0.00  0.00     0.000 OA
ATOM     63   O  ASG B   4      17.373  51.188  34.9210  0.00  0.00     0.000 OA
ATOM     64   S  ASG B   4      16.336  51.972  34.2420  0.00  0.00     0.000 S
ENDBRANCH 52 60
ATOM     65   O  ASG B   4      18.616  52.707  38.4530  0.00  0.00     0.000 O
ATOM     67  HD  ASG B   4      19.413  52.560  38.1470  0.00  0.00     0.000 HD
ATOM     67   O  ASG B   4      18.616  52.707  38.4530  0.00  0.00     0.000 O
ATOM     69  HD  ASG B   4      19.413  52.560  38.1470  0.00  0.00     0.000 HD
ENDBRANCH 48 51
ENDBRANCH 35 48
ENDBRANCH 34 38
ENDBRANCH 15 34
ENDBRANCH 14 17
ENDBRANCH 1 14
TORSDOF 12
ENDMDL
MODEL 16
REMARK VINA RESULT:      -6.3     12.067     18.396
ROOT
ATOM      1  C1  GAD B   1       6.029  63.454  30.6980  0.00  0.00     0.000 C
ATOM      2  C2  GAD B   1       4.737  62.708  31.0490  0.00  0.00     0.000 C
ATOM      3  C3  GAD B   1       3.670  63.700  31.5260  0.00  0.00     0.000 C
ATOM      4  C4  GAD B   1       4.223  64.922  32.2640  0.00  0.00     0.000 C
ATOM      5  C5  GAD B   1       5.534  65.217  32.3680  0.00  0.00     0.000 C
ATOM      6  O5  GAD B   1       6.466  64.289  31.7810  0.00  0.00     0.000 O
ATOM      7   O  GAD B   1       4.278  61.870  29.9250  0.00  0.00     0.000 O
ATOM      9  HD  GAD B   1       5.088  62.025  29.6620  0.00  0.00     0.000 HD
ATOM      9   O  GAD B   1       2.731  63.077  32.4310  0.00  0.00     0.000 O
ATOM     11  HD  GAD B   1       3.542  63.232  32.1670  0.00  0.00     0.000 HD
ENDROOT
BRANCH 5 11
ATOM     11   C  GAD B   1       6.075  66.450  32.9870  0.00  0.00     0.000 C
ATOM     12   O  GAD B   1       6.800  67.191  32.2530  0.00  0.00     0.000 OA
ATOM     13   O  GAD B   1       5.871  66.690  34.2340  0.00  0.00     0.000 OA
ENDBRANCH 5 11
BRANCH 1 14
ATOM     14  O3  ASG B   2       7.242  62.873  30.6520  0.00  0.00     0.000 O
BRANCH 14 17
ATOM     15  C1  ASG B   2       8.829  59.448  30.4890  0.00  0.00     0.000 C
ATOM     16  C2  ASG B   2       8.437  60.790  31.1220  0.00  0.00     0.000 C
ATOM     17  C3  ASG B   2       7.636  61.609  30.1060  0.00  0.00     0.000 C
ATOM     18  C4  ASG B   2       8.461  61.830  28.8530  0.00  0.00     0.000 C
ATOM     19  C5  ASG B   2       8.935  60.480  28.3240  0.00  0.00     0.000 C
ATOM     20  O5  ASG B   2       9.628  59.759  29.3630  0.00  0.00     0.000 O
ATOM     21   C  ASG B   2       9.894  60.608  27.1840  0.00  0.00     0.000 C
ATOM     22   O  ASG B   2      10.446  59.348  26.8950  0.00  0.00     0.000 O
ATOM     24  HD  ASG B   2      10.861  58.644  26.6070  0.00  0.00     0.000 HD
BRANCH 16 26
ATOM     24   N  ASG B   2       7.663  60.743  32.3410  0.00  0.00     0.000 N
ATOM     26  HD  ASG B   2       8.117  60.063  32.0550  0.00  0.00     0.000 HD
ATOM     26   C  ASG B   2       7.875  61.548  33.3990  0.00  0.00     0.000 C
ATOM     27   C  ASG B   2       6.784  61.598  34.4130  0.00  0.00     0.000 C
ATOM     28   O  ASG B   2       8.905  62.200  33.5160  0.00  0.00     0.000 OA
ENDBRANCH 16 26
BRANCH 18 29
ATOM     29   O  ASG B   2       9.570  62.714  29.2340  0.00  0.00     0.000 O
ATOM     30   O  ASG B   2       9.648  63.882  27.0720  0.00  0.00     0.000 OA
ATOM     31   O  ASG B   2       8.726  64.999  29.0200  0.00  0.00     0.000 OA
ATOM     32   O  ASG B   2      11.098  64.554  28.8910  0.00  0.00     0.000 OA
ATOM     33   S  ASG B   2       9.754  64.131  28.4980  0.00  0.00     0.000 S
ENDBRANCH 18 29
BRANCH 15 34
ATOM     34  O4  ASG B   3       9.564  58.617  31.3420  0.00  0.00     0.000 O
BRANCH 34 38
ATOM     35  C1  GCT B   3      13.017  57.238  32.9340  0.00  0.00     0.000 C
ATOM     36  C2  GCT B   3      12.885  58.745  32.9630  0.00  0.00     0.000 C
ATOM     37  C3  GCT B   3      11.435  59.165  32.7680  0.00  0.00     0.000 C
ATOM     38  C4  GCT B   3      10.933  58.637  31.4190  0.00  0.00     0.000 C
ATOM     39  C5  GCT B   3      11.566  57.274  31.0590  0.00  0.00     0.000 C
ATOM     40  O5  GCT B   3      11.898  56.646  32.2840  0.00  0.00     0.000 O
ATOM     41   O  GCT B   3      13.354  59.168  34.2350  0.00  0.00     0.000 O
ATOM     43  HD  GCT B   3      14.152  59.255  34.5610  0.00  0.00     0.000 HD
ATOM     43   O  GCT B   3      11.354  60.603  32.8730  0.00  0.00     0.000 O
ATOM     45  HD  GCT B   3      12.152  60.690  33.1990  0.00  0.00     0.000 HD
BRANCH 39 45
ATOM     45   C  GCT B   3      12.773  57.259  30.1460  0.00  0.00     0.000 C
ATOM     46   O  GCT B   3      13.331  56.153  29.8620  0.00  0.00     0.000 OA
ATOM     47   O  GCT B   3      13.167  58.346  29.6910  0.00  0.00     0.000 OA
ENDBRANCH 39 45
BRANCH 35 48
ATOM     48  O3  ASG B   4      14.289  56.915  32.8390  0.00  0.00     0.000 O
BRANCH 48 51
ATOM     49  C1  ASG B   4      16.012  55.127  35.5820  0.00  0.00     0.000 C
ATOM     50  C2  ASG B   4      15.441  56.285  34.7460  0.00  0.00     0.000 C
ATOM     51  C3  ASG B   4      14.535  55.767  33.6320  0.00  0.00     0.000 C
ATOM     52  C4  ASG B   4      15.216  54.667  32.8350  0.00  0.00     0.000 C
ATOM     53  C5  ASG B   4      15.677  53.589  33.8110  0.00  0.00     0.000 C
ATOM     54  O5  ASG B   4      16.619  54.163  34.7380  0.00  0.00     0.000 O
BRANCH 50 57
ATOM     55   N  ASG B   4      15.065  56.785  36.0480  0.00  0.00     0.000 N
ATOM     57  HD  ASG B   4      15.809  57.186  36.2370  0.00  0.00     0.000 HD
ATOM     57   O  ASG B   4      16.463  58.534  35.9940  0.00  0.00     0.000 OA
ATOM     58   C  ASG B   4      15.533  57.939  36.5320  0.00  0.00     0.000 C
ATOM     59   C  ASG B   4      14.886  58.423  37.7930  0.00  0.00     0.000 C
ENDBRANCH 50 57
BRANCH 52 60
ATOM     60   O  ASG B   4      16.316  55.377  32.1330  0.00  0.00     0.000 O
ATOM     61   O  ASG B   4      15.940  54.127  30.0060  0.00  0.00     0.000 OA
ATOM     62   O  ASG B   4      17.535  55.893  30.0760  0.00  0.00     0.000 OA
ATOM     63   O  ASG B   4      17.918  53.924  31.3790  0.00  0.00     0.000 OA
ATOM     64   S  ASG B   4      16.931  54.816  30.7630  0.00  0.00     0.000 S
ENDBRANCH 52 60
ATOM     65   O  ASG B   4      16.420  51.296  34.0780  0.00  0.00     0.000 O
ATOM     67  HD  ASG B   4      17.065  51.562  34.5910  0.00  0.00     0.000 HD
ATOM     67   O  ASG B   4      16.420  51.296  34.0780  0.00  0.00     0.000 O
ATOM     69  HD  ASG B   4      17.065  51.562  34.5910  0.00  0.00     0.000 HD
ENDBRANCH 48 51
ENDBRANCH 35 48
ENDBRANCH 34 38
ENDBRANCH 15 34
ENDBRANCH 14 17
ENDBRANCH 1 14
TORSDOF 12
ENDMDL
MODEL 17
REMARK VINA RESULT:      -6.2      7.693     11.963
ROOT
ATOM      1  C1  GAD B   1       7.786  65.469  39.6390  0.00  0.00     0.000 C
ATOM      2  C2  GAD B   1       8.784  64.850  38.6550  0.00  0.00     0.000 C
ATOM      3  C3  GAD B   1      10.109  64.554  39.3660  0.00  0.00     0.000 C
ATOM      4  C4  GAD B   1      10.457  65.530  40.4940  0.00  0.00     0.000 C
ATOM      5  C5  GAD B   1       9.624  66.483  40.9570  0.00  0.00     0.000 C
ATOM      6  O5  GAD B   1       8.344  66.610  40.3080  0.00  0.00     0.000 O
ATOM      7   O  GAD B   1       8.215  63.664  37.9870  0.00  0.00     0.000 O
ATOM      9  HD  GAD B   1       7.487  64.005  38.3100  0.00  0.00     0.000 HD
ATOM      9   O  GAD B   1      11.224  64.590  38.4470  0.00  0.00     0.000 O
ATOM     11  HD  GAD B   1      10.497  64.931  38.7700  0.00  0.00     0.000 HD
ENDROOT
BRANCH 5 11
ATOM     11   C  GAD B   1       9.909  67.361  42.1160  0.00  0.00     0.000 C
ATOM     12   O  GAD B   1      10.685  66.900  43.0100  0.00  0.00     0.000 OA
ATOM     13   O  GAD B   1       9.318  68.498  42.2250  0.00  0.00     0.000 OA
ENDBRANCH 5 11
BRANCH 1 14
ATOM     14  O3  ASG B   2       6.722  66.205  39.2670  0.00  0.00     0.000 O
BRANCH 14 17
ATOM     15  C1  ASG B   2       3.659  66.027  37.0610  0.00  0.00     0.000 C
ATOM     16  C2  ASG B   2       5.043  66.514  37.5140  0.00  0.00     0.000 C
ATOM     17  C3  ASG B   2       5.432  65.787  38.8040  0.00  0.00     0.000 C
ATOM     18  C4  ASG B   2       4.395  66.048  39.8800  0.00  0.00     0.000 C
ATOM     19  C5  ASG B   2       3.018  65.668  39.3470  0.00  0.00     0.000 C
ATOM     20  O5  ASG B   2       2.762  66.356  38.1060  0.00  0.00     0.000 O
ATOM     21   C  ASG B   2       1.911  66.047  40.2790  0.00  0.00     0.000 C
ATOM     22   O  ASG B   2       0.675  65.863  39.6330  0.00  0.00     0.000 O
ATOM     24  HD  ASG B   2      -0.146  65.797  39.3660  0.00  0.00     0.000 HD
BRANCH 16 26
ATOM     24   N  ASG B   2       6.003  67.523  37.1310  0.00  0.00     0.000 N
ATOM     26  HD  ASG B   2       5.847  67.324  37.9590  0.00  0.00     0.000 HD
ATOM     26   C  ASG B   2       7.085  67.282  36.3670  0.00  0.00     0.000 C
ATOM     27   C  ASG B   2       7.763  68.479  35.7950  0.00  0.00     0.000 C
ATOM     28   O  ASG B   2       7.484  66.143  36.1570  0.00  0.00     0.000 OA
ENDBRANCH 16 26
BRANCH 18 29
ATOM     29   O  ASG B   2       4.501  67.473  40.2230  0.00  0.00     0.000 O
ATOM     30   O  ASG B   2       3.728  67.180  42.5380  0.00  0.00     0.000 OA
ATOM     31   O  ASG B   2       6.074  67.611  42.0900  0.00  0.00     0.000 OA
ATOM     32   O  ASG B   2       4.435  69.353  41.7390  0.00  0.00     0.000 OA
ATOM     33   S  ASG B   2       4.703  67.915  41.7550  0.00  0.00     0.000 S
ENDBRANCH 18 29
BRANCH 15 34
ATOM     34  O4  ASG B   3       3.210  66.630  35.8810  0.00  0.00     0.000 O
BRANCH 34 38
ATOM     35  C1  GCT B   3       5.828  65.059  33.2280  0.00  0.00     0.000 C
ATOM     36  C2  GCT B   3       5.070  66.261  32.7070  0.00  0.00     0.000 C
ATOM     37  C3  GCT B   3       4.453  67.050  33.8530  0.00  0.00     0.000 C
ATOM     38  C4  GCT B   3       3.492  66.142  34.6300  0.00  0.00     0.000 C
ATOM     39  C5  GCT B   3       3.979  64.676  34.6640  0.00  0.00     0.000 C
ATOM     40  O5  GCT B   3       5.390  64.715  34.5380  0.00  0.00     0.000 O
ATOM     41   O  GCT B   3       6.014  67.062  32.0100  0.00  0.00     0.000 O
ATOM     43  HD  GCT B   3       6.378  66.982  31.2280  0.00  0.00     0.000 HD
ATOM     43   O  GCT B   3       3.804  68.219  33.3090  0.00  0.00     0.000 O
ATOM     45  HD  GCT B   3       4.168  68.139  32.5280  0.00  0.00     0.000 HD
BRANCH 39 45
ATOM     45   C  GCT B   3       3.414  63.706  33.6490  0.00  0.00     0.000 C
ATOM     46   O  GCT B   3       2.642  64.136  32.7340  0.00  0.00     0.000 OA
ATOM     47   O  GCT B   3       3.742  62.513  33.7440  0.00  0.00     0.000 OA
ENDBRANCH 39 45
BRANCH 35 48
ATOM     48  O3  ASG B   4       6.121  64.261  32.2230  0.00  0.00     0.000 O
BRANCH 48 51
ATOM     49  C1  ASG B   4       9.615  63.561  31.2280  0.00  0.00     0.000 C
ATOM     50  C2  ASG B   4       8.244  64.253  31.2980  0.00  0.00     0.000 C
ATOM     51  C3  ASG B   4       7.402  63.695  32.4420  0.00  0.00     0.000 C
ATOM     52  C4  ASG B   4       7.359  62.177  32.4050  0.00  0.00     0.000 C
ATOM     53  C5  ASG B   4       8.795  61.662  32.3830  0.00  0.00     0.000 C
ATOM     54  O5  ASG B   4       9.455  62.152  31.2000  0.00  0.00     0.000 O
BRANCH 50 57
ATOM     55   N  ASG B   4       7.313  64.390  30.2010  0.00  0.00     0.000 N
ATOM     57  HD  ASG B   4       7.432  65.235  30.0550  0.00  0.00     0.000 HD
ATOM     57   O  ASG B   4       8.373  66.127  29.2650  0.00  0.00     0.000 OA
ATOM     58   C  ASG B   4       7.509  65.257  29.2030  0.00  0.00     0.000 C
ATOM     59   C  ASG B   4       6.575  65.129  28.0400  0.00  0.00     0.000 C
ENDBRANCH 50 57
BRANCH 52 60
ATOM     60   O  ASG B   4       6.578  61.882  31.1750  0.00  0.00     0.000 O
ATOM     61   O  ASG B   4       5.424  59.931  32.2210  0.00  0.00     0.000 OA
ATOM     62   O  ASG B   4       4.798  60.647  30.0390  0.00  0.00     0.000 OA
ATOM     63   O  ASG B   4       6.994  59.770  30.3930  0.00  0.00     0.000 OA
ATOM     64   S  ASG B   4       5.845  60.471  30.9720  0.00  0.00     0.000 S
ENDBRANCH 52 60
ATOM     65   O  ASG B   4      10.259  59.758  32.7210  0.00  0.00     0.000 O
ATOM     67  HD  ASG B   4      10.669  59.938  31.9800  0.00  0.00     0.000 HD
ATOM     67   O  ASG B   4      10.259  59.758  32.7210  0.00  0.00     0.000 O
ATOM     69  HD  ASG B   4      10.669  59.938  31.9800  0.00  0.00     0.000 HD
ENDBRANCH 48 51
ENDBRANCH 35 48
ENDBRANCH 34 38
ENDBRANCH 15 34
ENDBRANCH 14 17
ENDBRANCH 1 14
TORSDOF 12
ENDMDL
MODEL 18
REMARK VINA RESULT:      -5.9     25.522     31.150
ROOT
ATOM      1  C1  GAD B   1      28.964  47.391  57.1170  0.00  0.00     0.000 C
ATOM      2  C2  GAD B   1      29.701  47.042  55.8210  0.00  0.00     0.000 C
ATOM      3  C3  GAD B   1      29.433  48.114  54.7570  0.00  0.00     0.000 C
ATOM      4  C4  GAD B   1      28.052  48.769  54.8500  0.00  0.00     0.000 C
ATOM      5  C5  GAD B   1      27.180  48.564  55.8570  0.00  0.00     0.000 C
ATOM      6  O5  GAD B   1      27.568  47.629  56.8830  0.00  0.00     0.000 O
ATOM      7   O  GAD B   1      31.140  46.822  56.0620  0.00  0.00     0.000 O
ATOM      9  HD  GAD B   1      30.853  46.780  56.8780  0.00  0.00     0.000 HD
ATOM      9   O  GAD B   1      29.531  47.572  53.4210  0.00  0.00     0.000 O
ATOM     11  HD  GAD B   1      29.244  47.529  54.2370  0.00  0.00     0.000 HD
ENDROOT
BRANCH 5 11
ATOM     11   C  GAD B   1      25.888  49.272  56.0110  0.00  0.00     0.000 C
ATOM     12   O  GAD B   1      25.694  49.882  57.1080  0.00  0.00     0.000 OA
ATOM     13   O  GAD B   1      24.991  49.186  55.0940  0.00  0.00     0.000 OA
ENDBRANCH 5 11
BRANCH 1 14
ATOM     14  O3  ASG B   2      28.653  46.493  58.0710  0.00  0.00     0.000 O
BRANCH 14 17
ATOM     15  C1  ASG B   2      26.051  46.351  60.8070  0.00  0.00     0.000 C
ATOM     16  C2  ASG B   2      27.417  46.655  60.1770  0.00  0.00     0.000 C
ATOM     17  C3  ASG B   2      27.398  46.226  58.7070  0.00  0.00     0.000 C
ATOM     18  C4  ASG B   2      27.079  44.747  58.6030  0.00  0.00     0.000 C
ATOM     19  C5  ASG B   2      25.778  44.464  59.3480  0.00  0.00     0.000 C
ATOM     20  O5  ASG B   2      25.869  44.951  60.7010  0.00  0.00     0.000 O
ATOM     21   C  ASG B   2      25.469  43.004  59.4410  0.00  0.00     0.000 C
ATOM     22   O  ASG B   2      24.384  42.812  60.3140  0.00  0.00     0.000 O
ATOM     24  HD  ASG B   2      23.732  42.548  60.8190  0.00  0.00     0.000 HD
BRANCH 16 26
ATOM     24   N  ASG B   2      27.852  48.023  60.3400  0.00  0.00     0.000 N
ATOM     26  HD  ASG B   2      27.310  47.641  60.8970  0.00  0.00     0.000 HD
ATOM     26   C  ASG B   2      29.137  48.392  60.4920  0.00  0.00     0.000 C
ATOM     27   C  ASG B   2      29.431  49.840  60.3030  0.00  0.00     0.000 C
ATOM     28   O  ASG B   2      30.012  47.580  60.7680  0.00  0.00     0.000 OA
ENDBRANCH 16 26
BRANCH 18 29
ATOM     29   O  ASG B   2      28.228  44.031  59.1720  0.00  0.00     0.000 O
ATOM     30   O  ASG B   2      28.093  42.148  57.5970  0.00  0.00     0.000 OA
ATOM     31   O  ASG B   2      29.854  43.801  57.3600  0.00  0.00     0.000 OA
ATOM     32   O  ASG B   2      29.879  42.267  59.2280  0.00  0.00     0.000 OA
ATOM     33   S  ASG B   2      29.061  43.001  58.2620  0.00  0.00     0.000 S
ENDBRANCH 18 29
BRANCH 15 34
ATOM     34  O4  ASG B   3      25.961  46.712  62.1560  0.00  0.00     0.000 O
BRANCH 34 38
ATOM     35  C1  GCT B   3      24.134  46.023  65.6980  0.00  0.00     0.000 C
ATOM     36  C2  GCT B   3      25.527  45.440  65.6000  0.00  0.00     0.000 C
ATOM     37  C3  GCT B   3      26.306  46.086  64.4630  0.00  0.00     0.000 C
ATOM     38  C4  GCT B   3      25.562  45.848  63.1430  0.00  0.00     0.000 C
ATOM     39  C5  GCT B   3      24.029  45.837  63.3360  0.00  0.00     0.000 C
ATOM     40  O5  GCT B   3      23.758  46.639  64.4710  0.00  0.00     0.000 O
ATOM     41   O  GCT B   3      26.162  45.702  66.8430  0.00  0.00     0.000 O
ATOM     43  HD  GCT B   3      26.087  45.332  67.6230  0.00  0.00     0.000 HD
ATOM     43   O  GCT B   3      27.644  45.547  64.4580  0.00  0.00     0.000 O
ATOM     45  HD  GCT B   3      27.570  45.177  65.2380  0.00  0.00     0.000 HD
BRANCH 39 45
ATOM     45   C  GCT B   3      23.332  44.502  63.4880  0.00  0.00     0.000 C
ATOM     46   O  GCT B   3      22.094  44.470  63.7740  0.00  0.00     0.000 OA
ATOM     47   O  GCT B   3      24.007  43.475  63.3120  0.00  0.00     0.000 OA
ENDBRANCH 39 45
BRANCH 35 48
ATOM     48  O3  ASG B   4      23.405  45.275  66.4990  0.00  0.00     0.000 O
BRANCH 48 51
ATOM     49  C1  ASG B   4      21.837  45.657  69.8290  0.00  0.00     0.000 C
ATOM     50  C2  ASG B   4      22.485  44.989  68.6050  0.00  0.00     0.000 C
ATOM     51  C3  ASG B   4      23.066  46.029  67.6500  0.00  0.00     0.000 C
ATOM     52  C4  ASG B   4      22.049  47.113  67.3330  0.00  0.00     0.000 C
ATOM     53  C5  ASG B   4      21.546  47.693  68.6520  0.00  0.00     0.000 C
ATOM     54  O5  ASG B   4      20.911  46.649  69.4150  0.00  0.00     0.000 O
BRANCH 50 57
ATOM     55   N  ASG B   4      23.533  43.994  68.6170  0.00  0.00     0.000 N
ATOM     57  HD  ASG B   4      23.159  43.440  69.1670  0.00  0.00     0.000 HD
ATOM     57   O  ASG B   4      22.173  42.287  69.1170  0.00  0.00     0.000 OA
ATOM     58   C  ASG B   4      23.279  42.691  68.7710  0.00  0.00     0.000 C
ATOM     59   C  ASG B   4      24.440  41.773  68.5460  0.00  0.00     0.000 C
ENDBRANCH 50 57
BRANCH 52 60
ATOM     60   O  ASG B   4      21.016  46.398  66.5380  0.00  0.00     0.000 O
ATOM     61   O  ASG B   4      20.800  48.268  64.8980  0.00  0.00     0.000 OA
ATOM     62   O  ASG B   4      19.619  46.232  64.5370  0.00  0.00     0.000 OA
ATOM     63   O  ASG B   4      19.060  47.584  66.4280  0.00  0.00     0.000 OA
ATOM     64   S  ASG B   4      20.097  47.173  65.4780  0.00  0.00     0.000 S
ENDBRANCH 52 60
ATOM     65   O  ASG B   4      20.402  49.535  69.7370  0.00  0.00     0.000 O
ATOM     67  HD  ASG B   4      19.921  48.975  70.1890  0.00  0.00     0.000 HD
ATOM     67   O  ASG B   4      20.402  49.535  69.7370  0.00  0.00     0.000 O
ATOM     69  HD  ASG B   4      19.921  48.975  70.1890  0.00  0.00     0.000 HD
ENDBRANCH 48 51
ENDBRANCH 35 48
ENDBRANCH 34 38
ENDBRANCH 15 34
ENDBRANCH 14 17
ENDBRANCH 1 14
TORSDOF 12
ENDMDL
MODEL 19
REMARK VINA RESULT:      -5.9      3.181     12.194
ROOT
ATOM      1  C1  GAD B   1       9.121  63.217  41.2340  0.00  0.00     0.000 C
ATOM      2  C2  GAD B   1       8.967  64.741  41.2360  0.00  0.00     0.000 C
ATOM      3  C3  GAD B   1       9.889  65.366  40.1820  0.00  0.00     0.000 C
ATOM      4  C4  GAD B   1      11.195  64.601  39.9480  0.00  0.00     0.000 C
ATOM      5  C5  GAD B   1      11.476  63.397  40.4850  0.00  0.00     0.000 C
ATOM      6  O5  GAD B   1      10.495  62.826  41.3710  0.00  0.00     0.000 O
ATOM      7   O  GAD B   1       7.556  65.140  41.0700  0.00  0.00     0.000 O
ATOM      9  HD  GAD B   1       7.443  64.305  41.2710  0.00  0.00     0.000 HD
ATOM      9   O  GAD B   1      10.272  66.712  40.5410  0.00  0.00     0.000 O
ATOM     11  HD  GAD B   1      10.159  65.877  40.7420  0.00  0.00     0.000 HD
ENDROOT
BRANCH 5 11
ATOM     11   C  GAD B   1      12.689  62.602  40.1820  0.00  0.00     0.000 C
ATOM     12   O  GAD B   1      13.524  63.112  39.3720  0.00  0.00     0.000 OA
ATOM     13   O  GAD B   1      12.823  61.418  40.6660  0.00  0.00     0.000 OA
ENDBRANCH 5 11
BRANCH 1 14
ATOM     14  O3  ASG B   2       8.789  62.427  42.2720  0.00  0.00     0.000 O
BRANCH 14 17
ATOM     15  C1  ASG B   2       9.135  61.759  45.9750  0.00  0.00     0.000 C
ATOM     16  C2  ASG B   2       9.099  61.416  44.4790  0.00  0.00     0.000 C
ATOM     17  C3  ASG B   2       8.829  62.694  43.6780  0.00  0.00     0.000 C
ATOM     18  C4  ASG B   2       7.515  63.312  44.1170  0.00  0.00     0.000 C
ATOM     19  C5  ASG B   2       7.542  63.521  45.6280  0.00  0.00     0.000 C
ATOM     20  O5  ASG B   2       7.858  62.282  46.2920  0.00  0.00     0.000 O
ATOM     21   C  ASG B   2       6.226  63.973  46.1740  0.00  0.00     0.000 C
ATOM     22   O  ASG B   2       6.268  63.938  47.5790  0.00  0.00     0.000 O
ATOM     24  HD  ASG B   2       6.152  63.968  48.4370  0.00  0.00     0.000 HD
BRANCH 16 26
ATOM     24   N  ASG B   2      10.173  60.500  44.1700  0.00  0.00     0.000 N
ATOM     26  HD  ASG B   2       9.665  60.400  44.8640  0.00  0.00     0.000 HD
ATOM     26   C  ASG B   2      10.246  59.782  43.0340  0.00  0.00     0.000 C
ATOM     27   C  ASG B   2      11.568  59.164  42.7330  0.00  0.00     0.000 C
ATOM     28   O  ASG B   2       9.279  59.647  42.2930  0.00  0.00     0.000 OA
ENDBRANCH 16 26
BRANCH 18 29
ATOM     29   O  ASG B   2       6.456  62.388  43.6890  0.00  0.00     0.000 O
ATOM     30   O  ASG B   2       4.716  64.120  43.5610  0.00  0.00     0.000 OA
ATOM     31   O  ASG B   2       5.669  63.207  41.5240  0.00  0.00     0.000 OA
ATOM     32   O  ASG B   2       4.236  61.838  42.9080  0.00  0.00     0.000 OA
ATOM     33   S  ASG B   2       5.195  62.942  42.8620  0.00  0.00     0.000 S
ENDBRANCH 18 29
BRANCH 15 34
ATOM     34  O4  ASG B   3       9.382  60.655  46.7980  0.00  0.00     0.000 O
BRANCH 34 38
ATOM     35  C1  GCT B   3      11.443  59.134  49.9290  0.00  0.00     0.000 C
ATOM     36  C2  GCT B   3      10.048  59.605  50.2800  0.00  0.00     0.000 C
ATOM     37  C3  GCT B   3       9.194  59.747  49.0290  0.00  0.00     0.000 C
ATOM     38  C4  GCT B   3       9.849  60.762  48.0840  0.00  0.00     0.000 C
ATOM     39  C5  GCT B   3      11.392  60.712  48.1590  0.00  0.00     0.000 C
ATOM     40  O5  GCT B   3      11.735  59.397  48.5610  0.00  0.00     0.000 O
ATOM     41   O  GCT B   3       9.497  58.622  51.1450  0.00  0.00     0.000 O
ATOM     43  HD  GCT B   3       9.624  58.449  51.9840  0.00  0.00     0.000 HD
ATOM     43   O  GCT B   3       7.859  60.130  49.4240  0.00  0.00     0.000 O
ATOM     45  HD  GCT B   3       7.987  59.956  50.2630  0.00  0.00     0.000 HD
BRANCH 39 45
ATOM     45   C  GCT B   3      12.101  61.709  49.0490  0.00  0.00     0.000 C
ATOM     46   O  GCT B   3      13.370  61.689  49.1270  0.00  0.00     0.000 OA
ATOM     47   O  GCT B   3      11.404  62.530  49.6670  0.00  0.00     0.000 OA
ENDBRANCH 39 45
BRANCH 35 48
ATOM     48  O3  ASG B   4      12.226  59.273  50.9780  0.00  0.00     0.000 O
BRANCH 48 51
ATOM     49  C1  ASG B   4      13.745  57.025  53.4930  0.00  0.00     0.000 C
ATOM     50  C2  ASG B   4      13.117  58.283  52.8720  0.00  0.00     0.000 C
ATOM     51  C3  ASG B   4      12.546  57.990  51.4870  0.00  0.00     0.000 C
ATOM     52  C4  ASG B   4      13.564  57.276  50.6120  0.00  0.00     0.000 C
ATOM     53  C5  ASG B   4      14.046  56.036  51.3600  0.00  0.00     0.000 C
ATOM     54  O5  ASG B   4      14.673  56.442  52.5920  0.00  0.00     0.000 O
BRANCH 50 57
ATOM     55   N  ASG B   4      12.095  58.747  53.7820  0.00  0.00     0.000 N
ATOM     57  HD  ASG B   4      12.617  58.981  54.4320  0.00  0.00     0.000 HD
ATOM     57   O  ASG B   4      13.431  60.191  54.8520  0.00  0.00     0.000 OA
ATOM     58   C  ASG B   4      12.306  59.749  54.6400  0.00  0.00     0.000 C
ATOM     59   C  ASG B   4      11.092  60.253  55.3590  0.00  0.00     0.000 C
ENDBRANCH 50 57
BRANCH 52 60
ATOM     60   O  ASG B   4      14.610  58.307  50.3850  0.00  0.00     0.000 O
ATOM     61   O  ASG B   4      14.662  57.897  47.9230  0.00  0.00     0.000 OA
ATOM     62   O  ASG B   4      15.948  59.670  48.8570  0.00  0.00     0.000 OA
ATOM     63   O  ASG B   4      16.489  57.411  49.4280  0.00  0.00     0.000 OA
ATOM     64   S  ASG B   4      15.447  58.358  49.0190  0.00  0.00     0.000 S
ENDBRANCH 52 60
ATOM     65   O  ASG B   4      15.168  53.893  51.1950  0.00  0.00     0.000 O
ATOM     67  HD  ASG B   4      15.645  54.085  51.8920  0.00  0.00     0.000 HD
ATOM     67   O  ASG B   4      15.168  53.893  51.1950  0.00  0.00     0.000 O
ATOM     69  HD  ASG B   4      15.645  54.085  51.8920  0.00  0.00     0.000 HD
ENDBRANCH 48 51
ENDBRANCH 35 48
ENDBRANCH 34 38
ENDBRANCH 15 34
ENDBRANCH 14 17
ENDBRANCH 1 14
TORSDOF 12
ENDMDL
MODEL 20
REMARK VINA RESULT:      -5.8     15.928     18.920
ROOT
ATOM      1  C1  GAD B   1      20.653  52.210  55.4250  0.00  0.00     0.000 C
ATOM      2  C2  GAD B   1      19.514  51.390  56.0390  0.00  0.00     0.000 C
ATOM      3  C3  GAD B   1      19.801  51.118  57.5210  0.00  0.00     0.000 C
ATOM      4  C4  GAD B   1      21.287  50.979  57.8650  0.00  0.00     0.000 C
ATOM      5  C5  GAD B   1      22.292  51.225  57.0010  0.00  0.00     0.000 C
ATOM      6  O5  GAD B   1      21.930  51.597  55.6570  0.00  0.00     0.000 O
ATOM      7   O  GAD B   1      18.206  52.036  55.8190  0.00  0.00     0.000 O
ATOM      9  HD  GAD B   1      18.679  52.478  55.2440  0.00  0.00     0.000 HD
ATOM      9   O  GAD B   1      19.171  49.897  57.9680  0.00  0.00     0.000 O
ATOM     11  HD  GAD B   1      19.644  50.339  57.3930  0.00  0.00     0.000 HD
ENDROOT
BRANCH 5 11
ATOM     11   C  GAD B   1      23.731  51.198  57.3520  0.00  0.00     0.000 C
ATOM     12   O  GAD B   1      24.437  52.179  56.9630  0.00  0.00     0.000 OA
ATOM     13   O  GAD B   1      24.231  50.175  57.9520  0.00  0.00     0.000 OA
ENDBRANCH 5 11
BRANCH 1 14
ATOM     14  O3  ASG B   2      20.915  52.261  54.1050  0.00  0.00     0.000 O
BRANCH 14 17
ATOM     15  C1  ASG B   2      20.476  50.560  50.7600  0.00  0.00     0.000 C
ATOM     16  C2  ASG B   2      21.238  51.246  51.9020  0.00  0.00     0.000 C
ATOM     17  C3  ASG B   2      20.250  51.619  53.0110  0.00  0.00     0.000 C
ATOM     18  C4  ASG B   2      19.174  52.535  52.4600  0.00  0.00     0.000 C
ATOM     19  C5  ASG B   2      18.525  51.870  51.2500  0.00  0.00     0.000 C
ATOM     20  O5  ASG B   2      19.534  51.505  50.2880  0.00  0.00     0.000 O
ATOM     21   C  ASG B   2      17.566  52.770  50.5400  0.00  0.00     0.000 C
ATOM     22   O  ASG B   2      17.176  52.172  49.3280  0.00  0.00     0.000 O
ATOM     24  HD  ASG B   2      16.850  51.926  48.5640  0.00  0.00     0.000 HD
BRANCH 16 26
ATOM     24   N  ASG B   2      22.327  50.496  52.4850  0.00  0.00     0.000 N
ATOM     26  HD  ASG B   2      22.019  50.326  51.6940  0.00  0.00     0.000 HD
ATOM     26   C  ASG B   2      23.497  51.041  52.8650  0.00  0.00     0.000 C
ATOM     27   C  ASG B   2      24.355  50.200  53.7470  0.00  0.00     0.000 C
ATOM     28   O  ASG B   2      23.834  52.162  52.5050  0.00  0.00     0.000 OA
ENDBRANCH 16 26
BRANCH 18 29
ATOM     29   O  ASG B   2      19.836  53.803  52.1270  0.00  0.00     0.000 O
ATOM     30   O  ASG B   2      17.858  55.190  52.5840  0.00  0.00     0.000 OA
ATOM     31   O  ASG B   2      19.720  55.184  54.1410  0.00  0.00     0.000 OA
ATOM     32   O  ASG B   2      19.966  56.211  51.9660  0.00  0.00     0.000 OA
ATOM     33   S  ASG B   2      19.298  55.179  52.7600  0.00  0.00     0.000 S
ENDBRANCH 18 29
BRANCH 15 34
ATOM     34  O4  ASG B   3      21.293  50.172  49.6930  0.00  0.00     0.000 O
BRANCH 34 38
ATOM     35  C1  GCT B   3      22.672  50.786  45.9390  0.00  0.00     0.000 C
ATOM     36  C2  GCT B   3      23.444  51.529  47.0080  0.00  0.00     0.000 C
ATOM     37  C3  GCT B   3      23.175  50.934  48.3830  0.00  0.00     0.000 C
ATOM     38  C4  GCT B   3      21.674  51.023  48.6860  0.00  0.00     0.000 C
ATOM     39  C5  GCT B   3      20.814  50.855  47.4130  0.00  0.00     0.000 C
ATOM     40  O5  GCT B   3      21.578  50.076  46.5090  0.00  0.00     0.000 O
ATOM     41   O  GCT B   3      24.819  51.401  46.6760  0.00  0.00     0.000 O
ATOM     43  HD  GCT B   3      25.311  51.792  46.0810  0.00  0.00     0.000 HD
ATOM     43   O  GCT B   3      23.985  51.632  49.3520  0.00  0.00     0.000 O
ATOM     45  HD  GCT B   3      24.478  52.023  48.7570  0.00  0.00     0.000 HD
BRANCH 39 45
ATOM     45   C  GCT B   3      20.323  52.101  46.7080  0.00  0.00     0.000 C
ATOM     46   O  GCT B   3      20.747  53.240  47.0780  0.00  0.00     0.000 OA
ATOM     47   O  GCT B   3      19.521  51.955  45.7700  0.00  0.00     0.000 OA
ENDBRANCH 39 45
BRANCH 35 48
ATOM     48  O3  ASG B   4      22.711  51.473  44.8180  0.00  0.00     0.000 O
BRANCH 48 51
ATOM     49  C1  ASG B   4      22.823  49.331  41.8030  0.00  0.00     0.000 C
ATOM     50  C2  ASG B   4      23.269  50.020  43.1030  0.00  0.00     0.000 C
ATOM     51  C3  ASG B   4      22.096  50.714  43.7910  0.00  0.00     0.000 C
ATOM     52  C4  ASG B   4      21.333  51.598  42.8190  0.00  0.00     0.000 C
ATOM     53  C5  ASG B   4      20.932  50.747  41.6170  0.00  0.00     0.000 C
ATOM     54  O5  ASG B   4      22.121  50.245  40.9760  0.00  0.00     0.000 O
BRANCH 50 57
ATOM     55   N  ASG B   4      23.823  48.732  43.4510  0.00  0.00     0.000 N
ATOM     57  HD  ASG B   4      24.574  48.811  43.0260  0.00  0.00     0.000 HD
ATOM     57   O  ASG B   4      25.958  49.385  43.2680  0.00  0.00     0.000 OA
ATOM     58   C  ASG B   4      25.136  48.540  43.6100  0.00  0.00     0.000 C
ATOM     59   C  ASG B   4      25.532  47.212  44.1780  0.00  0.00     0.000 C
ENDBRANCH 50 57
BRANCH 52 60
ATOM     60   O  ASG B   4      22.295  52.688  42.5110  0.00  0.00     0.000 O
ATOM     61   O  ASG B   4      20.962  54.392  43.7550  0.00  0.00     0.000 OA
ATOM     62   O  ASG B   4      23.083  54.979  42.8460  0.00  0.00     0.000 OA
ATOM     63   O  ASG B   4      21.299  54.401  41.3630  0.00  0.00     0.000 OA
ATOM     64   S  ASG B   4      21.895  54.229  42.6910  0.00  0.00     0.000 S
ENDBRANCH 52 60
ATOM     65   O  ASG B   4      19.494  50.553  39.6740  0.00  0.00     0.000 O
ATOM     67  HD  ASG B   4      20.172  50.313  39.1920  0.00  0.00     0.000 HD
ATOM     67   O  ASG B   4      19.494  50.553  39.6740  0.00  0.00     0.000 O
ATOM     69  HD  ASG B   4      20.172  50.313  39.1920  0.00  0.00     0.000 HD
ENDBRANCH 48 51
ENDBRANCH 35 48
ENDBRANCH 34 38
ENDBRANCH 15 34
ENDBRANCH 14 17
ENDBRANCH 1 14
TORSDOF 12
ENDMDL
MODEL 21
REMARK VINA RESULT:      -5.6     10.789     17.027
ROOT
ATOM      1  C1  GAD B   1       7.543  61.598  32.0730  0.00  0.00     0.000 C
ATOM      2  C2  GAD B   1       6.355  60.637  32.1870  0.00  0.00     0.000 C
ATOM      3  C3  GAD B   1       5.241  61.274  33.0270  0.00  0.00     0.000 C
ATOM      4  C4  GAD B   1       5.736  62.215  34.1290  0.00  0.00     0.000 C
ATOM      5  C5  GAD B   1       7.019  62.600  34.2780  0.00  0.00     0.000 C
ATOM      6  O5  GAD B   1       7.984  62.046  33.3640  0.00  0.00     0.000 O
ATOM      7   O  GAD B   1       5.889  60.198  30.8580  0.00  0.00     0.000 O
ATOM      9  HD  GAD B   1       6.659  60.525  30.6350  0.00  0.00     0.000 HD
ATOM      9   O  GAD B   1       4.436  60.272  33.6880  0.00  0.00     0.000 O
ATOM     11  HD  GAD B   1       5.206  60.600  33.4650  0.00  0.00     0.000 HD
ENDROOT
BRANCH 5 11
ATOM     11   C  GAD B   1       7.492  63.592  35.2730  0.00  0.00     0.000 C
ATOM     12   O  GAD B   1       7.936  64.693  34.8210  0.00  0.00     0.000 OA
ATOM     13   O  GAD B   1       7.516  63.291  36.5230  0.00  0.00     0.000 OA
ENDBRANCH 5 11
BRANCH 1 14
ATOM     14  O3  ASG B   2       8.797  61.210  31.7760  0.00  0.00     0.000 O
BRANCH 14 17
ATOM     15  C1  ASG B   2      11.494  58.622  32.3300  0.00  0.00     0.000 C
ATOM     16  C2  ASG B   2      10.892  60.031  32.2320  0.00  0.00     0.000 C
ATOM     17  C3  ASG B   2       9.407  59.918  31.8760  0.00  0.00     0.000 C
ATOM     18  C4  ASG B   2       9.243  59.174  30.5650  0.00  0.00     0.000 C
ATOM     19  C5  ASG B   2       9.960  57.831  30.6600  0.00  0.00     0.000 C
ATOM     20  O5  ASG B   2      11.333  58.032  31.0530  0.00  0.00     0.000 O
ATOM     21   C  ASG B   2       9.994  57.098  29.3570  0.00  0.00     0.000 C
ATOM     22   O  ASG B   2      10.846  55.985  29.4700  0.00  0.00     0.000 O
ATOM     24  HD  ASG B   2      11.333  55.273  29.3970  0.00  0.00     0.000 HD
BRANCH 16 26
ATOM     24   N  ASG B   2      11.075  60.856  33.4030  0.00  0.00     0.000 N
ATOM     26  HD  ASG B   2      11.603  60.195  33.2160  0.00  0.00     0.000 HD
ATOM     26   C  ASG B   2      11.294  62.183  33.3620  0.00  0.00     0.000 C
ATOM     27   C  ASG B   2      11.117  62.917  34.6470  0.00  0.00     0.000 C
ATOM     28   O  ASG B   2      11.620  62.751  32.3270  0.00  0.00     0.000 OA
ENDBRANCH 16 26
BRANCH 18 29
ATOM     29   O  ASG B   2       9.798  60.044  29.5190  0.00  0.00     0.000 O
ATOM     30   O  ASG B   2       8.202  59.328  27.7920  0.00  0.00     0.000 OA
ATOM     31   O  ASG B   2       7.976  61.517  28.8180  0.00  0.00     0.000 OA
ATOM     32   O  ASG B   2       9.826  61.063  27.3290  0.00  0.00     0.000 OA
ATOM     33   S  ASG B   2       8.872  60.514  28.2920  0.00  0.00     0.000 S
ENDBRANCH 18 29
BRANCH 15 34
ATOM     34  O4  ASG B   3      12.854  58.613  32.6570  0.00  0.00     0.000 O
BRANCH 34 38
ATOM     35  C1  GCT B   3      15.903  57.925  35.2250  0.00  0.00     0.000 C
ATOM     36  C2  GCT B   3      14.713  57.011  35.4230  0.00  0.00     0.000 C
ATOM     37  C3  GCT B   3      13.816  57.016  34.1930  0.00  0.00     0.000 C
ATOM     38  C4  GCT B   3      13.321  58.444  33.9360  0.00  0.00     0.000 C
ATOM     39  C5  GCT B   3      14.379  59.503  34.3230  0.00  0.00     0.000 C
ATOM     40  O5  GCT B   3      15.643  58.876  34.1980  0.00  0.00     0.000 O
ATOM     41   O  GCT B   3      15.236  55.709  35.6460  0.00  0.00     0.000 O
ATOM     43  HD  GCT B   3      15.604  55.342  36.3380  0.00  0.00     0.000 HD
ATOM     43   O  GCT B   3      12.738  56.079  34.4060  0.00  0.00     0.000 O
ATOM     45  HD  GCT B   3      13.106  55.712  35.0990  0.00  0.00     0.000 HD
BRANCH 39 45
ATOM     45   C  GCT B   3      14.277  60.157  35.6840  0.00  0.00     0.000 C
ATOM     46   O  GCT B   3      15.134  61.032  36.0240  0.00  0.00     0.000 OA
ATOM     47   O  GCT B   3      13.336  59.817  36.4200  0.00  0.00     0.000 OA
ENDBRANCH 39 45
BRANCH 35 48
ATOM     48  O3  ASG B   4      16.508  58.106  36.3790  0.00  0.00     0.000 O
BRANCH 48 51
ATOM     49  C1  ASG B   4      20.180  57.777  36.0620  0.00  0.00     0.000 C
ATOM     50  C2  ASG B   4      18.691  57.394  36.0770  0.00  0.00     0.000 C
ATOM     51  C3  ASG B   4      17.802  58.633  36.1430  0.00  0.00     0.000 C
ATOM     52  C4  ASG B   4      18.241  59.566  37.2600  0.00  0.00     0.000 C
ATOM     53  C5  ASG B   4      19.723  59.875  37.0650  0.00  0.00     0.000 C
ATOM     54  O5  ASG B   4      20.475  58.648  37.1420  0.00  0.00     0.000 O
BRANCH 50 57
ATOM     55   N  ASG B   4      18.289  56.455  37.0990  0.00  0.00     0.000 N
ATOM     57  HD  ASG B   4      18.070  55.802  36.5750  0.00  0.00     0.000 HD
ATOM     57   O  ASG B   4      18.744  54.634  35.8780  0.00  0.00     0.000 OA
ATOM     58   C  ASG B   4      18.446  55.136  36.9570  0.00  0.00     0.000 C
ATOM     59   C  ASG B   4      18.183  54.317  38.1830  0.00  0.00     0.000 C
ENDBRANCH 50 57
BRANCH 52 60
ATOM     60   O  ASG B   4      17.926  58.803  38.4950  0.00  0.00     0.000 O
ATOM     61   O  ASG B   4      16.055  60.333  39.1180  0.00  0.00     0.000 OA
ATOM     62   O  ASG B   4      16.463  58.373  40.4070  0.00  0.00     0.000 OA
ATOM     63   O  ASG B   4      18.110  60.107  40.3680  0.00  0.00     0.000 OA
ATOM     64   S  ASG B   4      17.019  59.433  39.6560  0.00  0.00     0.000 S
ENDBRANCH 52 60
ATOM     65   O  ASG B   4      21.568  61.342  37.6350  0.00  0.00     0.000 O
ATOM     67  HD  ASG B   4      22.075  60.654  37.7760  0.00  0.00     0.000 HD
ATOM     67   O  ASG B   4      21.568  61.342  37.6350  0.00  0.00     0.000 O
ATOM     69  HD  ASG B   4      22.075  60.654  37.7760  0.00  0.00     0.000 HD
ENDBRANCH 48 51
ENDBRANCH 35 48
ENDBRANCH 34 38
ENDBRANCH 15 34
ENDBRANCH 14 17
ENDBRANCH 1 14
TORSDOF 12
ENDMDL
MODEL 22
REMARK VINA RESULT:      -5.5      8.318     15.763
ROOT
ATOM      1  C1  GAD B   1       8.734  65.144  28.6740  0.00  0.00     0.000 C
ATOM      2  C2  GAD B   1       8.193  64.624  27.3380  0.00  0.00     0.000 C
ATOM      3  C3  GAD B   1       8.978  65.242  26.1750  0.00  0.00     0.000 C
ATOM      4  C4  GAD B   1       9.490  66.661  26.4380  0.00  0.00     0.000 C
ATOM      5  C5  GAD B   1       9.417  67.285  27.6310  0.00  0.00     0.000 C
ATOM      6  O5  GAD B   1       8.769  66.578  28.7050  0.00  0.00     0.000 O
ATOM      7   O  GAD B   1       8.181  63.149  27.3000  0.00  0.00     0.000 O
ATOM      9  HD  GAD B   1       8.284  63.266  28.1520  0.00  0.00     0.000 HD
ATOM      9   O  GAD B   1       8.176  65.322  24.9760  0.00  0.00     0.000 O
ATOM     11  HD  GAD B   1       8.280  65.439  25.8280  0.00  0.00     0.000 HD
ENDROOT
BRANCH 5 11
ATOM     11   C  GAD B   1      10.003  68.614  27.9240  0.00  0.00     0.000 C
ATOM     12   O  GAD B   1      10.545  69.231  26.9540  0.00  0.00     0.000 OA
ATOM     13   O  GAD B   1      10.022  69.060  29.1300  0.00  0.00     0.000 OA
ENDBRANCH 5 11
BRANCH 1 14
ATOM     14  O3  ASG B   2       8.033  65.133  29.8230  0.00  0.00     0.000 O
BRANCH 14 17
ATOM     15  C1  ASG B   2       4.817  64.263  31.6060  0.00  0.00     0.000 C
ATOM     16  C2  ASG B   2       6.056  65.103  31.2650  0.00  0.00     0.000 C
ATOM     17  C3  ASG B   2       6.865  64.385  30.1800  0.00  0.00     0.000 C
ATOM     18  C4  ASG B   2       7.270  63.006  30.6630  0.00  0.00     0.000 C
ATOM     19  C5  ASG B   2       6.024  62.248  31.1090  0.00  0.00     0.000 C
ATOM     20  O5  ASG B   2       5.300  63.022  32.0860  0.00  0.00     0.000 O
ATOM     21   C  ASG B   2       6.343  60.938  31.7560  0.00  0.00     0.000 C
ATOM     22   O  ASG B   2       5.174  60.404  32.3270  0.00  0.00     0.000 O
ATOM     24  HD  ASG B   2       4.543  59.959  32.7190  0.00  0.00     0.000 HD
BRANCH 16 26
ATOM     24   N  ASG B   2       5.856  66.449  30.7800  0.00  0.00     0.000 N
ATOM     26  HD  ASG B   2       5.230  66.003  31.1790  0.00  0.00     0.000 HD
ATOM     26   C  ASG B   2       6.568  67.513  31.1970  0.00  0.00     0.000 C
ATOM     27   C  ASG B   2       6.467  68.739  30.3560  0.00  0.00     0.000 C
ATOM     28   O  ASG B   2       7.257  67.470  32.2090  0.00  0.00     0.000 OA
ENDBRANCH 16 26
BRANCH 18 29
ATOM     29   O  ASG B   2       8.233  63.212  31.7530  0.00  0.00     0.000 O
ATOM     30   O  ASG B   2       9.447  61.112  31.3490  0.00  0.00     0.000 OA
ATOM     31   O  ASG B   2      10.447  63.231  30.7140  0.00  0.00     0.000 OA
ATOM     32   O  ASG B   2      10.196  62.664  33.0510  0.00  0.00     0.000 OA
ATOM     33   S  ASG B   2       9.675  62.503  31.6930  0.00  0.00     0.000 S
ENDBRANCH 18 29
BRANCH 15 34
ATOM     34  O4  ASG B   3       4.003  64.836  32.5890  0.00  0.00     0.000 O
BRANCH 34 38
ATOM     35  C1  GCT B   3       3.810  66.169  36.4030  0.00  0.00     0.000 C
ATOM     36  C2  GCT B   3       3.875  67.271  35.3690  0.00  0.00     0.000 C
ATOM     37  C3  GCT B   3       3.509  66.741  33.9890  0.00  0.00     0.000 C
ATOM     38  C4  GCT B   3       4.486  65.625  33.6030  0.00  0.00     0.000 C
ATOM     39  C5  GCT B   3       4.938  64.800  34.8290  0.00  0.00     0.000 C
ATOM     40  O5  GCT B   3       3.896  64.890  35.7840  0.00  0.00     0.000 O
ATOM     41   O  GCT B   3       2.945  68.264  35.7780  0.00  0.00     0.000 O
ATOM     43  HD  GCT B   3       2.978  68.872  36.3940  0.00  0.00     0.000 HD
ATOM     43   O  GCT B   3       3.518  67.843  33.0570  0.00  0.00     0.000 O
ATOM     45  HD  GCT B   3       3.551  68.451  33.6720  0.00  0.00     0.000 HD
BRANCH 39 45
ATOM     45   C  GCT B   3       6.253  65.153  35.4890  0.00  0.00     0.000 C
ATOM     46   O  GCT B   3       6.658  64.475  36.4850  0.00  0.00     0.000 OA
ATOM     47   O  GCT B   3       6.902  66.099  35.0130  0.00  0.00     0.000 OA
ENDBRANCH 39 45
BRANCH 35 48
ATOM     48  O3  ASG B   4       4.378  66.583  37.5160  0.00  0.00     0.000 O
BRANCH 48 51
ATOM     49  C1  ASG B   4       1.803  65.787  40.0500  0.00  0.00     0.000 C
ATOM     50  C2  ASG B   4       2.443  66.328  38.7600  0.00  0.00     0.000 C
ATOM     51  C3  ASG B   4       3.874  65.824  38.6010  0.00  0.00     0.000 C
ATOM     52  C4  ASG B   4       4.682  66.051  39.8690  0.00  0.00     0.000 C
ATOM     53  C5  ASG B   4       3.927  65.415  41.0330  0.00  0.00     0.000 C
ATOM     54  O5  ASG B   4       2.640  66.051  41.1640  0.00  0.00     0.000 O
BRANCH 50 57
ATOM     55   N  ASG B   4       1.988  67.633  39.1810  0.00  0.00     0.000 N
ATOM     57  HD  ASG B   4       1.683  67.900  38.4150  0.00  0.00     0.000 HD
ATOM     57   O  ASG B   4       0.402  67.800  37.6090  0.00  0.00     0.000 OA
ATOM     58   C  ASG B   4       0.924  68.229  38.6330  0.00  0.00     0.000 C
ATOM     59   C  ASG B   4       0.454  69.474  39.3200  0.00  0.00     0.000 C
ENDBRANCH 50 57
BRANCH 52 60
ATOM     60   O  ASG B   4       4.802  67.530  39.9440  0.00  0.00     0.000 O
ATOM     61   O  ASG B   4       7.218  67.494  39.3150  0.00  0.00     0.000 OA
ATOM     62   O  ASG B   4       6.087  69.575  39.5590  0.00  0.00     0.000 OA
ATOM     63   O  ASG B   4       6.378  68.175  41.4760  0.00  0.00     0.000 OA
ATOM     64   S  ASG B   4       6.234  68.247  40.0180  0.00  0.00     0.000 S
ENDBRANCH 52 60
ATOM     65   O  ASG B   4       4.050  64.615  43.3180  0.00  0.00     0.000 O
ATOM     67  HD  ASG B   4       3.314  65.029  43.5070  0.00  0.00     0.000 HD
ATOM     67   O  ASG B   4       4.050  64.615  43.3180  0.00  0.00     0.000 O
ATOM     69  HD  ASG B   4       3.314  65.029  43.5070  0.00  0.00     0.000 HD
ENDBRANCH 48 51
ENDBRANCH 35 48
ENDBRANCH 34 38
ENDBRANCH 15 34
ENDBRANCH 14 17
ENDBRANCH 1 14
TORSDOF 12
ENDMDL
MODEL 23
REMARK VINA RESULT:      -5.5      5.979     11.519
ROOT
ATOM      1  C1  GAD B   1      18.072  58.690  40.5930  0.00  0.00     0.000 C
ATOM      2  C2  GAD B   1      17.637  57.897  39.3570  0.00  0.00     0.000 C
ATOM      3  C3  GAD B   1      18.280  58.490  38.0970  0.00  0.00     0.000 C
ATOM      4  C4  GAD B   1      18.506  60.003  38.1510  0.00  0.00     0.000 C
ATOM      5  C5  GAD B   1      18.317  60.760  39.2510  0.00  0.00     0.000 C
ATOM      6  O5  GAD B   1      17.826  60.095  40.4310  0.00  0.00     0.000 O
ATOM      7   O  GAD B   1      17.915  56.457  39.5170  0.00  0.00     0.000 O
ATOM      9  HD  GAD B   1      17.998  56.708  40.3420  0.00  0.00     0.000 HD
ATOM      9   O  GAD B   1      17.472  58.247  36.9240  0.00  0.00     0.000 O
ATOM     11  HD  GAD B   1      17.555  58.498  37.7490  0.00  0.00     0.000 HD
ENDROOT
BRANCH 5 11
ATOM     11   C  GAD B   1      18.633  62.204  39.3450  0.00  0.00     0.000 C
ATOM     12   O  GAD B   1      18.513  62.746  40.4870  0.00  0.00     0.000 OA
ATOM     13   O  GAD B   1      18.933  62.870  38.2860  0.00  0.00     0.000 OA
ENDBRANCH 5 11
BRANCH 1 14
ATOM     14  O3  ASG B   2      17.394  58.703  41.7550  0.00  0.00     0.000 O
BRANCH 14 17
ATOM     15  C1  ASG B   2      14.787  56.771  43.6920  0.00  0.00     0.000 C
ATOM     16  C2  ASG B   2      15.374  57.961  42.9200  0.00  0.00     0.000 C
ATOM     17  C3  ASG B   2      16.802  57.621  42.4840  0.00  0.00     0.000 C
ATOM     18  C4  ASG B   2      17.652  57.301  43.6990  0.00  0.00     0.000 C
ATOM     19  C5  ASG B   2      16.972  56.199  44.5060  0.00  0.00     0.000 C
ATOM     20  O5  ASG B   2      15.619  56.583  44.8220  0.00  0.00     0.000 O
ATOM     21   C  ASG B   2      17.653  55.932  45.8100  0.00  0.00     0.000 C
ATOM     22   O  ASG B   2      16.857  55.068  46.5840  0.00  0.00     0.000 O
ATOM     24  HD  ASG B   2      16.477  54.547  47.1610  0.00  0.00     0.000 HD
BRANCH 16 26
ATOM     24   N  ASG B   2      14.777  58.411  41.6830  0.00  0.00     0.000 N
ATOM     26  HD  ASG B   2      14.391  57.832  42.1990  0.00  0.00     0.000 HD
ATOM     26   C  ASG B   2      14.460  59.693  41.4230  0.00  0.00     0.000 C
ATOM     27   C  ASG B   2      14.180  60.022  39.9970  0.00  0.00     0.000 C
ATOM     28   O  ASG B   2      14.406  60.536  42.3100  0.00  0.00     0.000 OA
ENDBRANCH 16 26
BRANCH 18 29
ATOM     29   O  ASG B   2      17.793  58.554  44.4520  0.00  0.00     0.000 O
ATOM     30   O  ASG B   2      20.059  58.049  45.2600  0.00  0.00     0.000 OA
ATOM     31   O  ASG B   2      19.737  59.701  43.5100  0.00  0.00     0.000 OA
ATOM     32   O  ASG B   2      19.012  60.173  45.7670  0.00  0.00     0.000 OA
ATOM     33   S  ASG B   2      19.256  59.147  44.7540  0.00  0.00     0.000 S
ENDBRANCH 18 29
BRANCH 15 34
ATOM     34  O4  ASG B   3      13.475  56.978  44.1320  0.00  0.00     0.000 O
BRANCH 34 38
ATOM     35  C1  GCT B   3      10.954  58.976  46.5840  0.00  0.00     0.000 C
ATOM     36  C2  GCT B   3      11.064  59.571  45.1970  0.00  0.00     0.000 C
ATOM     37  C3  GCT B   3      11.655  58.563  44.2210  0.00  0.00     0.000 C
ATOM     38  C4  GCT B   3      13.049  58.148  44.7070  0.00  0.00     0.000 C
ATOM     39  C5  GCT B   3      13.139  58.116  46.2500  0.00  0.00     0.000 C
ATOM     40  O5  GCT B   3      11.829  57.862  46.7260  0.00  0.00     0.000 O
ATOM     41   O  GCT B   3       9.746  59.923  44.8030  0.00  0.00     0.000 O
ATOM     43  HD  GCT B   3       9.232  60.586  45.0210  0.00  0.00     0.000 HD
ATOM     43   O  GCT B   3      11.673  59.155  42.9050  0.00  0.00     0.000 O
ATOM     45  HD  GCT B   3      11.159  59.817  43.1230  0.00  0.00     0.000 HD
BRANCH 39 45
ATOM     45   C  GCT B   3      13.705  59.324  46.9630  0.00  0.00     0.000 C
ATOM     46   O  GCT B   3      14.057  60.343  46.2880  0.00  0.00     0.000 OA
ATOM     47   O  GCT B   3      13.793  59.276  48.2010  0.00  0.00     0.000 OA
ENDBRANCH 39 45
BRANCH 35 48
ATOM     48  O3  ASG B   4      10.695  59.934  47.4490  0.00  0.00     0.000 O
BRANCH 48 51
ATOM     49  C1  ASG B   4       7.657  60.856  49.3490  0.00  0.00     0.000 C
ATOM     50  C2  ASG B   4       8.854  60.975  48.3900  0.00  0.00     0.000 C
ATOM     51  C3  ASG B   4       9.503  59.616  48.1460  0.00  0.00     0.000 C
ATOM     52  C4  ASG B   4       9.793  58.901  49.4560  0.00  0.00     0.000 C
ATOM     53  C5  ASG B   4       8.495  58.834  50.2570  0.00  0.00     0.000 C
ATOM     54  O5  ASG B   4       8.040  60.173  50.5320  0.00  0.00     0.000 O
BRANCH 50 57
ATOM     55   N  ASG B   4       8.281  61.571  47.2050  0.00  0.00     0.000 N
ATOM     57  HD  ASG B   4       8.130  62.357  47.5330  0.00  0.00     0.000 HD
ATOM     57   O  ASG B   4       8.876  63.664  47.7340  0.00  0.00     0.000 OA
ATOM     58   C  ASG B   4       8.429  62.867  46.9150  0.00  0.00     0.000 C
ATOM     59   C  ASG B   4       7.965  63.283  45.5530  0.00  0.00     0.000 C
ENDBRANCH 50 57
BRANCH 52 60
ATOM     60   O  ASG B   4      10.859  59.730  50.0760  0.00  0.00     0.000 O
ATOM     61   O  ASG B   4      11.938  57.758  51.1630  0.00  0.00     0.000 OA
ATOM     62   O  ASG B   4      12.968  59.900  51.3030  0.00  0.00     0.000 OA
ATOM     63   O  ASG B   4      10.851  59.554  52.3590  0.00  0.00     0.000 OA
ATOM     64   S  ASG B   4      11.760  59.167  51.2760  0.00  0.00     0.000 S
ENDBRANCH 52 60
ATOM     65   O  ASG B   4       7.312  57.780  52.0930  0.00  0.00     0.000 O
ATOM     67  HD  ASG B   4       7.051  58.557  52.3740  0.00  0.00     0.000 HD
ATOM     67   O  ASG B   4       7.312  57.780  52.0930  0.00  0.00     0.000 O
ATOM     69  HD  ASG B   4       7.051  58.557  52.3740  0.00  0.00     0.000 HD
ENDBRANCH 48 51
ENDBRANCH 35 48
ENDBRANCH 34 38
ENDBRANCH 15 34
ENDBRANCH 14 17
ENDBRANCH 1 14
TORSDOF 12
ENDMDL
MODEL 24
REMARK VINA RESULT:      -5.4      3.281     11.565
ROOT
ATOM      1  C1  GAD B   1       9.546  65.720  43.1080  0.00  0.00     0.000 C
ATOM      2  C2  GAD B   1      11.004  66.092  43.3920  0.00  0.00     0.000 C
ATOM      3  C3  GAD B   1      11.344  67.433  42.7300  0.00  0.00     0.000 C
ATOM      4  C4  GAD B   1      10.592  67.705  41.4240  0.00  0.00     0.000 C
ATOM      5  C5  GAD B   1       9.595  66.933  40.9480  0.00  0.00     0.000 C
ATOM      6  O5  GAD B   1       9.257  65.754  41.7030  0.00  0.00     0.000 O
ATOM      7   O  GAD B   1      11.291  66.080  44.8390  0.00  0.00     0.000 O
ATOM      9  HD  GAD B   1      10.541  65.647  44.8420  0.00  0.00     0.000 HD
ATOM      9   O  GAD B   1      12.750  67.526  42.4090  0.00  0.00     0.000 O
ATOM     11  HD  GAD B   1      12.000  67.093  42.4110  0.00  0.00     0.000 HD
ENDROOT
BRANCH 5 11
ATOM     11   C  GAD B   1       8.790  67.243  39.7430  0.00  0.00     0.000 C
ATOM     12   O  GAD B   1       7.527  67.186  39.8650  0.00  0.00     0.000 OA
ATOM     13   O  GAD B   1       9.371  67.476  38.6200  0.00  0.00     0.000 OA
ENDBRANCH 5 11
BRANCH 1 14
ATOM     14  O3  ASG B   2       9.063  64.465  43.1800  0.00  0.00     0.000 O
BRANCH 14 17
ATOM     15  C1  ASG B   2       9.732  61.280  45.1000  0.00  0.00     0.000 C
ATOM     16  C2  ASG B   2       9.756  62.229  43.8940  0.00  0.00     0.000 C
ATOM     17  C3  ASG B   2       9.065  63.542  44.2750  0.00  0.00     0.000 C
ATOM     18  C4  ASG B   2       7.638  63.269  44.7130  0.00  0.00     0.000 C
ATOM     19  C5  ASG B   2       7.650  62.228  45.8290  0.00  0.00     0.000 C
ATOM     20  O5  ASG B   2       8.368  61.054  45.4000  0.00  0.00     0.000 O
ATOM     21   C  ASG B   2       6.279  61.773  46.2110  0.00  0.00     0.000 C
ATOM     22   O  ASG B   2       6.378  60.673  47.0810  0.00  0.00     0.000 O
ATOM     24  HD  ASG B   2       6.289  60.000  47.6190  0.00  0.00     0.000 HD
BRANCH 16 26
ATOM     24   N  ASG B   2      11.074  62.409  43.3320  0.00  0.00     0.000 N
ATOM     26  HD  ASG B   2      10.839  61.680  43.7360  0.00  0.00     0.000 HD
ATOM     26   C  ASG B   2      11.312  62.644  42.0290  0.00  0.00     0.000 C
ATOM     27   C  ASG B   2      12.676  63.139  41.6900  0.00  0.00     0.000 C
ATOM     28   O  ASG B   2      10.454  62.461  41.1740  0.00  0.00     0.000 OA
ENDBRANCH 16 26
BRANCH 18 29
ATOM     29   O  ASG B   2       6.915  62.814  43.5180  0.00  0.00     0.000 O
ATOM     30   O  ASG B   2       4.792  63.879  44.1510  0.00  0.00     0.000 OA
ATOM     31   O  ASG B   2       6.145  64.835  42.3770  0.00  0.00     0.000 OA
ATOM     32   O  ASG B   2       5.011  62.728  42.0320  0.00  0.00     0.000 OA
ATOM     33   S  ASG B   2       5.635  63.635  42.9960  0.00  0.00     0.000 S
ENDBRANCH 18 29
BRANCH 15 34
ATOM     34  O4  ASG B   3      10.347  60.048  44.8570  0.00  0.00     0.000 O
BRANCH 34 38
ATOM     35  C1  GCT B   3      11.923  58.985  48.4290  0.00  0.00     0.000 C
ATOM     36  C2  GCT B   3      12.282  58.050  47.2940  0.00  0.00     0.000 C
ATOM     37  C3  GCT B   3      12.043  58.716  45.9470  0.00  0.00     0.000 C
ATOM     38  C4  GCT B   3      10.565  59.108  45.8330  0.00  0.00     0.000 C
ATOM     39  C5  GCT B   3       9.968  59.522  47.1970  0.00  0.00     0.000 C
ATOM     40  O5  GCT B   3      11.045  60.011  47.9780  0.00  0.00     0.000 O
ATOM     41   O  GCT B   3      13.658  57.735  47.4510  0.00  0.00     0.000 O
ATOM     43  HD  GCT B   3      14.074  57.202  47.9920  0.00  0.00     0.000 HD
ATOM     43   O  GCT B   3      12.465  57.811  44.9050  0.00  0.00     0.000 O
ATOM     45  HD  GCT B   3      12.881  57.277  45.4460  0.00  0.00     0.000 HD
BRANCH 39 45
ATOM     45   C  GCT B   3       9.203  58.487  47.9920  0.00  0.00     0.000 C
ATOM     46   O  GCT B   3       9.114  57.297  47.5520  0.00  0.00     0.000 OA
ATOM     47   O  GCT B   3       8.696  58.843  49.0680  0.00  0.00     0.000 OA
ENDBRANCH 39 45
BRANCH 35 48
ATOM     48  O3  ASG B   4      11.885  58.308  49.5560  0.00  0.00     0.000 O
BRANCH 48 51
ATOM     49  C1  ASG B   4      13.882  58.709  52.6450  0.00  0.00     0.000 C
ATOM     50  C2  ASG B   4      13.346  58.097  51.3390  0.00  0.00     0.000 C
ATOM     51  C3  ASG B   4      12.467  59.090  50.5840  0.00  0.00     0.000 C
ATOM     52  C4  ASG B   4      11.413  59.696  51.4950  0.00  0.00     0.000 C
ATOM     53  C5  ASG B   4      12.120  60.292  52.7090  0.00  0.00     0.000 C
ATOM     54  O5  ASG B   4      12.816  59.244  53.4120  0.00  0.00     0.000 O
BRANCH 50 57
ATOM     55   N  ASG B   4      14.520  57.705  50.5940  0.00  0.00     0.000 N
ATOM     57  HD  ASG B   4      14.775  57.060  51.1120  0.00  0.00     0.000 HD
ATOM     57   O  ASG B   4      14.496  55.580  51.3000  0.00  0.00     0.000 OA
ATOM     58   C  ASG B   4      14.948  56.440  50.5500  0.00  0.00     0.000 C
ATOM     59   C  ASG B   4      16.043  56.160  49.5670  0.00  0.00     0.000 C
ENDBRANCH 50 57
BRANCH 52 60
ATOM     60   O  ASG B   4      10.519  58.549  51.8020  0.00  0.00     0.000 O
ATOM     61   O  ASG B   4       8.599  60.036  52.3840  0.00  0.00     0.000 OA
ATOM     62   O  ASG B   4       8.295  57.675  52.3240  0.00  0.00     0.000 OA
ATOM     63   O  ASG B   4       9.759  58.620  53.9610  0.00  0.00     0.000 OA
ATOM     64   S  ASG B   4       9.160  58.749  52.6300  0.00  0.00     0.000 S
ENDBRANCH 52 60
ATOM     65   O  ASG B   4      11.951  61.799  54.6010  0.00  0.00     0.000 O
ATOM     67  HD  ASG B   4      12.298  61.196  55.1170  0.00  0.00     0.000 HD
ATOM     67   O  ASG B   4      11.951  61.799  54.6010  0.00  0.00     0.000 O
ATOM     69  HD  ASG B   4      12.298  61.196  55.1170  0.00  0.00     0.000 HD
ENDBRANCH 48 51
ENDBRANCH 35 48
ENDBRANCH 34 38
ENDBRANCH 15 34
ENDBRANCH 14 17
ENDBRANCH 1 14
TORSDOF 12
ENDMDL
MODEL 25
REMARK VINA RESULT:      -5.4     25.980     31.847
ROOT
ATOM      1  C1  GAD B   1      29.026  47.454  57.6880  0.00  0.00     0.000 C
ATOM      2  C2  GAD B   1      29.851  46.919  56.5130  0.00  0.00     0.000 C
ATOM      3  C3  GAD B   1      29.734  47.866  55.3130  0.00  0.00     0.000 C
ATOM      4  C4  GAD B   1      28.389  48.588  55.2020  0.00  0.00     0.000 C
ATOM      5  C5  GAD B   1      27.424  48.544  56.1420  0.00  0.00     0.000 C
ATOM      6  O5  GAD B   1      27.670  47.723  57.3000  0.00  0.00     0.000 O
ATOM      7   O  GAD B   1      31.250  46.667  56.9090  0.00  0.00     0.000 O
ATOM      9  HD  GAD B   1      30.892  46.735  57.6950  0.00  0.00     0.000 HD
ATOM      9   O  GAD B   1      29.917  47.164  54.0630  0.00  0.00     0.000 O
ATOM     11  HD  GAD B   1      29.559  47.233  54.8490  0.00  0.00     0.000 HD
ENDROOT
BRANCH 5 11
ATOM     11   C  GAD B   1      26.164  49.322  56.0950  0.00  0.00     0.000 C
ATOM     12   O  GAD B   1      26.111  50.376  56.8010  0.00  0.00     0.000 OA
ATOM     13   O  GAD B   1      25.158  48.881  55.4250  0.00  0.00     0.000 OA
ENDBRANCH 5 11
BRANCH 1 14
ATOM     14  O3  ASG B   2      28.586  46.692  58.7060  0.00  0.00     0.000 O
BRANCH 14 17
ATOM     15  C1  ASG B   2      25.425  46.124  60.6970  0.00  0.00     0.000 C
ATOM     16  C2  ASG B   2      26.849  46.632  60.4280  0.00  0.00     0.000 C
ATOM     17  C3  ASG B   2      27.262  46.236  59.0070  0.00  0.00     0.000 C
ATOM     18  C4  ASG B   2      27.193  44.730  58.8480  0.00  0.00     0.000 C
ATOM     19  C5  ASG B   2      25.799  44.250  59.2430  0.00  0.00     0.000 C
ATOM     20  O5  ASG B   2      25.476  44.715  60.5690  0.00  0.00     0.000 O
ATOM     21   C  ASG B   2      25.688  42.760  59.2760  0.00  0.00     0.000 C
ATOM     22   O  ASG B   2      24.455  42.398  59.8500  0.00  0.00     0.000 O
ATOM     24  HD  ASG B   2      23.742  42.033  60.1770  0.00  0.00     0.000 HD
BRANCH 16 26
ATOM     24   N  ASG B   2      27.076  48.051  60.5680  0.00  0.00     0.000 N
ATOM     26  HD  ASG B   2      26.393  47.656  60.9230  0.00  0.00     0.000 HD
ATOM     26   C  ASG B   2      28.169  48.586  61.1430  0.00  0.00     0.000 C
ATOM     27   C  ASG B   2      28.397  50.037  60.8950  0.00  0.00     0.000 C
ATOM     28   O  ASG B   2      28.930  47.914  61.8290  0.00  0.00     0.000 OA
ENDBRANCH 16 26
BRANCH 18 29
ATOM     29   O  ASG B   2      28.251  44.171  59.7000  0.00  0.00     0.000 O
ATOM     30   O  ASG B   2      28.719  42.267  58.2160  0.00  0.00     0.000 OA
ATOM     31   O  ASG B   2      30.277  44.125  58.3310  0.00  0.00     0.000 OA
ATOM     32   O  ASG B   2      30.039  42.629  60.2140  0.00  0.00     0.000 OA
ATOM     33   S  ASG B   2      29.392  43.242  59.0540  0.00  0.00     0.000 S
ENDBRANCH 18 29
BRANCH 15 34
ATOM     34  O4  ASG B   3      24.947  46.439  61.9730  0.00  0.00     0.000 O
BRANCH 34 38
ATOM     35  C1  GCT B   3      23.907  45.300  65.7130  0.00  0.00     0.000 C
ATOM     36  C2  GCT B   3      25.384  45.584  65.5440  0.00  0.00     0.000 C
ATOM     37  C3  GCT B   3      25.638  46.406  64.2880  0.00  0.00     0.000 C
ATOM     38  C4  GCT B   3      25.127  45.631  63.0670  0.00  0.00     0.000 C
ATOM     39  C5  GCT B   3      23.870  44.794  63.3960  0.00  0.00     0.000 C
ATOM     40  O5  GCT B   3      23.221  45.445  64.4740  0.00  0.00     0.000 O
ATOM     41   O  GCT B   3      25.790  46.308  66.6970  0.00  0.00     0.000 O
ATOM     43  HD  GCT B   3      25.955  46.060  67.5100  0.00  0.00     0.000 HD
ATOM     43   O  GCT B   3      27.047  46.706  64.2120  0.00  0.00     0.000 O
ATOM     45  HD  GCT B   3      27.212  46.458  65.0250  0.00  0.00     0.000 HD
BRANCH 39 45
ATOM     45   C  GCT B   3      24.049  43.329  63.7300  0.00  0.00     0.000 C
ATOM     46   O  GCT B   3      25.214  42.822  63.7240  0.00  0.00     0.000 OA
ATOM     47   O  GCT B   3      23.033  42.673  64.0160  0.00  0.00     0.000 OA
ENDBRANCH 39 45
BRANCH 35 48
ATOM     48  O3  ASG B   4      23.744  44.382  66.6410  0.00  0.00     0.000 O
BRANCH 48 51
ATOM     49  C1  ASG B   4      21.164  46.111  68.6510  0.00  0.00     0.000 C
ATOM     50  C2  ASG B   4      22.428  45.891  67.8030  0.00  0.00     0.000 C
ATOM     51  C3  ASG B   4      22.439  44.498  67.1800  0.00  0.00     0.000 C
ATOM     52  C4  ASG B   4      22.164  43.426  68.2220  0.00  0.00     0.000 C
ATOM     53  C5  ASG B   4      20.860  43.778  68.9320  0.00  0.00     0.000 C
ATOM     54  O5  ASG B   4      21.007  45.054  69.5840  0.00  0.00     0.000 O
BRANCH 50 57
ATOM     55   N  ASG B   4      21.932  47.168  67.3470  0.00  0.00     0.000 N
ATOM     57  HD  ASG B   4      22.376  47.668  67.8970  0.00  0.00     0.000 HD
ATOM     57   O  ASG B   4      23.745  48.318  67.9840  0.00  0.00     0.000 OA
ATOM     58   C  ASG B   4      22.678  48.277  67.3780  0.00  0.00     0.000 C
ATOM     59   C  ASG B   4      22.102  49.467  66.6750  0.00  0.00     0.000 C
ENDBRANCH 50 57
BRANCH 52 60
ATOM     60   O  ASG B   4      23.370  43.467  69.0890  0.00  0.00     0.000 O
ATOM     61   O  ASG B   4      24.243  41.305  68.1980  0.00  0.00     0.000 OA
ATOM     62   O  ASG B   4      25.558  42.576  69.7220  0.00  0.00     0.000 OA
ATOM     63   O  ASG B   4      23.487  41.642  70.4670  0.00  0.00     0.000 OA
ATOM     64   S  ASG B   4      24.264  42.160  69.3370  0.00  0.00     0.000 S
ENDBRANCH 52 60
ATOM     65   O  ASG B   4      19.051  42.980  70.3360  0.00  0.00     0.000 O
ATOM     67  HD  ASG B   4      19.118  43.688  70.8310  0.00  0.00     0.000 HD
ATOM     67   O  ASG B   4      19.051  42.980  70.3360  0.00  0.00     0.000 O
ATOM     69  HD  ASG B   4      19.118  43.688  70.8310  0.00  0.00     0.000 HD
ENDBRANCH 48 51
ENDBRANCH 35 48
ENDBRANCH 34 38
ENDBRANCH 15 34
ENDBRANCH 14 17
ENDBRANCH 1 14
TORSDOF 12
ENDMDL
MODEL 26
REMARK VINA RESULT:      -4.9      9.193     17.026
ROOT
ATOM      1  C1  GAD B   1       9.316  66.148  26.8070  0.00  0.00     0.000 C
ATOM      2  C2  GAD B   1       8.628  65.533  25.5850  0.00  0.00     0.000 C
ATOM      3  C3  GAD B   1       9.018  66.304  24.3180  0.00  0.00     0.000 C
ATOM      4  C4  GAD B   1       9.278  67.797  24.5380  0.00  0.00     0.000 C
ATOM      5  C5  GAD B   1       9.326  68.389  25.7480  0.00  0.00     0.000 C
ATOM      6  O5  GAD B   1       9.068  67.559  26.8970  0.00  0.00     0.000 O
ATOM      7   O  GAD B   1       8.906  64.087  25.4820  0.00  0.00     0.000 O
ATOM      9  HD  GAD B   1       9.156  64.220  26.3010  0.00  0.00     0.000 HD
ATOM      9   O  GAD B   1       7.988  66.221  23.3080  0.00  0.00     0.000 O
ATOM     11  HD  GAD B   1       8.238  66.354  24.1260  0.00  0.00     0.000 HD
ENDROOT
BRANCH 5 11
ATOM     11   C  GAD B   1       9.681  69.808  25.9780  0.00  0.00     0.000 C
ATOM     12   O  GAD B   1      10.915  70.079  26.1070  0.00  0.00     0.000 OA
ATOM     13   O  GAD B   1       8.756  70.691  26.1200  0.00  0.00     0.000 OA
ENDBRANCH 5 11
BRANCH 1 14
ATOM     14  O3  ASG B   2       8.883  65.989  28.0720  0.00  0.00     0.000 O
BRANCH 14 17
ATOM     15  C1  ASG B   2       5.960  66.406  30.4300  0.00  0.00     0.000 C
ATOM     16  C2  ASG B   2       7.406  66.560  29.9380  0.00  0.00     0.000 C
ATOM     17  C3  ASG B   2       7.548  65.870  28.5780  0.00  0.00     0.000 C
ATOM     18  C4  ASG B   2       7.178  64.404  28.6990  0.00  0.00     0.000 C
ATOM     19  C5  ASG B   2       5.784  64.291  29.3090  0.00  0.00     0.000 C
ATOM     20  O5  ASG B   2       5.730  65.015  30.5540  0.00  0.00     0.000 O
ATOM     21   C  ASG B   2       5.401  62.880  29.6200  0.00  0.00     0.000 C
ATOM     22   O  ASG B   2       4.209  62.874  30.3660  0.00  0.00     0.000 O
ATOM     24  HD  ASG B   2       3.489  62.721  30.8220  0.00  0.00     0.000 HD
BRANCH 16 26
ATOM     24   N  ASG B   2       7.881  67.924  29.8960  0.00  0.00     0.000 N
ATOM     26  HD  ASG B   2       7.250  67.671  30.4310  0.00  0.00     0.000 HD
ATOM     26   C  ASG B   2       9.151  68.287  30.1570  0.00  0.00     0.000 C
ATOM     27   C  ASG B   2       9.539  69.663  29.7370  0.00  0.00     0.000 C
ATOM     28   O  ASG B   2       9.938  67.527  30.7080  0.00  0.00     0.000 OA
ENDBRANCH 16 26
BRANCH 18 29
ATOM     29   O  ASG B   2       8.216  63.780  29.5310  0.00  0.00     0.000 O
ATOM     30   O  ASG B   2       8.067  61.588  28.4270  0.00  0.00     0.000 OA
ATOM     31   O  ASG B   2       9.967  63.036  27.9940  0.00  0.00     0.000 OA
ATOM     32   O  ASG B   2       9.712  61.989  30.1580  0.00  0.00     0.000 OA
ATOM     33   S  ASG B   2       9.039  62.517  28.9710  0.00  0.00     0.000 S
ENDBRANCH 18 29
BRANCH 15 34
ATOM     34  O4  ASG B   3       5.722  67.010  31.6700  0.00  0.00     0.000 O
BRANCH 34 38
ATOM     35  C1  GCT B   3       5.474  66.932  35.7070  0.00  0.00     0.000 C
ATOM     36  C2  GCT B   3       6.876  66.740  35.1720  0.00  0.00     0.000 C
ATOM     37  C3  GCT B   3       6.974  67.206  33.7260  0.00  0.00     0.000 C
ATOM     38  C4  GCT B   3       5.989  66.401  32.8700  0.00  0.00     0.000 C
ATOM     39  C5  GCT B   3       4.704  66.039  33.6480  0.00  0.00     0.000 C
ATOM     40  O5  GCT B   3       4.537  67.037  34.6400  0.00  0.00     0.000 O
ATOM     41   O  GCT B   3       7.733  67.515  35.9980  0.00  0.00     0.000 O
ATOM     43  HD  GCT B   3       8.044  67.385  36.7960  0.00  0.00     0.000 HD
ATOM     43   O  GCT B   3       8.342  67.066  33.2890  0.00  0.00     0.000 O
ATOM     45  HD  GCT B   3       8.653  66.936  34.0870  0.00  0.00     0.000 HD
BRANCH 39 45
ATOM     45   C  GCT B   3       4.615  64.673  34.2940  0.00  0.00     0.000 C
ATOM     46   O  GCT B   3       5.585  63.860  34.1780  0.00  0.00     0.000 OA
ATOM     47   O  GCT B   3       3.585  64.403  34.9330  0.00  0.00     0.000 OA
ENDBRANCH 39 45
BRANCH 35 48
ATOM     48  O3  ASG B   4       5.351  66.288  36.8470  0.00  0.00     0.000 O
BRANCH 48 51
ATOM     49  C1  ASG B   4       4.098  69.098  38.9030  0.00  0.00     0.000 C
ATOM     50  C2  ASG B   4       4.928  68.325  37.8640  0.00  0.00     0.000 C
ATOM     51  C3  ASG B   4       4.360  66.927  37.6330  0.00  0.00     0.000 C
ATOM     52  C4  ASG B   4       4.132  66.201  38.9490  0.00  0.00     0.000 C
ATOM     53  C5  ASG B   4       3.259  67.087  39.8350  0.00  0.00     0.000 C
ATOM     54  O5  ASG B   4       3.947  68.328  40.0840  0.00  0.00     0.000 O
BRANCH 50 57
ATOM     55   N  ASG B   4       4.688  69.622  37.2750  0.00  0.00     0.000 N
ATOM     57  HD  ASG B   4       5.414  70.008  37.5490  0.00  0.00     0.000 HD
ATOM     57   O  ASG B   4       6.856  70.158  37.1010  0.00  0.00     0.000 OA
ATOM     58   C  ASG B   4       5.682  70.403  36.8390  0.00  0.00     0.000 C
ATOM     59   C  ASG B   4       5.262  71.613  36.0630  0.00  0.00     0.000 C
ENDBRANCH 50 57
BRANCH 52 60
ATOM     60   O  ASG B   4       5.507  65.976  39.4640  0.00  0.00     0.000 O
ATOM     61   O  ASG B   4       4.819  63.983  40.8000  0.00  0.00     0.000 OA
ATOM     62   O  ASG B   4       7.118  64.588  40.6730  0.00  0.00     0.000 OA
ATOM     63   O  ASG B   4       5.582  66.069  41.7520  0.00  0.00     0.000 OA
ATOM     64   S  ASG B   4       5.778  65.034  40.7320  0.00  0.00     0.000 S
ENDBRANCH 52 60
ATOM     65   O  ASG B   4       1.822  67.195  41.7840  0.00  0.00     0.000 O
ATOM     67  HD  ASG B   4       2.231  67.910  42.0500  0.00  0.00     0.000 HD
ATOM     67   O  ASG B   4       1.822  67.195  41.7840  0.00  0.00     0.000 O
ATOM     69  HD  ASG B   4       2.231  67.910  42.0500  0.00  0.00     0.000 HD
ENDBRANCH 48 51
ENDBRANCH 35 48
ENDBRANCH 34 38
ENDBRANCH 15 34
ENDBRANCH 14 17
ENDBRANCH 1 14
TORSDOF 12
ENDMDL
MODEL 27
REMARK VINA RESULT:      -4.5      3.118     11.542
ROOT
ATOM      1  C1  GAD B   1       9.410  64.480  42.4350  0.00  0.00     0.000 C
ATOM      2  C2  GAD B   1      10.907  64.751  42.6150  0.00  0.00     0.000 C
ATOM      3  C3  GAD B   1      11.425  65.630  41.4700  0.00  0.00     0.000 C
ATOM      4  C4  GAD B   1      10.712  65.414  40.1320  0.00  0.00     0.000 C
ATOM      5  C5  GAD B   1       9.617  64.646  39.9710  0.00  0.00     0.000 C
ATOM      6  O5  GAD B   1       9.123  63.951  41.1320  0.00  0.00     0.000 O
ATOM      7   O  GAD B   1      11.195  65.318  43.9460  0.00  0.00     0.000 O
ATOM      9  HD  GAD B   1      10.393  65.025  44.0890  0.00  0.00     0.000 HD
ATOM      9   O  GAD B   1      12.829  65.400  41.2170  0.00  0.00     0.000 O
ATOM     11  HD  GAD B   1      12.027  65.107  41.3600  0.00  0.00     0.000 HD
ENDROOT
BRANCH 5 11
ATOM     11   C  GAD B   1       8.857  64.515  38.7050  0.00  0.00     0.000 C
ATOM     12   O  GAD B   1       7.621  64.803  38.7440  0.00  0.00     0.000 OA
ATOM     13   O  GAD B   1       9.431  64.050  37.6520  0.00  0.00     0.000 OA
ENDBRANCH 5 11
BRANCH 1 14
ATOM     14  O3  ASG B   2       8.760  63.446  43.0010  0.00  0.00     0.000 O
BRANCH 14 17
ATOM     15  C1  ASG B   2       9.135  61.146  45.9750  0.00  0.00     0.000 C
ATOM     16  C2  ASG B   2       9.178  61.555  44.4960  0.00  0.00     0.000 C
ATOM     17  C3  ASG B   2       8.734  63.015  44.3660  0.00  0.00     0.000 C
ATOM     18  C4  ASG B   2       7.335  63.183  44.9270  0.00  0.00     0.000 C
ATOM     19  C5  ASG B   2       7.304  62.650  46.3570  0.00  0.00     0.000 C
ATOM     20  O5  ASG B   2       7.789  61.294  46.3880  0.00  0.00     0.000 O
ATOM     21   C  ASG B   2       5.925  62.622  46.9340  0.00  0.00     0.000 C
ATOM     22   O  ASG B   2       5.946  61.928  48.1570  0.00  0.00     0.000 O
ATOM     24  HD  ASG B   2       5.812  61.533  48.9160  0.00  0.00     0.000 HD
BRANCH 16 26
ATOM     24   N  ASG B   2      10.449  61.366  43.8370  0.00  0.00     0.000 N
ATOM     26  HD  ASG B   2      10.226  60.921  44.5450  0.00  0.00     0.000 HD
ATOM     26   C  ASG B   2      10.582  60.959  42.5600  0.00  0.00     0.000 C
ATOM     27   C  ASG B   2      11.928  61.148  41.9490  0.00  0.00     0.000 C
ATOM     28   O  ASG B   2       9.648  60.464  41.9410  0.00  0.00     0.000 OA
ENDBRANCH 16 26
BRANCH 18 29
ATOM     29   O  ASG B   2       6.434  62.451  44.0270  0.00  0.00     0.000 O
ATOM     30   O  ASG B   2       4.615  64.097  44.1790  0.00  0.00     0.000 OA
ATOM     31   O  ASG B   2       5.959  63.959  42.1620  0.00  0.00     0.000 OA
ATOM     32   O  ASG B   2       4.423  62.177  42.7160  0.00  0.00     0.000 OA
ATOM     33   S  ASG B   2       5.290  63.241  43.2210  0.00  0.00     0.000 S
ENDBRANCH 18 29
BRANCH 15 34
ATOM     34  O4  ASG B   3       9.530  59.824  46.2050  0.00  0.00     0.000 O
BRANCH 34 38
ATOM     35  C1  GCT B   3      11.733  59.891  49.5970  0.00  0.00     0.000 C
ATOM     36  C2  GCT B   3      11.631  58.524  48.9560  0.00  0.00     0.000 C
ATOM     37  C3  GCT B   3      11.185  58.638  47.5050  0.00  0.00     0.000 C
ATOM     38  C4  GCT B   3       9.816  59.327  47.4510  0.00  0.00     0.000 C
ATOM     39  C5  GCT B   3       9.658  60.390  48.5620  0.00  0.00     0.000 C
ATOM     40  O5  GCT B   3      10.963  60.845  48.8750  0.00  0.00     0.000 O
ATOM     41   O  GCT B   3      12.927  57.946  49.0290  0.00  0.00     0.000 O
ATOM     43  HD  GCT B   3      13.364  57.582  49.6820  0.00  0.00     0.000 HD
ATOM     43   O  GCT B   3      11.171  57.317  46.9230  0.00  0.00     0.000 O
ATOM     45  HD  GCT B   3      11.609  56.953  47.5760  0.00  0.00     0.000 HD
BRANCH 39 45
ATOM     45   C  GCT B   3       8.946  59.997  49.8380  0.00  0.00     0.000 C
ATOM     46   O  GCT B   3       8.551  58.799  49.9920  0.00  0.00     0.000 OA
ATOM     47   O  GCT B   3       8.786  60.873  50.7040  0.00  0.00     0.000 OA
ENDBRANCH 39 45
BRANCH 35 48
ATOM     48  O3  ASG B   4      11.859  59.752  50.8990  0.00  0.00     0.000 O
BRANCH 48 51
ATOM     49  C1  ASG B   4      14.824  60.233  53.0590  0.00  0.00     0.000 C
ATOM     50  C2  ASG B   4      13.690  59.526  52.2980  0.00  0.00     0.000 C
ATOM     51  C3  ASG B   4      12.994  60.482  51.3330  0.00  0.00     0.000 C
ATOM     52  C4  ASG B   4      12.598  61.774  52.0290  0.00  0.00     0.000 C
ATOM     53  C5  ASG B   4      13.844  62.358  52.6890  0.00  0.00     0.000 C
ATOM     54  O5  ASG B   4      14.344  61.422  53.6640  0.00  0.00     0.000 O
BRANCH 50 57
ATOM     55   N  ASG B   4      14.573  58.491  51.8120  0.00  0.00     0.000 N
ATOM     57  HD  ASG B   4      14.615  58.024  52.5400  0.00  0.00     0.000 HD
ATOM     57   O  ASG B   4      13.829  56.923  53.2260  0.00  0.00     0.000 OA
ATOM     58   C  ASG B   4      14.501  57.229  52.2460  0.00  0.00     0.000 C
ATOM     59   C  ASG B   4      15.333  56.237  51.4950  0.00  0.00     0.000 C
ENDBRANCH 50 57
BRANCH 52 60
ATOM     60   O  ASG B   4      11.538  61.348  52.9780  0.00  0.00     0.000 O
ATOM     61   O  ASG B   4      10.136  63.361  52.5170  0.00  0.00     0.000 OA
ATOM     62   O  ASG B   4       9.303  61.634  53.9290  0.00  0.00     0.000 OA
ATOM     63   O  ASG B   4      11.207  62.897  54.6320  0.00  0.00     0.000 OA
ATOM     64   S  ASG B   4      10.427  62.377  53.5050  0.00  0.00     0.000 S
ENDBRANCH 52 60
ATOM     65   O  ASG B   4      14.873  64.323  53.6700  0.00  0.00     0.000 O
ATOM     67  HD  ASG B   4      15.153  63.848  54.3370  0.00  0.00     0.000 HD
ATOM     67   O  ASG B   4      14.873  64.323  53.6700  0.00  0.00     0.000 O
ATOM     69  HD  ASG B   4      15.153  63.848  54.3370  0.00  0.00     0.000 HD
ENDBRANCH 48 51
ENDBRANCH 35 48
ENDBRANCH 34 38
ENDBRANCH 15 34
ENDBRANCH 14 17
ENDBRANCH 1 14
TORSDOF 12
ENDMDL
MODEL 28
REMARK VINA RESULT:      -4.5     27.894     31.755
ROOT
ATOM      1  C1  GAD B   1      27.671  44.757  59.1010  0.00  0.00     0.000 C
ATOM      2  C2  GAD B   1      26.715  44.881  57.9110  0.00  0.00     0.000 C
ATOM      3  C3  GAD B   1      27.511  45.087  56.6160  0.00  0.00     0.000 C
ATOM      4  C4  GAD B   1      28.821  45.858  56.7920  0.00  0.00     0.000 C
ATOM      5  C5  GAD B   1      29.344  46.205  57.9850  0.00  0.00     0.000 C
ATOM      6  O5  GAD B   1      28.586  45.861  59.1610  0.00  0.00     0.000 O
ATOM      7   O  GAD B   1      25.793  43.732  57.8390  0.00  0.00     0.000 O
ATOM      9  HD  GAD B   1      26.084  43.627  58.6480  0.00  0.00     0.000 HD
ATOM      9   O  GAD B   1      26.745  45.818  55.6320  0.00  0.00     0.000 O
ATOM     11  HD  GAD B   1      27.036  45.713  56.4410  0.00  0.00     0.000 HD
ENDROOT
BRANCH 5 11
ATOM     11   C  GAD B   1      30.662  46.856  58.1710  0.00  0.00     0.000 C
ATOM     12   O  GAD B   1      30.742  47.744  59.0770  0.00  0.00     0.000 OA
ATOM     13   O  GAD B   1      31.638  46.575  57.3830  0.00  0.00     0.000 OA
ENDBRANCH 5 11
BRANCH 1 14
ATOM     14  O3  ASG B   2      27.312  44.982  60.3790  0.00  0.00     0.000 O
BRANCH 14 17
ATOM     15  C1  ASG B   2      28.165  43.615  63.7980  0.00  0.00     0.000 C
ATOM     16  C2  ASG B   2      27.331  43.799  62.5220  0.00  0.00     0.000 C
ATOM     17  C3  ASG B   2      28.051  44.778  61.5890  0.00  0.00     0.000 C
ATOM     18  C4  ASG B   2      28.255  46.107  62.2910  0.00  0.00     0.000 C
ATOM     19  C5  ASG B   2      28.977  45.867  63.6140  0.00  0.00     0.000 C
ATOM     20  O5  ASG B   2      28.258  44.894  64.3980  0.00  0.00     0.000 O
ATOM     21   C  ASG B   2      29.075  47.101  64.4530  0.00  0.00     0.000 C
ATOM     22   O  ASG B   2      29.553  46.758  65.7300  0.00  0.00     0.000 O
ATOM     24  HD  ASG B   2      29.838  46.696  66.5460  0.00  0.00     0.000 HD
BRANCH 16 26
ATOM     24   N  ASG B   2      26.044  43.435  61.9760  0.00  0.00     0.000 N
ATOM     26  HD  ASG B   2      26.423  44.193  61.8000  0.00  0.00     0.000 HD
ATOM     26   C  ASG B   2      25.836  42.362  61.1900  0.00  0.00     0.000 C
ATOM     27   C  ASG B   2      24.416  41.949  61.0060  0.00  0.00     0.000 C
ATOM     28   O  ASG B   2      26.764  41.763  60.6590  0.00  0.00     0.000 OA
ENDBRANCH 16 26
BRANCH 18 29
ATOM     29   O  ASG B   2      26.920  46.695  62.4690  0.00  0.00     0.000 O
ATOM     30   O  ASG B   2      27.686  49.017  62.2120  0.00  0.00     0.000 OA
ATOM     31   O  ASG B   2      26.446  47.944  60.4210  0.00  0.00     0.000 OA
ATOM     32   O  ASG B   2      25.333  48.516  62.4900  0.00  0.00     0.000 OA
ATOM     33   S  ASG B   2      26.590  48.138  61.8450  0.00  0.00     0.000 S
ENDBRANCH 18 29
BRANCH 15 34
ATOM     34  O4  ASG B   3      27.594  42.730  64.7190  0.00  0.00     0.000 O
BRANCH 34 38
ATOM     35  C1  GCT B   3      24.991  45.457  66.1860  0.00  0.00     0.000 C
ATOM     36  C2  GCT B   3      25.973  44.929  67.2100  0.00  0.00     0.000 C
ATOM     37  C3  GCT B   3      27.164  44.271  66.5290  0.00  0.00     0.000 C
ATOM     38  C4  GCT B   3      26.669  43.111  65.6570  0.00  0.00     0.000 C
ATOM     39  C5  GCT B   3      25.283  43.403  65.0360  0.00  0.00     0.000 C
ATOM     40  O5  GCT B   3      25.176  44.812  64.9310  0.00  0.00     0.000 O
ATOM     41   O  GCT B   3      26.399  46.048  67.9740  0.00  0.00     0.000 O
ATOM     43  HD  GCT B   3      26.016  46.499  68.6070  0.00  0.00     0.000 HD
ATOM     43   O  GCT B   3      28.099  43.849  67.5450  0.00  0.00     0.000 O
ATOM     45  HD  GCT B   3      27.716  44.300  68.1780  0.00  0.00     0.000 HD
BRANCH 39 45
ATOM     45   C  GCT B   3      24.055  42.858  65.7310  0.00  0.00     0.000 C
ATOM     46   O  GCT B   3      22.902  43.109  65.2560  0.00  0.00     0.000 OA
ATOM     47   O  GCT B   3      24.225  42.164  66.7470  0.00  0.00     0.000 OA
ENDBRANCH 39 45
BRANCH 35 48
ATOM     48  O3  ASG B   4      23.865  45.777  66.7880  0.00  0.00     0.000 O
BRANCH 48 51
ATOM     49  C1  ASG B   4      22.926  49.317  66.2650  0.00  0.00     0.000 C
ATOM     50  C2  ASG B   4      23.699  48.086  66.7660  0.00  0.00     0.000 C
ATOM     51  C3  ASG B   4      23.233  46.816  66.0610  0.00  0.00     0.000 C
ATOM     52  C4  ASG B   4      21.719  46.688  66.1000  0.00  0.00     0.000 C
ATOM     53  C5  ASG B   4      21.120  47.971  65.5290  0.00  0.00     0.000 C
ATOM     54  O5  ASG B   4      21.529  49.086  66.3450  0.00  0.00     0.000 O
BRANCH 50 57
ATOM     55   N  ASG B   4      24.846  48.908  66.4550  0.00  0.00     0.000 N
ATOM     57  HD  ASG B   4      24.885  49.339  67.2050  0.00  0.00     0.000 HD
ATOM     57   O  ASG B   4      25.489  49.158  68.5850  0.00  0.00     0.000 OA
ATOM     58   C  ASG B   4      25.719  49.298  67.3880  0.00  0.00     0.000 C
ATOM     59   C  ASG B   4      26.962  49.959  66.8770  0.00  0.00     0.000 C
ENDBRANCH 50 57
BRANCH 52 60
ATOM     60   O  ASG B   4      21.427  46.457  67.5380  0.00  0.00     0.000 O
ATOM     61   O  ASG B   4      20.514  44.172  67.1170  0.00  0.00     0.000 OA
ATOM     62   O  ASG B   4      20.758  44.958  69.3510  0.00  0.00     0.000 OA
ATOM     63   O  ASG B   4      19.203  46.045  67.8960  0.00  0.00     0.000 OA
ATOM     64   S  ASG B   4      20.447  45.279  68.0110  0.00  0.00     0.000 S
ENDBRANCH 52 60
ATOM     65   O  ASG B   4      19.147  49.038  64.6070  0.00  0.00     0.000 O
ATOM     67  HD  ASG B   4      19.276  49.725  65.1190  0.00  0.00     0.000 HD
ATOM     67   O  ASG B   4      19.147  49.038  64.6070  0.00  0.00     0.000 O
ATOM     69  HD  ASG B   4      19.276  49.725  65.1190  0.00  0.00     0.000 HD
ENDBRANCH 48 51
ENDBRANCH 35 48
ENDBRANCH 34 38
ENDBRANCH 15 34
ENDBRANCH 14 17
ENDBRANCH 1 14
TORSDOF 12
ENDMDL
MODEL 29
REMARK VINA RESULT:      -4.4      6.669     10.410
ROOT
ATOM      1  C1  GAD B   1       7.099  68.970  44.5480  0.00  0.00     0.000 C
ATOM      2  C2  GAD B   1       7.142  68.312  45.9310  0.00  0.00     0.000 C
ATOM      3  C3  GAD B   1       8.507  68.554  46.5870  0.00  0.00     0.000 C
ATOM      4  C4  GAD B   1       9.678  68.642  45.6050  0.00  0.00     0.000 C
ATOM      5  C5  GAD B   1       9.543  68.669  44.2640  0.00  0.00     0.000 C
ATOM      6  O5  GAD B   1       8.208  68.560  43.7340  0.00  0.00     0.000 O
ATOM      7   O  GAD B   1       6.015  68.756  46.7730  0.00  0.00     0.000 O
ATOM      9  HD  GAD B   1       5.726  69.022  46.0010  0.00  0.00     0.000 HD
ATOM      9   O  GAD B   1       8.843  67.501  47.5180  0.00  0.00     0.000 O
ATOM     11  HD  GAD B   1       8.554  67.767  46.7460  0.00  0.00     0.000 HD
ENDROOT
BRANCH 5 11
ATOM     11   C  GAD B   1      10.659  68.861  43.3080  0.00  0.00     0.000 C
ATOM     12   O  GAD B   1      11.239  69.991  43.3200  0.00  0.00     0.000 OA
ATOM     13   O  GAD B   1      10.950  67.938  42.4610  0.00  0.00     0.000 OA
ENDBRANCH 5 11
BRANCH 1 14
ATOM     14  O3  ASG B   2       6.246  68.612  43.5710  0.00  0.00     0.000 O
BRANCH 14 17
ATOM     15  C1  ASG B   2       6.093  66.650  40.3450  0.00  0.00     0.000 C
ATOM     16  C2  ASG B   2       6.047  67.897  41.2390  0.00  0.00     0.000 C
ATOM     17  C3  ASG B   2       6.276  67.480  42.6950  0.00  0.00     0.000 C
ATOM     18  C4  ASG B   2       5.220  66.477  43.1190  0.00  0.00     0.000 C
ATOM     19  C5  ASG B   2       5.213  65.313  42.1340  0.00  0.00     0.000 C
ATOM     20  O5  ASG B   2       5.048  65.805  40.7890  0.00  0.00     0.000 O
ATOM     21   C  ASG B   2       4.091  64.355  42.3770  0.00  0.00     0.000 C
ATOM     22   O  ASG B   2       4.022  63.438  41.3130  0.00  0.00     0.000 O
ATOM     24  HD  ASG B   2       3.865  62.813  40.7340  0.00  0.00     0.000 HD
BRANCH 16 26
ATOM     24   N  ASG B   2       6.940  68.954  40.8230  0.00  0.00     0.000 N
ATOM     26  HD  ASG B   2       6.617  68.375  40.2660  0.00  0.00     0.000 HD
ATOM     26   C  ASG B   2       6.673  70.265  40.9670  0.00  0.00     0.000 C
ATOM     27   C  ASG B   2       7.830  71.191  40.8050  0.00  0.00     0.000 C
ATOM     28   O  ASG B   2       5.545  70.670  41.2180  0.00  0.00     0.000 OA
ENDBRANCH 16 26
BRANCH 18 29
ATOM     29   O  ASG B   2       3.944  67.205  43.1500  0.00  0.00     0.000 O
ATOM     30   O  ASG B   2       3.014  65.902  45.0160  0.00  0.00     0.000 OA
ATOM     31   O  ASG B   2       3.768  68.179  45.3860  0.00  0.00     0.000 OA
ATOM     32   O  ASG B   2       1.781  67.761  44.0740  0.00  0.00     0.000 OA
ATOM     33   S  ASG B   2       3.085  67.259  44.5080  0.00  0.00     0.000 S
ENDBRANCH 18 29
BRANCH 15 34
ATOM     34  O4  ASG B   3       5.899  66.925  38.9870  0.00  0.00     0.000 O
BRANCH 34 38
ATOM     35  C1  GCT B   3       6.513  64.905  35.5370  0.00  0.00     0.000 C
ATOM     36  C2  GCT B   3       7.441  64.501  36.6610  0.00  0.00     0.000 C
ATOM     37  C3  GCT B   3       6.893  64.954  38.0060  0.00  0.00     0.000 C
ATOM     38  C4  GCT B   3       6.740  66.480  37.9990  0.00  0.00     0.000 C
ATOM     39  C5  GCT B   3       6.350  67.017  36.6040  0.00  0.00     0.000 C
ATOM     40  O5  GCT B   3       5.660  65.969  35.9450  0.00  0.00     0.000 O
ATOM     41   O  GCT B   3       7.532  63.084  36.6180  0.00  0.00     0.000 O
ATOM     43  HD  GCT B   3       7.966  62.545  36.0970  0.00  0.00     0.000 HD
ATOM     43   O  GCT B   3       7.778  64.484  39.0450  0.00  0.00     0.000 O
ATOM     45  HD  GCT B   3       8.211  63.945  38.5240  0.00  0.00     0.000 HD
BRANCH 39 45
ATOM     45   C  GCT B   3       7.446  67.540  35.7010  0.00  0.00     0.000 C
ATOM     46   O  GCT B   3       8.661  67.407  36.0500  0.00  0.00     0.000 OA
ATOM     47   O  GCT B   3       7.109  68.073  34.6310  0.00  0.00     0.000 OA
ENDBRANCH 39 45
BRANCH 35 48
ATOM     48  O3  ASG B   4       7.127  64.740  34.3850  0.00  0.00     0.000 O
BRANCH 48 51
ATOM     49  C1  ASG B   4       4.476  63.956  31.9250  0.00  0.00     0.000 C
ATOM     50  C2  ASG B   4       5.355  63.858  33.1830  0.00  0.00     0.000 C
ATOM     51  C3  ASG B   4       6.241  65.091  33.3360  0.00  0.00     0.000 C
ATOM     52  C4  ASG B   4       6.988  65.395  32.0470  0.00  0.00     0.000 C
ATOM     53  C5  ASG B   4       5.965  65.501  30.9190  0.00  0.00     0.000 C
ATOM     54  O5  ASG B   4       5.275  64.243  30.7880  0.00  0.00     0.000 O
BRANCH 50 57
ATOM     55   N  ASG B   4       6.024  62.586  33.0390  0.00  0.00     0.000 N
ATOM     57  HD  ASG B   4       5.764  62.233  33.7850  0.00  0.00     0.000 HD
ATOM     57   O  ASG B   4       4.573  61.458  34.3170  0.00  0.00     0.000 OA
ATOM     58   C  ASG B   4       5.519  61.453  33.5360  0.00  0.00     0.000 C
ATOM     59   C  ASG B   4       6.216  60.195  33.1190  0.00  0.00     0.000 C
ENDBRANCH 50 57
BRANCH 52 60
ATOM     60   O  ASG B   4       7.934  64.257  31.9180  0.00  0.00     0.000 O
ATOM     61   O  ASG B   4       9.719  65.687  30.9180  0.00  0.00     0.000 OA
ATOM     62   O  ASG B   4      10.176  63.408  31.4320  0.00  0.00     0.000 OA
ATOM     63   O  ASG B   4       8.564  63.921  29.7420  0.00  0.00     0.000 OA
ATOM     64   S  ASG B   4       9.228  64.351  30.9760  0.00  0.00     0.000 S
ENDBRANCH 52 60
ATOM     65   O  ASG B   4       5.527  66.270  28.6620  0.00  0.00     0.000 O
ATOM     67  HD  ASG B   4       5.157  65.510  28.4710  0.00  0.00     0.000 HD
ATOM     67   O  ASG B   4       5.527  66.270  28.6620  0.00  0.00     0.000 O
ATOM     69  HD  ASG B   4       5.157  65.510  28.4710  0.00  0.00     0.000 HD
ENDBRANCH 48 51
ENDBRANCH 35 48
ENDBRANCH 34 38
ENDBRANCH 15 34
ENDBRANCH 14 17
ENDBRANCH 1 14
TORSDOF 12
ENDMDL
MODEL 30
REMARK VINA RESULT:      -4.4     12.554     18.466
ROOT
ATOM      1  C1  GAD B   1      19.556  56.901  39.4780  0.00  0.00     0.000 C
ATOM      2  C2  GAD B   1      18.106  57.127  39.0380  0.00  0.00     0.000 C
ATOM      3  C3  GAD B   1      17.974  58.485  38.3370  0.00  0.00     0.000 C
ATOM      4  C4  GAD B   1      18.926  59.564  38.8600  0.00  0.00     0.000 C
ATOM      5  C5  GAD B   1      19.916  59.338  39.7460  0.00  0.00     0.000 C
ATOM      6  O5  GAD B   1      20.046  57.999  40.2610  0.00  0.00     0.000 O
ATOM      7   O  GAD B   1      17.614  56.007  38.2120  0.00  0.00     0.000 O
ATOM      9  HD  GAD B   1      18.318  55.634  38.5490  0.00  0.00     0.000 HD
ATOM      9   O  GAD B   1      16.641  59.026  38.4750  0.00  0.00     0.000 O
ATOM     11  HD  GAD B   1      17.346  58.652  38.8120  0.00  0.00     0.000 HD
ENDROOT
BRANCH 5 11
ATOM     11   C  GAD B   1      20.909  60.350  40.1780  0.00  0.00     0.000 C
ATOM     12   O  GAD B   1      20.454  61.427  40.6740  0.00  0.00     0.000 OA
ATOM     13   O  GAD B   1      22.163  60.154  39.9720  0.00  0.00     0.000 OA
ENDBRANCH 5 11
BRANCH 1 14
ATOM     14  O3  ASG B   2      19.921  56.042  40.4480  0.00  0.00     0.000 O
BRANCH 14 17
ATOM     15  C1  ASG B   2      18.559  53.092  42.3780  0.00  0.00     0.000 C
ATOM     16  C2  ASG B   2      19.025  54.539  42.1580  0.00  0.00     0.000 C
ATOM     17  C3  ASG B   2      19.479  54.704  40.7050  0.00  0.00     0.000 C
ATOM     18  C4  ASG B   2      20.599  53.729  40.3970  0.00  0.00     0.000 C
ATOM     19  C5  ASG B   2      20.140  52.317  40.7460  0.00  0.00     0.000 C
ATOM     20  O5  ASG B   2      19.681  52.270  42.1110  0.00  0.00     0.000 O
ATOM     21   C  ASG B   2      21.237  51.307  40.6310  0.00  0.00     0.000 C
ATOM     22   O  ASG B   2      20.800  50.082  41.1680  0.00  0.00     0.000 O
ATOM     24  HD  ASG B   2      20.668  49.278  41.4590  0.00  0.00     0.000 HD
BRANCH 16 26
ATOM     24   N  ASG B   2      19.305  55.798  42.8090  0.00  0.00     0.000 N
ATOM     26  HD  ASG B   2      19.682  55.569  42.0640  0.00  0.00     0.000 HD
ATOM     26   C  ASG B   2      18.375  56.738  43.0610  0.00  0.00     0.000 C
ATOM     27   C  ASG B   2      18.765  57.802  44.0290  0.00  0.00     0.000 C
ATOM     28   O  ASG B   2      17.275  56.716  42.5240  0.00  0.00     0.000 OA
ENDBRANCH 16 26
BRANCH 18 29
ATOM     29   O  ASG B   2      21.758  54.163  41.1880  0.00  0.00     0.000 O
ATOM     30   O  ASG B   2      23.415  53.503  39.4960  0.00  0.00     0.000 OA
ATOM     31   O  ASG B   2      22.909  55.851  39.8440  0.00  0.00     0.000 OA
ATOM     32   O  ASG B   2      24.108  54.609  41.5360  0.00  0.00     0.000 OA
ATOM     33   S  ASG B   2      23.130  54.559  40.4490  0.00  0.00     0.000 S
ENDBRANCH 18 29
BRANCH 15 34
ATOM     34  O4  ASG B   3      18.117  52.836  43.6800  0.00  0.00     0.000 O
BRANCH 34 38
ATOM     35  C1  GCT B   3      18.699  53.059  47.6770  0.00  0.00     0.000 C
ATOM     36  C2  GCT B   3      18.029  54.279  47.0830  0.00  0.00     0.000 C
ATOM     37  C3  GCT B   3      17.453  53.966  45.7090  0.00  0.00     0.000 C
ATOM     38  C4  GCT B   3      18.585  53.507  44.7810  0.00  0.00     0.000 C
ATOM     39  C5  GCT B   3      19.671  52.712  45.5410  0.00  0.00     0.000 C
ATOM     40  O5  GCT B   3      19.032  52.121  46.6590  0.00  0.00     0.000 O
ATOM     41   O  GCT B   3      16.990  54.645  47.9800  0.00  0.00     0.000 O
ATOM     43  HD  GCT B   3      17.000  55.052  48.7450  0.00  0.00     0.000 HD
ATOM     43   O  GCT B   3      16.768  55.138  45.2200  0.00  0.00     0.000 O
ATOM     45  HD  GCT B   3      16.777  55.544  45.9840  0.00  0.00     0.000 HD
BRANCH 39 45
ATOM     45   C  GCT B   3      20.909  53.447  46.0040  0.00  0.00     0.000 C
ATOM     46   O  GCT B   3      20.994  54.704  45.8310  0.00  0.00     0.000 OA
ATOM     47   O  GCT B   3      21.803  52.784  46.5550  0.00  0.00     0.000 OA
ENDBRANCH 39 45
BRANCH 35 48
ATOM     48  O3  ASG B   4      19.407  53.419  48.7260  0.00  0.00     0.000 O
BRANCH 48 51
ATOM     49  C1  ASG B   4      18.776  53.191  52.3650  0.00  0.00     0.000 C
ATOM     50  C2  ASG B   4      19.062  53.803  50.9830  0.00  0.00     0.000 C
ATOM     51  C3  ASG B   4      18.893  52.768  49.8750  0.00  0.00     0.000 C
ATOM     52  C4  ASG B   4      19.661  51.494  50.1890  0.00  0.00     0.000 C
ATOM     53  C5  ASG B   4      19.224  51.005  51.5670  0.00  0.00     0.000 C
ATOM     54  O5  ASG B   4      19.542  52.012  52.5480  0.00  0.00     0.000 O
BRANCH 50 57
ATOM     55   N  ASG B   4      18.135  54.908  50.8850  0.00  0.00     0.000 N
ATOM     57  HD  ASG B   4      18.501  55.418  51.4820  0.00  0.00     0.000 HD
ATOM     57   O  ASG B   4      19.606  56.454  51.5640  0.00  0.00     0.000 OA
ATOM     58   C  ASG B   4      18.511  56.174  51.0850  0.00  0.00     0.000 C
ATOM     59   C  ASG B   4      17.492  57.216  50.7370  0.00  0.00     0.000 C
ENDBRANCH 50 57
BRANCH 52 60
ATOM     60   O  ASG B   4      21.083  51.917  50.1060  0.00  0.00     0.000 O
ATOM     61   O  ASG B   4      21.722  49.940  48.7210  0.00  0.00     0.000 OA
ATOM     62   O  ASG B   4      23.323  51.647  49.1610  0.00  0.00     0.000 OA
ATOM     63   O  ASG B   4      22.490  50.334  50.9780  0.00  0.00     0.000 OA
ATOM     64   S  ASG B   4      22.230  50.895  49.6480  0.00  0.00     0.000 S
ENDBRANCH 52 60
ATOM     65   O  ASG B   4      19.166  49.144  53.1210  0.00  0.00     0.000 O
ATOM     67  HD  ASG B   4      19.428  49.665  53.7600  0.00  0.00     0.000 HD
ATOM     67   O  ASG B   4      19.166  49.144  53.1210  0.00  0.00     0.000 O
ATOM     69  HD  ASG B   4      19.428  49.665  53.7600  0.00  0.00     0.000 HD
ENDBRANCH 48 51
ENDBRANCH 35 48
ENDBRANCH 34 38
ENDBRANCH 15 34
ENDBRANCH 14 17
ENDBRANCH 1 14
TORSDOF 12
ENDMDL
MODEL 31
REMARK VINA RESULT:      -4.0     14.569     18.901
ROOT
ATOM      1  C1  GAD B   1      20.336  57.785  42.0330  0.00  0.00     0.000 C
ATOM      2  C2  GAD B   1      21.564  57.454  42.8870  0.00  0.00     0.000 C
ATOM      3  C3  GAD B   1      22.448  58.697  43.0410  0.00  0.00     0.000 C
ATOM      4  C4  GAD B   1      22.429  59.644  41.8380  0.00  0.00     0.000 C
ATOM      5  C5  GAD B   1      21.599  59.514  40.7840  0.00  0.00     0.000 C
ATOM      6  O5  GAD B   1      20.711  58.380  40.7810  0.00  0.00     0.000 O
ATOM      7   O  GAD B   1      21.174  56.866  44.1830  0.00  0.00     0.000 O
ATOM      9  HD  GAD B   1      20.424  56.779  43.7590  0.00  0.00     0.000 HD
ATOM      9   O  GAD B   1      23.834  58.340  43.2480  0.00  0.00     0.000 O
ATOM     11  HD  GAD B   1      23.084  58.254  42.8230  0.00  0.00     0.000 HD
ENDROOT
BRANCH 5 11
ATOM     11   C  GAD B   1      21.497  60.482  39.6670  0.00  0.00     0.000 C
ATOM     12   O  GAD B   1      22.065  60.163  38.5760  0.00  0.00     0.000 OA
ATOM     13   O  GAD B   1      20.926  61.620  39.8480  0.00  0.00     0.000 OA
ENDBRANCH 5 11
BRANCH 1 14
ATOM     14  O3  ASG B   2      19.606  56.863  41.3780  0.00  0.00     0.000 O
BRANCH 14 17
ATOM     15  C1  ASG B   2      19.670  54.134  38.7660  0.00  0.00     0.000 C
ATOM     16  C2  ASG B   2      19.180  55.418  39.4500  0.00  0.00     0.000 C
ATOM     17  C3  ASG B   2      20.023  55.670  40.7040  0.00  0.00     0.000 C
ATOM     18  C4  ASG B   2      19.916  54.487  41.6470  0.00  0.00     0.000 C
ATOM     19  C5  ASG B   2      20.291  53.214  40.8940  0.00  0.00     0.000 C
ATOM     20  O5  ASG B   2      19.488  53.090  39.7040  0.00  0.00     0.000 O
ATOM     21   C  ASG B   2      20.055  51.976  41.6980  0.00  0.00     0.000 C
ATOM     22   O  ASG B   2      20.218  50.848  40.8740  0.00  0.00     0.000 O
ATOM     24  HD  ASG B   2      20.288  50.074  40.4910  0.00  0.00     0.000 HD
BRANCH 16 26
ATOM     24   N  ASG B   2      19.138  56.572  38.5820  0.00  0.00     0.000 N
ATOM     26  HD  ASG B   2      19.066  55.764  38.2800  0.00  0.00     0.000 HD
ATOM     26   C  ASG B   2      18.219  57.551  38.6760  0.00  0.00     0.000 C
ATOM     27   C  ASG B   2      18.525  58.811  37.9420  0.00  0.00     0.000 C
ATOM     28   O  ASG B   2      17.192  57.410  39.3290  0.00  0.00     0.000 OA
ENDBRANCH 16 26
BRANCH 18 29
ATOM     29   O  ASG B   2      18.532  54.471  42.1400  0.00  0.00     0.000 O
ATOM     30   O  ASG B   2      19.112  53.535  44.3380  0.00  0.00     0.000 OA
ATOM     31   O  ASG B   2      18.503  55.877  44.1400  0.00  0.00     0.000 OA
ATOM     32   O  ASG B   2      16.829  54.161  43.8260  0.00  0.00     0.000 OA
ATOM     33   S  ASG B   2      18.244  54.520  43.7200  0.00  0.00     0.000 S
ENDBRANCH 18 29
BRANCH 15 34
ATOM     34  O4  ASG B   3      18.965  53.814  37.6000  0.00  0.00     0.000 O
BRANCH 34 38
ATOM     35  C1  GCT B   3      18.056  50.822  35.0350  0.00  0.00     0.000 C
ATOM     36  C2  GCT B   3      16.895  51.269  35.8960  0.00  0.00     0.000 C
ATOM     37  C3  GCT B   3      17.164  52.640  36.4990  0.00  0.00     0.000 C
ATOM     38  C4  GCT B   3      18.434  52.573  37.3550  0.00  0.00     0.000 C
ATOM     39  C5  GCT B   3      19.475  51.589  36.7740  0.00  0.00     0.000 C
ATOM     40  O5  GCT B   3      19.241  51.532  35.3780  0.00  0.00     0.000 O
ATOM     41   O  GCT B   3      15.758  51.320  35.0450  0.00  0.00     0.000 O
ATOM     43  HD  GCT B   3      15.248  50.700  34.7190  0.00  0.00     0.000 HD
ATOM     43   O  GCT B   3      16.002  53.049  37.2500  0.00  0.00     0.000 O
ATOM     45  HD  GCT B   3      15.492  52.429  36.9250  0.00  0.00     0.000 HD
BRANCH 39 45
ATOM     45   C  GCT B   3      19.525  50.183  37.3310  0.00  0.00     0.000 C
ATOM     46   O  GCT B   3      18.783  49.872  38.3160  0.00  0.00     0.000 OA
ATOM     47   O  GCT B   3      20.291  49.372  36.7860  0.00  0.00     0.000 OA
ENDBRANCH 39 45
BRANCH 35 48
ATOM     48  O3  ASG B   4      17.917  49.545  34.7470  0.00  0.00     0.000 O
BRANCH 48 51
ATOM     49  C1  ASG B   4      16.912  47.559  31.7910  0.00  0.00     0.000 C
ATOM     50  C2  ASG B   4      17.141  47.948  33.2620  0.00  0.00     0.000 C
ATOM     51  C3  ASG B   4      17.527  49.419  33.3900  0.00  0.00     0.000 C
ATOM     52  C4  ASG B   4      18.661  49.775  32.4430  0.00  0.00     0.000 C
ATOM     53  C5  ASG B   4      18.248  49.363  31.0330  0.00  0.00     0.000 C
ATOM     54  O5  ASG B   4      18.027  47.939  31.0020  0.00  0.00     0.000 O
BRANCH 50 57
ATOM     55   N  ASG B   4      17.908  47.386  34.3490  0.00  0.00     0.000 N
ATOM     57  HD  ASG B   4      17.263  46.958  34.7370  0.00  0.00     0.000 HD
ATOM     57   O  ASG B   4      16.572  45.611  34.6310  0.00  0.00     0.000 OA
ATOM     58   C  ASG B   4      17.621  46.196  34.8860  0.00  0.00     0.000 C
ATOM     59   C  ASG B   4      18.632  45.659  35.8510  0.00  0.00     0.000 C
ENDBRANCH 50 57
BRANCH 52 60
ATOM     60   O  ASG B   4      19.820  49.025  32.9920  0.00  0.00     0.000 O
ATOM     61   O  ASG B   4      21.290  51.042  32.9910  0.00  0.00     0.000 OA
ATOM     62   O  ASG B   4      22.079  49.002  33.9310  0.00  0.00     0.000 OA
ATOM     63   O  ASG B   4      21.626  49.107  31.5850  0.00  0.00     0.000 OA
ATOM     64   S  ASG B   4      21.307  49.620  32.9210  0.00  0.00     0.000 S
ENDBRANCH 52 60
ATOM     65   O  ASG B   4      18.670  49.607  28.6570  0.00  0.00     0.000 O
ATOM     67  HD  ASG B   4      18.626  48.748  28.5580  0.00  0.00     0.000 HD
ATOM     67   O  ASG B   4      18.670  49.607  28.6570  0.00  0.00     0.000 O
ATOM     69  HD  ASG B   4      18.626  48.748  28.5580  0.00  0.00     0.000 HD
ENDBRANCH 48 51
ENDBRANCH 35 48
ENDBRANCH 34 38
ENDBRANCH 15 34
ENDBRANCH 14 17
ENDBRANCH 1 14
TORSDOF 12
ENDMDL
MODEL 32
REMARK VINA RESULT:      -4.0      5.284     10.736
ROOT
ATOM      1  C1  GAD B   1       9.302  72.352  44.9150  0.00  0.00     0.000 C
ATOM      2  C2  GAD B   1      10.693  72.453  45.5480  0.00  0.00     0.000 C
ATOM      3  C3  GAD B   1      11.352  73.782  45.1600  0.00  0.00     0.000 C
ATOM      4  C4  GAD B   1      10.963  74.304  43.7740  0.00  0.00     0.000 C
ATOM      5  C5  GAD B   1      10.006  73.756  42.9980  0.00  0.00     0.000 C
ATOM      6  O5  GAD B   1       9.349  72.576  43.4980  0.00  0.00     0.000 O
ATOM      7   O  GAD B   1      10.636  72.247  47.0080  0.00  0.00     0.000 O
ATOM      9  HD  GAD B   1       9.854  71.943  46.7930  0.00  0.00     0.000 HD
ATOM      9   O  GAD B   1      12.794  73.679  45.1580  0.00  0.00     0.000 O
ATOM     11  HD  GAD B   1      12.012  73.375  44.9430  0.00  0.00     0.000 HD
ENDROOT
BRANCH 5 11
ATOM     11   C  GAD B   1       9.548  74.314  41.7050  0.00  0.00     0.000 C
ATOM     12   O  GAD B   1       8.322  74.153  41.4110  0.00  0.00     0.000 OA
ATOM     13   O  GAD B   1      10.391  74.858  40.9000  0.00  0.00     0.000 OA
ENDBRANCH 5 11
BRANCH 1 14
ATOM     14  O3  ASG B   2       8.651  71.191  44.7130  0.00  0.00     0.000 O
BRANCH 14 17
ATOM     15  C1  ASG B   2       5.029  70.112  44.7470  0.00  0.00     0.000 C
ATOM     16  C2  ASG B   2       6.437  70.340  45.3160  0.00  0.00     0.000 C
ATOM     17  C3  ASG B   2       7.323  70.955  44.2280  0.00  0.00     0.000 C
ATOM     18  C4  ASG B   2       7.377  70.036  43.0230  0.00  0.00     0.000 C
ATOM     19  C5  ASG B   2       5.954  69.733  42.5640  0.00  0.00     0.000 C
ATOM     20  O5  ASG B   2       5.181  69.213  43.6640  0.00  0.00     0.000 O
ATOM     21   C  ASG B   2       5.901  68.702  41.4820  0.00  0.00     0.000 C
ATOM     22   O  ASG B   2       4.565  68.323  41.2640  0.00  0.00     0.000 O
ATOM     24  HD  ASG B   2       3.798  67.999  41.0230  0.00  0.00     0.000 HD
BRANCH 16 26
ATOM     24   N  ASG B   2       6.459  71.105  46.5420  0.00  0.00     0.000 N
ATOM     26  HD  ASG B   2       5.775  70.627  46.3060  0.00  0.00     0.000 HD
ATOM     26   C  ASG B   2       7.352  70.917  47.5300  0.00  0.00     0.000 C
ATOM     27   C  ASG B   2       7.442  72.002  48.5480  0.00  0.00     0.000 C
ATOM     28   O  ASG B   2       8.050  69.911  47.5860  0.00  0.00     0.000 OA
ENDBRANCH 16 26
BRANCH 18 29
ATOM     29   O  ASG B   2       8.107  68.834  43.4470  0.00  0.00     0.000 O
ATOM     30   O  ASG B   2       9.203  68.487  41.2740  0.00  0.00     0.000 OA
ATOM     31   O  ASG B   2      10.482  69.338  43.1530  0.00  0.00     0.000 OA
ATOM     32   O  ASG B   2       9.708  67.048  43.1550  0.00  0.00     0.000 OA
ATOM     33   S  ASG B   2       9.467  68.417  42.6980  0.00  0.00     0.000 S
ENDBRANCH 18 29
BRANCH 15 34
ATOM     34  O4  ASG B   3       4.135  69.556  45.6670  0.00  0.00     0.000 O
BRANCH 34 38
ATOM     35  C1  GCT B   3       5.459  65.775  45.1040  0.00  0.00     0.000 C
ATOM     36  C2  GCT B   3       3.989  65.964  44.7990  0.00  0.00     0.000 C
ATOM     37  C3  GCT B   3       3.661  67.438  44.6050  0.00  0.00     0.000 C
ATOM     38  C4  GCT B   3       4.017  68.206  45.8840  0.00  0.00     0.000 C
ATOM     39  C5  GCT B   3       5.256  67.611  46.5920  0.00  0.00     0.000 C
ATOM     40  O5  GCT B   3       6.034  66.984  45.5870  0.00  0.00     0.000 O
ATOM     41   O  GCT B   3       3.728  65.240  43.6050  0.00  0.00     0.000 O
ATOM     43  HD  GCT B   3       3.628  64.394  43.4490  0.00  0.00     0.000 HD
ATOM     43   O  GCT B   3       2.268  67.556  44.2490  0.00  0.00     0.000 O
ATOM     45  HD  GCT B   3       2.167  66.710  44.0930  0.00  0.00     0.000 HD
BRANCH 39 45
ATOM     45   C  GCT B   3       5.035  66.641  47.7320  0.00  0.00     0.000 C
ATOM     46   O  GCT B   3       6.036  66.084  48.2840  0.00  0.00     0.000 OA
ATOM     47   O  GCT B   3       3.867  66.435  48.0980  0.00  0.00     0.000 OA
ENDBRANCH 39 45
BRANCH 35 48
ATOM     48  O3  ASG B   4       5.661  64.544  45.5230  0.00  0.00     0.000 O
BRANCH 48 51
ATOM     49  C1  ASG B   4       7.609  62.329  43.2890  0.00  0.00     0.000 C
ATOM     50  C2  ASG B   4       6.427  63.135  43.8530  0.00  0.00     0.000 C
ATOM     51  C3  ASG B   4       6.878  64.065  44.9760  0.00  0.00     0.000 C
ATOM     52  C4  ASG B   4       7.703  63.318  46.0100  0.00  0.00     0.000 C
ATOM     53  C5  ASG B   4       8.850  62.618  45.2870  0.00  0.00     0.000 C
ATOM     54  O5  ASG B   4       8.307  61.679  44.3380  0.00  0.00     0.000 O
BRANCH 50 57
ATOM     55   N  ASG B   4       5.413  62.172  44.2190  0.00  0.00     0.000 N
ATOM     57  HD  ASG B   4       4.779  62.475  43.7130  0.00  0.00     0.000 HD
ATOM     57   O  ASG B   4       4.298  62.321  42.2820  0.00  0.00     0.000 OA
ATOM     58   C  ASG B   4       4.478  61.758  43.3580  0.00  0.00     0.000 C
ATOM     59   C  ASG B   4       3.640  60.606  43.8180  0.00  0.00     0.000 C
ENDBRANCH 50 57
BRANCH 52 60
ATOM     60   O  ASG B   4       6.721  62.401  46.6430  0.00  0.00     0.000 O
ATOM     61   O  ASG B   4       7.407  63.052  48.9530  0.00  0.00     0.000 OA
ATOM     62   O  ASG B   4       5.558  61.585  48.6350  0.00  0.00     0.000 OA
ATOM     63   O  ASG B   4       7.745  60.861  47.9940  0.00  0.00     0.000 OA
ATOM     64   S  ASG B   4       6.836  61.994  48.1890  0.00  0.00     0.000 S
ENDBRANCH 52 60
ATOM     65   O  ASG B   4      11.011  61.539  45.5040  0.00  0.00     0.000 O
ATOM     67  HD  ASG B   4      10.742  60.891  44.9970  0.00  0.00     0.000 HD
ATOM     67   O  ASG B   4      11.011  61.539  45.5040  0.00  0.00     0.000 O
ATOM     69  HD  ASG B   4      10.742  60.891  44.9970  0.00  0.00     0.000 HD
ENDBRANCH 48 51
ENDBRANCH 35 48
ENDBRANCH 34 38
ENDBRANCH 15 34
ENDBRANCH 14 17
ENDBRANCH 1 14
TORSDOF 12
ENDMDL
MODEL 33
REMARK VINA RESULT:      -3.9     14.890     19.020
ROOT
ATOM      1  C1  GAD B   1      20.651  57.415  42.0380  0.00  0.00     0.000 C
ATOM      2  C2  GAD B   1      21.800  56.977  42.9500  0.00  0.00     0.000 C
ATOM      3  C3  GAD B   1      22.827  58.108  43.0830  0.00  0.00     0.000 C
ATOM      4  C4  GAD B   1      22.962  58.992  41.8410  0.00  0.00     0.000 C
ATOM      5  C5  GAD B   1      22.156  58.916  40.7630  0.00  0.00     0.000 C
ATOM      6  O5  GAD B   1      21.135  57.900  40.7760  0.00  0.00     0.000 O
ATOM      7   O  GAD B   1      21.300  56.502  44.2550  0.00  0.00     0.000 O
ATOM      9  HD  GAD B   1      20.559  56.488  43.8070  0.00  0.00     0.000 HD
ATOM      9   O  GAD B   1      24.150  57.594  43.3550  0.00  0.00     0.000 O
ATOM     11  HD  GAD B   1      23.409  57.581  42.9080  0.00  0.00     0.000 HD
ENDROOT
BRANCH 5 11
ATOM     11   C  GAD B   1      22.210  59.835  39.6030  0.00  0.00     0.000 C
ATOM     12   O  GAD B   1      22.764  59.397  38.5470  0.00  0.00     0.000 OA
ATOM     13   O  GAD B   1      21.782  61.043  39.7140  0.00  0.00     0.000 OA
ENDBRANCH 5 11
BRANCH 1 14
ATOM     14  O3  ASG B   2      19.832  56.560  41.3970  0.00  0.00     0.000 O
BRANCH 14 17
ATOM     15  C1  ASG B   2      19.626  54.028  38.6000  0.00  0.00     0.000 C
ATOM     16  C2  ASG B   2      19.248  55.290  39.3890  0.00  0.00     0.000 C
ATOM     17  C3  ASG B   2      20.143  55.393  40.6270  0.00  0.00     0.000 C
ATOM     18  C4  ASG B   2      19.980  54.155  41.4890  0.00  0.00     0.000 C
ATOM     19  C5  ASG B   2      20.242  52.917  40.6370  0.00  0.00     0.000 C
ATOM     20  O5  ASG B   2      19.397  52.934  39.4690  0.00  0.00     0.000 O
ATOM     21   C  ASG B   2      19.943  51.643  41.3600  0.00  0.00     0.000 C
ATOM     22   O  ASG B   2      20.001  50.569  40.4540  0.00  0.00     0.000 O
ATOM     24  HD  ASG B   2      20.004  49.821  40.0160  0.00  0.00     0.000 HD
BRANCH 16 26
ATOM     24   N  ASG B   2      19.254  56.499  38.5980  0.00  0.00     0.000 N
ATOM     26  HD  ASG B   2      19.106  55.719  38.2500  0.00  0.00     0.000 HD
ATOM     26   C  ASG B   2      18.418  57.534  38.7990  0.00  0.00     0.000 C
ATOM     27   C  ASG B   2      18.786  58.813  38.1300  0.00  0.00     0.000 C
ATOM     28   O  ASG B   2      17.415  57.426  39.4940  0.00  0.00     0.000 OA
ENDBRANCH 16 26
BRANCH 18 29
ATOM     29   O  ASG B   2      18.614  54.198  42.0270  0.00  0.00     0.000 O
ATOM     30   O  ASG B   2      19.192  53.072  44.1340  0.00  0.00     0.000 OA
ATOM     31   O  ASG B   2      18.744  55.457  44.1190  0.00  0.00     0.000 OA
ATOM     32   O  ASG B   2      16.945  53.887  43.7450  0.00  0.00     0.000 OA
ATOM     33   S  ASG B   2      18.377  54.155  43.6160  0.00  0.00     0.000 S
ENDBRANCH 18 29
BRANCH 15 34
ATOM     34  O4  ASG B   3      18.866  53.842  37.4400  0.00  0.00     0.000 O
BRANCH 34 38
ATOM     35  C1  GCT B   3      18.173  51.149  34.5020  0.00  0.00     0.000 C
ATOM     36  C2  GCT B   3      16.969  51.435  35.3720  0.00  0.00     0.000 C
ATOM     37  C3  GCT B   3      17.155  52.733  36.1460  0.00  0.00     0.000 C
ATOM     38  C4  GCT B   3      18.403  52.618  37.0290  0.00  0.00     0.000 C
ATOM     39  C5  GCT B   3      19.505  51.760  36.3670  0.00  0.00     0.000 C
ATOM     40  O5  GCT B   3      19.312  51.864  34.9670  0.00  0.00     0.000 O
ATOM     41   O  GCT B   3      15.855  51.539  34.4970  0.00  0.00     0.000 O
ATOM     43  HD  GCT B   3      15.384  50.941  34.0820  0.00  0.00     0.000 HD
ATOM     43   O  GCT B   3      15.954  52.993  36.9020  0.00  0.00     0.000 O
ATOM     45  HD  GCT B   3      15.483  52.395  36.4880  0.00  0.00     0.000 HD
BRANCH 39 45
ATOM     45   C  GCT B   3      19.608  50.300  36.7510  0.00  0.00     0.000 C
ATOM     46   O  GCT B   3      20.449  49.554  36.1570  0.00  0.00     0.000 OA
ATOM     47   O  GCT B   3      18.864  49.886  37.6550  0.00  0.00     0.000 OA
ENDBRANCH 39 45
BRANCH 35 48
ATOM     48  O3  ASG B   4      18.105  49.913  34.0560  0.00  0.00     0.000 O
BRANCH 48 51
ATOM     49  C1  ASG B   4      18.245  50.004  30.3600  0.00  0.00     0.000 C
ATOM     50  C2  ASG B   4      17.752  50.259  31.7940  0.00  0.00     0.000 C
ATOM     51  C3  ASG B   4      18.795  49.829  32.8220  0.00  0.00     0.000 C
ATOM     52  C4  ASG B   4      19.287  48.417  32.5480  0.00  0.00     0.000 C
ATOM     53  C5  ASG B   4      19.777  48.356  31.1040  0.00  0.00     0.000 C
ATOM     54  O5  ASG B   4      18.680  48.661  30.2210  0.00  0.00     0.000 O
BRANCH 50 57
ATOM     55   N  ASG B   4      16.564  49.607  31.2910  0.00  0.00     0.000 N
ATOM     57  HD  ASG B   4      15.981  50.117  31.6780  0.00  0.00     0.000 HD
ATOM     57   O  ASG B   4      15.275  51.434  31.4140  0.00  0.00     0.000 OA
ATOM     58   C  ASG B   4      15.435  50.276  31.0400  0.00  0.00     0.000 C
ATOM     59   C  ASG B   4      14.370  49.504  30.3230  0.00  0.00     0.000 C
ENDBRANCH 50 57
BRANCH 52 60
ATOM     60   O  ASG B   4      18.098  47.573  32.8330  0.00  0.00     0.000 O
ATOM     61   O  ASG B   4      19.197  46.455  34.7760  0.00  0.00     0.000 OA
ATOM     62   O  ASG B   4      16.913  46.000  34.2840  0.00  0.00     0.000 OA
ATOM     63   O  ASG B   4      18.596  45.340  32.7190  0.00  0.00     0.000 OA
ATOM     64   S  ASG B   4      18.201  46.279  33.7740  0.00  0.00     0.000 S
ENDBRANCH 52 60
ATOM     65   O  ASG B   4      21.090  47.137  29.4700  0.00  0.00     0.000 O
ATOM     67  HD  ASG B   4      20.447  47.209  28.8950  0.00  0.00     0.000 HD
ATOM     67   O  ASG B   4      21.090  47.137  29.4700  0.00  0.00     0.000 O
ATOM     69  HD  ASG B   4      20.447  47.209  28.8950  0.00  0.00     0.000 HD
ENDBRANCH 48 51
ENDBRANCH 35 48
ENDBRANCH 34 38
ENDBRANCH 15 34
ENDBRANCH 14 17
ENDBRANCH 1 14
TORSDOF 12
ENDMDL
MODEL 34
REMARK VINA RESULT:      -3.9     27.120     31.522
ROOT
ATOM      1  C1  GAD B   1      30.673  46.896  56.5120  0.00  0.00     0.000 C
ATOM      2  C2  GAD B   1      31.060  45.924  55.3940  0.00  0.00     0.000 C
ATOM      3  C3  GAD B   1      31.300  46.691  54.0880  0.00  0.00     0.000 C
ATOM      4  C4  GAD B   1      30.437  47.944  53.9200  0.00  0.00     0.000 C
ATOM      5  C5  GAD B   1      29.640  48.451  54.8810  0.00  0.00     0.000 C
ATOM      6  O5  GAD B   1      29.570  47.730  56.1260  0.00  0.00     0.000 O
ATOM      7   O  GAD B   1      32.210  45.085  55.7840  0.00  0.00     0.000 O
ATOM      9  HD  GAD B   1      31.989  45.391  56.5640  0.00  0.00     0.000 HD
ATOM      9   O  GAD B   1      31.037  45.866  52.9310  0.00  0.00     0.000 O
ATOM     11  HD  GAD B   1      30.816  46.171  53.7100  0.00  0.00     0.000 HD
ENDROOT
BRANCH 5 11
ATOM     11   C  GAD B   1      28.884  49.720  54.7670  0.00  0.00     0.000 C
ATOM     12   O  GAD B   1      29.202  50.654  55.5680  0.00  0.00     0.000 OA
ATOM     13   O  GAD B   1      27.901  49.814  53.9430  0.00  0.00     0.000 OA
ENDBRANCH 5 11
BRANCH 1 14
ATOM     14  O3  ASG B   2      30.013  46.534  57.6280  0.00  0.00     0.000 O
BRANCH 14 17
ATOM     15  C1  ASG B   2      26.765  47.240  59.4250  0.00  0.00     0.000 C
ATOM     16  C2  ASG B   2      28.281  47.284  59.1850  0.00  0.00     0.000 C
ATOM     17  C3  ASG B   2      28.606  46.519  57.8980  0.00  0.00     0.000 C
ATOM     18  C4  ASG B   2      28.124  45.086  58.0110  0.00  0.00     0.000 C
ATOM     19  C5  ASG B   2      26.642  45.086  58.3740  0.00  0.00     0.000 C
ATOM     20  O5  ASG B   2      26.425  45.873  59.5610  0.00  0.00     0.000 O
ATOM     21   C  ASG B   2      26.118  43.717  58.6690  0.00  0.00     0.000 C
ATOM     22   O  ASG B   2      24.819  43.819  59.1970  0.00  0.00     0.000 O
ATOM     24  HD  ASG B   2      24.023  43.731  59.5270  0.00  0.00     0.000 HD
BRANCH 16 26
ATOM     24   N  ASG B   2      29.497  47.714  59.8350  0.00  0.00     0.000 N
ATOM     26  HD  ASG B   2      29.468  47.015  59.3240  0.00  0.00     0.000 HD
ATOM     26   C  ASG B   2      30.074  48.914  59.6360  0.00  0.00     0.000 C
ATOM     27   C  ASG B   2      31.110  49.316  60.6280  0.00  0.00     0.000 C
ATOM     28   O  ASG B   2      29.761  49.630  58.6920  0.00  0.00     0.000 OA
ENDBRANCH 16 26
BRANCH 18 29
ATOM     29   O  ASG B   2      28.961  44.444  59.0340  0.00  0.00     0.000 O
ATOM     30   O  ASG B   2      28.890  42.221  57.9860  0.00  0.00     0.000 OA
ATOM     31   O  ASG B   2      30.913  43.556  57.8590  0.00  0.00     0.000 OA
ATOM     32   O  ASG B   2      30.220  42.607  59.9720  0.00  0.00     0.000 OA
ATOM     33   S  ASG B   2      29.799  43.122  58.6690  0.00  0.00     0.000 S
ENDBRANCH 18 29
BRANCH 15 34
ATOM     34  O4  ASG B   3      26.360  47.918  60.5800  0.00  0.00     0.000 O
BRANCH 34 38
ATOM     35  C1  GCT B   3      25.358  47.594  64.4860  0.00  0.00     0.000 C
ATOM     36  C2  GCT B   3      26.753  48.131  64.2500  0.00  0.00     0.000 C
ATOM     37  C3  GCT B   3      26.906  48.634  62.8220  0.00  0.00     0.000 C
ATOM     38  C4  GCT B   3      26.636  47.479  61.8500  0.00  0.00     0.000 C
ATOM     39  C5  GCT B   3      25.560  46.508  62.3870  0.00  0.00     0.000 C
ATOM     40  O5  GCT B   3      24.730  47.263  63.2520  0.00  0.00     0.000 O
ATOM     41   O  GCT B   3      26.935  49.199  65.1700  0.00  0.00     0.000 O
ATOM     43  HD  GCT B   3      27.099  49.211  66.0200  0.00  0.00     0.000 HD
ATOM     43   O  GCT B   3      28.227  49.197  62.6710  0.00  0.00     0.000 O
ATOM     45  HD  GCT B   3      28.391  49.209  63.5210  0.00  0.00     0.000 HD
BRANCH 39 45
ATOM     45   C  GCT B   3      26.015  45.253  63.0990  0.00  0.00     0.000 C
ATOM     46   O  GCT B   3      27.252  45.078  63.3340  0.00  0.00     0.000 OA
ATOM     47   O  GCT B   3      25.145  44.437  63.4440  0.00  0.00     0.000 OA
ENDBRANCH 39 45
BRANCH 35 48
ATOM     48  O3  ASG B   4      25.333  46.935  65.6240  0.00  0.00     0.000 O
BRANCH 48 51
ATOM     49  C1  ASG B   4      23.004  47.526  68.4380  0.00  0.00     0.000 C
ATOM     50  C2  ASG B   4      24.283  47.577  67.5850  0.00  0.00     0.000 C
ATOM     51  C3  ASG B   4      24.034  47.029  66.1830  0.00  0.00     0.000 C
ATOM     52  C4  ASG B   4      23.345  45.675  66.2350  0.00  0.00     0.000 C
ATOM     53  C5  ASG B   4      22.081  45.818  67.0780  0.00  0.00     0.000 C
ATOM     54  O5  ASG B   4      22.447  46.222  68.4120  0.00  0.00     0.000 O
BRANCH 50 57
ATOM     55   N  ASG B   4      24.609  48.983  67.6510  0.00  0.00     0.000 N
ATOM     57  HD  ASG B   4      24.864  49.003  68.4780  0.00  0.00     0.000 HD
ATOM     57   O  ASG B   4      26.128  48.752  69.2800  0.00  0.00     0.000 OA
ATOM     58   C  ASG B   4      25.590  49.452  68.4280  0.00  0.00     0.000 C
ATOM     59   C  ASG B   4      25.946  50.893  68.2230  0.00  0.00     0.000 C
ENDBRANCH 50 57
BRANCH 52 60
ATOM     60   O  ASG B   4      24.379  44.782  66.8170  0.00  0.00     0.000 O
ATOM     61   O  ASG B   4      23.542  42.788  65.5700  0.00  0.00     0.000 OA
ATOM     62   O  ASG B   4      25.526  42.622  66.8760  0.00  0.00     0.000 OA
ATOM     63   O  ASG B   4      23.441  43.039  67.9710  0.00  0.00     0.000 OA
ATOM     64   S  ASG B   4      24.237  43.186  66.7480  0.00  0.00     0.000 S
ENDBRANCH 52 60
ATOM     65   O  ASG B   4      19.940  44.851  67.6820  0.00  0.00     0.000 O
ATOM     67  HD  ASG B   4      20.110  44.991  68.5190  0.00  0.00     0.000 HD
ATOM     67   O  ASG B   4      19.940  44.851  67.6820  0.00  0.00     0.000 O
ATOM     69  HD  ASG B   4      20.110  44.991  68.5190  0.00  0.00     0.000 HD
ENDBRANCH 48 51
ENDBRANCH 35 48
ENDBRANCH 34 38
ENDBRANCH 15 34
ENDBRANCH 14 17
ENDBRANCH 1 14
TORSDOF 12
ENDMDL
MODEL 35
REMARK VINA RESULT:      -3.9     13.019     20.132
ROOT
ATOM      1  C1  GAD B   1      12.778  67.432  24.3250  0.00  0.00     0.000 C
ATOM      2  C2  GAD B   1      12.225  66.249  23.5250  0.00  0.00     0.000 C
ATOM      3  C3  GAD B   1      12.899  66.182  22.1500  0.00  0.00     0.000 C
ATOM      4  C4  GAD B   1      13.296  67.543  21.5700  0.00  0.00     0.000 C
ATOM      5  C5  GAD B   1      13.222  68.706  22.2460  0.00  0.00     0.000 C
ATOM      6  O5  GAD B   1      12.689  68.658  23.5830  0.00  0.00     0.000 O
ATOM      7   O  GAD B   1      12.341  64.987  24.2810  0.00  0.00     0.000 O
ATOM      9  HD  GAD B   1      12.473  65.550  24.9260  0.00  0.00     0.000 HD
ATOM      9   O  GAD B   1      12.040  65.563  21.1660  0.00  0.00     0.000 O
ATOM     11  HD  GAD B   1      12.171  66.126  21.8120  0.00  0.00     0.000 HD
ENDROOT
BRANCH 5 11
ATOM     11   C  GAD B   1      13.702  70.011  21.7340  0.00  0.00     0.000 C
ATOM     12   O  GAD B   1      13.347  70.333  20.5570  0.00  0.00     0.000 OA
ATOM     13   O  GAD B   1      14.506  70.726  22.4390  0.00  0.00     0.000 OA
ENDBRANCH 5 11
BRANCH 1 14
ATOM     14  O3  ASG B   2      12.135  68.008  25.3580  0.00  0.00     0.000 O
BRANCH 14 17
ATOM     15  C1  ASG B   2       9.469  67.120  27.8850  0.00  0.00     0.000 C
ATOM     16  C2  ASG B   2      10.059  67.787  26.6340  0.00  0.00     0.000 C
ATOM     17  C3  ASG B   2      11.538  67.411  26.5160  0.00  0.00     0.000 C
ATOM     18  C4  ASG B   2      12.287  67.851  27.7590  0.00  0.00     0.000 C
ATOM     19  C5  ASG B   2      11.596  67.269  28.9890  0.00  0.00     0.000 C
ATOM     20  O5  ASG B   2      10.200  67.628  28.9860  0.00  0.00     0.000 O
ATOM     21   C  ASG B   2      12.166  67.785  30.2710  0.00  0.00     0.000 C
ATOM     22   O  ASG B   2      11.350  67.376  31.3410  0.00  0.00     0.000 O
ATOM     24  HD  ASG B   2      10.947  67.197  32.0870  0.00  0.00     0.000 HD
BRANCH 16 26
ATOM     24   N  ASG B   2       9.369  67.498  25.3980  0.00  0.00     0.000 N
ATOM     26  HD  ASG B   2       8.981  67.435  26.1700  0.00  0.00     0.000 HD
ATOM     26   C  ASG B   2       9.194  68.392  24.4070  0.00  0.00     0.000 C
ATOM     27   C  ASG B   2       8.775  67.836  23.0900  0.00  0.00     0.000 C
ATOM     28   O  ASG B   2       9.371  69.591  24.5820  0.00  0.00     0.000 OA
ENDBRANCH 16 26
BRANCH 18 29
ATOM     29   O  ASG B   2      12.287  69.320  27.7470  0.00  0.00     0.000 O
ATOM     30   O  ASG B   2      14.520  69.530  28.7540  0.00  0.00     0.000 OA
ATOM     31   O  ASG B   2      14.207  69.992  26.3910  0.00  0.00     0.000 OA
ATOM     32   O  ASG B   2      13.294  71.496  28.0490  0.00  0.00     0.000 OA
ATOM     33   S  ASG B   2      13.680  70.121  27.7290  0.00  0.00     0.000 S
ENDBRANCH 18 29
BRANCH 15 34
ATOM     34  O4  ASG B   3       8.113  67.398  28.0840  0.00  0.00     0.000 O
BRANCH 34 38
ATOM     35  C1  GCT B   3       7.431  64.372  30.6800  0.00  0.00     0.000 C
ATOM     36  C2  GCT B   3       6.830  64.154  29.3090  0.00  0.00     0.000 C
ATOM     37  C3  GCT B   3       7.471  65.078  28.2830  0.00  0.00     0.000 C
ATOM     38  C4  GCT B   3       7.249  66.534  28.7090  0.00  0.00     0.000 C
ATOM     39  C5  GCT B   3       7.259  66.697  30.2460  0.00  0.00     0.000 C
ATOM     40  O5  GCT B   3       8.059  65.647  30.7590  0.00  0.00     0.000 O
ATOM     41   O  GCT B   3       7.076  62.796  28.9710  0.00  0.00     0.000 O
ATOM     43  HD  GCT B   3       6.704  62.057  29.2270  0.00  0.00     0.000 HD
ATOM     43   O  GCT B   3       6.913  64.782  26.9860  0.00  0.00     0.000 O
ATOM     45  HD  GCT B   3       6.540  64.043  27.2410  0.00  0.00     0.000 HD
BRANCH 39 45
ATOM     45   C  GCT B   3       5.934  66.718  30.9750  0.00  0.00     0.000 C
ATOM     46   O  GCT B   3       5.917  66.819  32.2430  0.00  0.00     0.000 OA
ATOM     47   O  GCT B   3       4.898  66.649  30.2940  0.00  0.00     0.000 OA
ENDBRANCH 39 45
BRANCH 35 48
ATOM     48  O3  ASG B   4       6.691  63.764  31.5820  0.00  0.00     0.000 O
BRANCH 48 51
ATOM     49  C1  ASG B   4       6.882  60.600  33.4910  0.00  0.00     0.000 C
ATOM     50  C2  ASG B   4       6.310  61.902  32.9040  0.00  0.00     0.000 C
ATOM     51  C3  ASG B   4       7.239  62.483  31.8420  0.00  0.00     0.000 C
ATOM     52  C4  ASG B   4       8.668  62.576  32.3510  0.00  0.00     0.000 C
ATOM     53  C5  ASG B   4       9.084  61.196  32.8510  0.00  0.00     0.000 C
ATOM     54  O5  ASG B   4       8.215  60.802  33.9310  0.00  0.00     0.000 O
BRANCH 50 57
ATOM     55   N  ASG B   4       5.161  62.638  32.4290  0.00  0.00     0.000 N
ATOM     57  HD  ASG B   4       4.553  62.185  32.8470  0.00  0.00     0.000 HD
ATOM     57   O  ASG B   4       3.885  62.175  34.2100  0.00  0.00     0.000 OA
ATOM     58   C  ASG B   4       4.064  62.806  33.1730  0.00  0.00     0.000 C
ATOM     59   C  ASG B   4       3.053  63.768  32.6290  0.00  0.00     0.000 C
ENDBRANCH 50 57
BRANCH 52 60
ATOM     60   O  ASG B   4       8.593  63.619  33.4070  0.00  0.00     0.000 O
ATOM     61   O  ASG B   4      10.669  64.755  32.6130  0.00  0.00     0.000 OA
ATOM     62   O  ASG B   4       9.386  65.723  34.3690  0.00  0.00     0.000 OA
ATOM     63   O  ASG B   4      10.460  63.617  34.7340  0.00  0.00     0.000 OA
ATOM     64   S  ASG B   4       9.858  64.537  33.7630  0.00  0.00     0.000 S
ENDBRANCH 52 60
ATOM     65   O  ASG B   4      10.929  59.747  33.4670  0.00  0.00     0.000 O
ATOM     67  HD  ASG B   4      10.506  59.508  34.1840  0.00  0.00     0.000 HD
ATOM     67   O  ASG B   4      10.929  59.747  33.4670  0.00  0.00     0.000 O
ATOM     69  HD  ASG B   4      10.506  59.508  34.1840  0.00  0.00     0.000 HD
ENDBRANCH 48 51
ENDBRANCH 35 48
ENDBRANCH 34 38
ENDBRANCH 15 34
ENDBRANCH 14 17
ENDBRANCH 1 14
TORSDOF 12
ENDMDL
MODEL 36
REMARK VINA RESULT:      -3.9     29.722     35.294
ROOT
ATOM      1  C1  GAD B   1      27.738  43.607  57.5800  0.00  0.00     0.000 C
ATOM      2  C2  GAD B   1      26.562  43.006  58.3570  0.00  0.00     0.000 C
ATOM      3  C3  GAD B   1      25.670  44.123  58.9110  0.00  0.00     0.000 C
ATOM      4  C4  GAD B   1      26.417  45.409  59.2770  0.00  0.00     0.000 C
ATOM      5  C5  GAD B   1      27.718  45.635  59.0040  0.00  0.00     0.000 C
ATOM      6  O5  GAD B   1      28.451  44.572  58.3680  0.00  0.00     0.000 O
ATOM      7   O  GAD B   1      25.816  42.033  57.5360  0.00  0.00     0.000 O
ATOM      9  HD  GAD B   1      26.537  42.095  57.0590  0.00  0.00     0.000 HD
ATOM      9   O  GAD B   1      24.979  43.706  60.1100  0.00  0.00     0.000 O
ATOM     11  HD  GAD B   1      25.699  43.769  59.6330  0.00  0.00     0.000 HD
ENDROOT
BRANCH 5 11
ATOM     11   C  GAD B   1      28.422  46.914  59.2570  0.00  0.00     0.000 C
ATOM     12   O  GAD B   1      27.708  47.905  59.6050  0.00  0.00     0.000 OA
ATOM     13   O  GAD B   1      29.688  47.007  59.0470  0.00  0.00     0.000 OA
ENDBRANCH 5 11
BRANCH 1 14
ATOM     14  O3  ASG B   2      28.888  42.953  57.3340  0.00  0.00     0.000 O
BRANCH 14 17
ATOM     15  C1  ASG B   2      32.482  42.746  58.4830  0.00  0.00     0.000 C
ATOM     16  C2  ASG B   2      31.327  43.038  57.5150  0.00  0.00     0.000 C
ATOM     17  C3  ASG B   2      30.001  42.694  58.1980  0.00  0.00     0.000 C
ATOM     18  C4  ASG B   2      29.995  41.235  58.6130  0.00  0.00     0.000 C
ATOM     19  C5  ASG B   2      31.225  40.956  59.4710  0.00  0.00     0.000 C
ATOM     20  O5  ASG B   2      32.417  41.362  58.7710  0.00  0.00     0.000 O
ATOM     21   C  ASG B   2      31.392  39.504  59.7890  0.00  0.00     0.000 C
ATOM     22   O  ASG B   2      32.646  39.301  60.3930  0.00  0.00     0.000 O
ATOM     24  HD  ASG B   2      33.376  39.031  60.7720  0.00  0.00     0.000 HD
BRANCH 16 26
ATOM     24   N  ASG B   2      31.305  44.383  56.9860  0.00  0.00     0.000 N
ATOM     26  HD  ASG B   2      32.034  44.009  57.2690  0.00  0.00     0.000 HD
ATOM     26   C  ASG B   2      30.917  44.693  55.7350  0.00  0.00     0.000 C
ATOM     27   C  ASG B   2      30.632  46.133  55.4760  0.00  0.00     0.000 C
ATOM     28   O  ASG B   2      30.804  43.839  54.8650  0.00  0.00     0.000 OA
ENDBRANCH 16 26
BRANCH 18 29
ATOM     29   O  ASG B   2      29.975  40.449  57.3720  0.00  0.00     0.000 O
ATOM     30   O  ASG B   2      28.699  38.582  58.3360  0.00  0.00     0.000 OA
ATOM     31   O  ASG B   2      27.619  40.125  56.8050  0.00  0.00     0.000 OA
ATOM     32   O  ASG B   2      29.296  38.587  55.9890  0.00  0.00     0.000 OA
ATOM     33   S  ASG B   2      28.809  39.372  57.1240  0.00  0.00     0.000 S
ENDBRANCH 18 29
BRANCH 15 34
ATOM     34  O4  ASG B   3      33.745  43.034  57.9540  0.00  0.00     0.000 O
BRANCH 34 38
ATOM     35  C1  GCT B   3      33.849  39.724  55.6310  0.00  0.00     0.000 C
ATOM     36  C2  GCT B   3      34.970  39.800  56.6450  0.00  0.00     0.000 C
ATOM     37  C3  GCT B   3      34.639  40.799  57.7440  0.00  0.00     0.000 C
ATOM     38  C4  GCT B   3      34.425  42.183  57.1190  0.00  0.00     0.000 C
ATOM     39  C5  GCT B   3      33.783  42.093  55.7170  0.00  0.00     0.000 C
ATOM     40  O5  GCT B   3      33.035  40.890  55.6900  0.00  0.00     0.000 O
ATOM     41   O  GCT B   3      35.110  38.496  57.1900  0.00  0.00     0.000 O
ATOM     43  HD  GCT B   3      35.471  37.772  56.8800  0.00  0.00     0.000 HD
ATOM     43   O  GCT B   3      35.705  40.782  58.7170  0.00  0.00     0.000 O
ATOM     45  HD  GCT B   3      36.066  40.059  58.4070  0.00  0.00     0.000 HD
BRANCH 39 45
ATOM     45   C  GCT B   3      34.689  42.146  54.5060  0.00  0.00     0.000 C
ATOM     46   O  GCT B   3      35.946  42.239  54.6670  0.00  0.00     0.000 OA
ATOM     47   O  GCT B   3      34.159  42.080  53.3840  0.00  0.00     0.000 OA
ENDBRANCH 39 45
BRANCH 35 48
ATOM     48  O3  ASG B   4      34.266  39.065  54.5710  0.00  0.00     0.000 O
BRANCH 48 51
ATOM     49  C1  ASG B   4      31.851  36.309  54.0630  0.00  0.00     0.000 C
ATOM     50  C2  ASG B   4      32.885  37.216  54.7510  0.00  0.00     0.000 C
ATOM     51  C3  ASG B   4      33.151  38.473  53.9280  0.00  0.00     0.000 C
ATOM     52  C4  ASG B   4      33.455  38.129  52.4790  0.00  0.00     0.000 C
ATOM     53  C5  ASG B   4      32.313  37.268  51.9460  0.00  0.00     0.000 C
ATOM     54  O5  ASG B   4      32.234  36.056  52.7210  0.00  0.00     0.000 O
BRANCH 50 57
ATOM     55   N  ASG B   4      31.937  36.873  55.7860  0.00  0.00     0.000 N
ATOM     57  HD  ASG B   4      32.352  36.180  56.0970  0.00  0.00     0.000 HD
ATOM     57   O  ASG B   4      33.444  35.870  57.1030  0.00  0.00     0.000 OA
ATOM     58   C  ASG B   4      32.312  36.314  56.9400  0.00  0.00     0.000 C
ATOM     59   C  ASG B   4      31.248  36.219  57.9900  0.00  0.00     0.000 C
ENDBRANCH 50 57
BRANCH 52 60
ATOM     60   O  ASG B   4      34.767  37.436  52.5550  0.00  0.00     0.000 O
ATOM     61   O  ASG B   4      35.656  38.625  50.5480  0.00  0.00     0.000 OA
ATOM     62   O  ASG B   4      37.082  37.191  51.8040  0.00  0.00     0.000 OA
ATOM     63   O  ASG B   4      35.213  36.252  50.6450  0.00  0.00     0.000 OA
ATOM     64   S  ASG B   4      35.779  37.429  51.3120  0.00  0.00     0.000 S
ENDBRANCH 52 60
ATOM     65   O  ASG B   4      31.201  36.387  49.9790  0.00  0.00     0.000 O
ATOM     67  HD  ASG B   4      31.176  35.601  50.3420  0.00  0.00     0.000 HD
ATOM     67   O  ASG B   4      31.201  36.387  49.9790  0.00  0.00     0.000 O
ATOM     69  HD  ASG B   4      31.176  35.601  50.3420  0.00  0.00     0.000 HD
ENDBRANCH 48 51
ENDBRANCH 35 48
ENDBRANCH 34 38
ENDBRANCH 15 34
ENDBRANCH 14 17
ENDBRANCH 1 14
TORSDOF 12
ENDMDL
MODEL 37
REMARK VINA RESULT:      -3.8      8.168     13.327
ROOT
ATOM      1  C1  GAD B   1      22.531  57.771  42.8160  0.00  0.00     0.000 C
ATOM      2  C2  GAD B   1      23.887  57.059  42.8360  0.00  0.00     0.000 C
ATOM      3  C3  GAD B   1      24.699  57.438  41.5910  0.00  0.00     0.000 C
ATOM      4  C4  GAD B   1      23.856  57.716  40.3440  0.00  0.00     0.000 C
ATOM      5  C5  GAD B   1      22.510  57.788  40.3380  0.00  0.00     0.000 C
ATOM      6  O5  GAD B   1      21.832  57.539  41.5840  0.00  0.00     0.000 O
ATOM      7   O  GAD B   1      24.613  57.320  44.0940  0.00  0.00     0.000 O
ATOM      9  HD  GAD B   1      23.823  57.584  44.3310  0.00  0.00     0.000 HD
ATOM      9   O  GAD B   1      25.626  56.392  41.2230  0.00  0.00     0.000 O
ATOM     11  HD  GAD B   1      24.836  56.656  41.4600  0.00  0.00     0.000 HD
ENDROOT
BRANCH 5 11
ATOM     11   C  GAD B   1      21.690  58.161  39.1610  0.00  0.00     0.000 C
ATOM     12   O  GAD B   1      21.619  57.313  38.2180  0.00  0.00     0.000 OA
ATOM     13   O  GAD B   1      21.156  59.329  39.0900  0.00  0.00     0.000 OA
ENDBRANCH 5 11
BRANCH 1 14
ATOM     14  O3  ASG B   2      21.454  57.355  43.5090  0.00  0.00     0.000 O
BRANCH 14 17
ATOM     15  C1  ASG B   2      17.913  56.175  42.9180  0.00  0.00     0.000 C
ATOM     16  C2  ASG B   2      19.021  57.140  43.3650  0.00  0.00     0.000 C
ATOM     17  C3  ASG B   2      20.384  56.490  43.1110  0.00  0.00     0.000 C
ATOM     18  C4  ASG B   2      20.482  55.178  43.8650  0.00  0.00     0.000 C
ATOM     19  C5  ASG B   2      19.295  54.297  43.4880  0.00  0.00     0.000 C
ATOM     20  O5  ASG B   2      18.062  55.009  43.7070  0.00  0.00     0.000 O
ATOM     21   C  ASG B   2      19.217  53.049  44.3070  0.00  0.00     0.000 C
ATOM     22   O  ASG B   2      17.995  52.401  44.0540  0.00  0.00     0.000 O
ATOM     24  HD  ASG B   2      17.292  51.898  43.9950  0.00  0.00     0.000 HD
BRANCH 16 26
ATOM     24   N  ASG B   2      19.221  58.400  44.0420  0.00  0.00     0.000 N
ATOM     26  HD  ASG B   2      19.799  57.757  44.0830  0.00  0.00     0.000 HD
ATOM     26   C  ASG B   2      19.287  59.590  43.4150  0.00  0.00     0.000 C
ATOM     27   C  ASG B   2      19.152  60.795  44.2810  0.00  0.00     0.000 C
ATOM     28   O  ASG B   2      19.448  59.671  42.2040  0.00  0.00     0.000 OA
ENDBRANCH 16 26
BRANCH 18 29
ATOM     29   O  ASG B   2      20.506  55.520  45.2940  0.00  0.00     0.000 O
ATOM     30   O  ASG B   2      21.921  53.613  45.9320  0.00  0.00     0.000 OA
ATOM     31   O  ASG B   2      22.858  55.852  45.8760  0.00  0.00     0.000 OA
ATOM     32   O  ASG B   2      21.248  55.257  47.5790  0.00  0.00     0.000 OA
ATOM     33   S  ASG B   2      21.725  55.023  46.2160  0.00  0.00     0.000 S
ENDBRANCH 18 29
BRANCH 15 34
ATOM     34  O4  ASG B   3      16.621  56.679  43.1040  0.00  0.00     0.000 O
BRANCH 34 38
ATOM     35  C1  GCT B   3      13.994  58.413  45.6440  0.00  0.00     0.000 C
ATOM     36  C2  GCT B   3      14.647  59.379  44.6800  0.00  0.00     0.000 C
ATOM     37  C3  GCT B   3      15.262  58.636  43.5020  0.00  0.00     0.000 C
ATOM     38  C4  GCT B   3      16.315  57.650  44.0240  0.00  0.00     0.000 C
ATOM     39  C5  GCT B   3      15.927  57.061  45.3990  0.00  0.00     0.000 C
ATOM     40  O5  GCT B   3      14.512  57.099  45.4710  0.00  0.00     0.000 O
ATOM     41   O  GCT B   3      13.622  60.253  44.2290  0.00  0.00     0.000 O
ATOM     43  HD  GCT B   3      13.229  60.929  44.6020  0.00  0.00     0.000 HD
ATOM     43   O  GCT B   3      15.808  59.604  42.5820  0.00  0.00     0.000 O
ATOM     45  HD  GCT B   3      15.415  60.279  42.9560  0.00  0.00     0.000 HD
BRANCH 39 45
ATOM     45   C  GCT B   3      16.508  57.695  46.6430  0.00  0.00     0.000 C
ATOM     46   O  GCT B   3      16.178  57.250  47.7870  0.00  0.00     0.000 OA
ATOM     47   O  GCT B   3      17.309  58.632  46.4940  0.00  0.00     0.000 OA
ENDBRANCH 39 45
BRANCH 35 48
ATOM     48  O3  ASG B   4      13.708  59.043  46.7640  0.00  0.00     0.000 O
BRANCH 48 51
ATOM     49  C1  ASG B   4      10.294  57.794  47.4480  0.00  0.00     0.000 C
ATOM     50  C2  ASG B   4      11.493  58.375  46.6810  0.00  0.00     0.000 C
ATOM     51  C3  ASG B   4      12.776  58.272  47.5020  0.00  0.00     0.000 C
ATOM     52  C4  ASG B   4      12.577  58.822  48.9050  0.00  0.00     0.000 C
ATOM     53  C5  ASG B   4      11.382  58.107  49.5300  0.00  0.00     0.000 C
ATOM     54  O5  ASG B   4      10.207  58.374  48.7400  0.00  0.00     0.000 O
BRANCH 50 57
ATOM     55   N  ASG B   4      10.774  59.599  46.4100  0.00  0.00     0.000 N
ATOM     57  HD  ASG B   4      10.951  59.650  45.5640  0.00  0.00     0.000 HD
ATOM     57   O  ASG B   4      10.392  59.123  44.2550  0.00  0.00     0.000 OA
ATOM     58   C  ASG B   4      10.183  59.833  45.2340  0.00  0.00     0.000 C
ATOM     59   C  ASG B   4       9.301  61.043  45.1820  0.00  0.00     0.000 C
ENDBRANCH 50 57
BRANCH 52 60
ATOM     60   O  ASG B   4      12.380  60.278  48.6830  0.00  0.00     0.000 O
ATOM     61   O  ASG B   4      14.057  60.901  50.4240  0.00  0.00     0.000 OA
ATOM     62   O  ASG B   4      13.056  62.594  49.0830  0.00  0.00     0.000 OA
ATOM     63   O  ASG B   4      11.687  61.340  50.5900  0.00  0.00     0.000 OA
ATOM     64   S  ASG B   4      12.889  61.360  49.7500  0.00  0.00     0.000 S
ENDBRANCH 52 60
ATOM     65   O  ASG B   4      10.198  57.574  51.5780  0.00  0.00     0.000 O
ATOM     67  HD  ASG B   4       9.447  57.786  51.2020  0.00  0.00     0.000 HD
ATOM     67   O  ASG B   4      10.198  57.574  51.5780  0.00  0.00     0.000 O
ATOM     69  HD  ASG B   4       9.447  57.786  51.2020  0.00  0.00     0.000 HD
ENDBRANCH 48 51
ENDBRANCH 35 48
ENDBRANCH 34 38
ENDBRANCH 15 34
ENDBRANCH 14 17
ENDBRANCH 1 14
TORSDOF 12
ENDMDL
MODEL 38
REMARK VINA RESULT:      -3.8     27.217     30.839
ROOT
ATOM      1  C1  GAD B   1      31.043  47.241  56.8480  0.00  0.00     0.000 C
ATOM      2  C2  GAD B   1      31.068  45.859  56.1890  0.00  0.00     0.000 C
ATOM      3  C3  GAD B   1      31.292  46.000  54.6790  0.00  0.00     0.000 C
ATOM      4  C4  GAD B   1      30.697  47.270  54.0640  0.00  0.00     0.000 C
ATOM      5  C5  GAD B   1      30.157  48.277  54.7790  0.00  0.00     0.000 C
ATOM      6  O5  GAD B   1      30.099  48.113  56.2080  0.00  0.00     0.000 O
ATOM      7   O  GAD B   1      32.057  44.974  56.8330  0.00  0.00     0.000 O
ATOM      9  HD  GAD B   1      32.008  45.592  57.4380  0.00  0.00     0.000 HD
ATOM      9   O  GAD B   1      30.713  44.894  53.9510  0.00  0.00     0.000 O
ATOM     11  HD  GAD B   1      30.664  45.512  54.5550  0.00  0.00     0.000 HD
ENDROOT
BRANCH 5 11
ATOM     11   C  GAD B   1      29.676  49.555  54.2040  0.00  0.00     0.000 C
ATOM     12   O  GAD B   1      30.257  50.616  54.5930  0.00  0.00     0.000 OA
ATOM     13   O  GAD B   1      28.661  49.567  53.4130  0.00  0.00     0.000 OA
ENDBRANCH 5 11
BRANCH 1 14
ATOM     14  O3  ASG B   2      30.473  47.495  58.0410  0.00  0.00     0.000 O
BRANCH 14 17
ATOM     15  C1  ASG B   2      29.235  45.662  61.1050  0.00  0.00     0.000 C
ATOM     16  C2  ASG B   2      29.121  46.467  59.8020  0.00  0.00     0.000 C
ATOM     17  C3  ASG B   2      30.526  46.747  59.2610  0.00  0.00     0.000 C
ATOM     18  C4  ASG B   2      31.335  47.511  60.2920  0.00  0.00     0.000 C
ATOM     19  C5  ASG B   2      31.320  46.740  61.6090  0.00  0.00     0.000 C
ATOM     20  O5  ASG B   2      29.962  46.474  62.0090  0.00  0.00     0.000 O
ATOM     21   C  ASG B   2      31.954  47.498  62.7310  0.00  0.00     0.000 C
ATOM     22   O  ASG B   2      31.714  46.825  63.9420  0.00  0.00     0.000 O
ATOM     24  HD  ASG B   2      31.647  46.521  64.7500  0.00  0.00     0.000 HD
BRANCH 16 26
ATOM     24   N  ASG B   2      28.379  45.882  58.7090  0.00  0.00     0.000 N
ATOM     26  HD  ASG B   2      28.306  45.595  59.5230  0.00  0.00     0.000 HD
ATOM     26   C  ASG B   2      27.503  46.562  57.9450  0.00  0.00     0.000 C
ATOM     27   C  ASG B   2      27.097  45.904  56.6710  0.00  0.00     0.000 C
ATOM     28   O  ASG B   2      27.069  47.656  58.2810  0.00  0.00     0.000 OA
ENDBRANCH 16 26
BRANCH 18 29
ATOM     29   O  ASG B   2      30.719  48.841  60.4040  0.00  0.00     0.000 O
ATOM     30   O  ASG B   2      32.842  50.012  60.8080  0.00  0.00     0.000 OA
ATOM     31   O  ASG B   2      31.739  50.214  58.6550  0.00  0.00     0.000 OA
ATOM     32   O  ASG B   2      30.769  51.247  60.6140  0.00  0.00     0.000 OA
ATOM     33   S  ASG B   2      31.590  50.155  60.0910  0.00  0.00     0.000 S
ENDBRANCH 18 29
BRANCH 15 34
ATOM     34  O4  ASG B   3      28.000  45.347  61.6810  0.00  0.00     0.000 O
BRANCH 34 38
ATOM     35  C1  GCT B   3      25.153  47.071  63.9810  0.00  0.00     0.000 C
ATOM     36  C2  GCT B   3      24.651  46.589  62.6380  0.00  0.00     0.000 C
ATOM     37  C3  GCT B   3      25.621  45.590  62.0230  0.00  0.00     0.000 C
ATOM     38  C4  GCT B   3      26.988  46.260  61.8430  0.00  0.00     0.000 C
ATOM     39  C5  GCT B   3      27.286  47.280  62.9650  0.00  0.00     0.000 C
ATOM     40  O5  GCT B   3      26.555  46.856  64.1020  0.00  0.00     0.000 O
ATOM     41   O  GCT B   3      23.393  45.973  62.8750  0.00  0.00     0.000 O
ATOM     43  HD  GCT B   3      22.606  46.301  63.0260  0.00  0.00     0.000 HD
ATOM     43   O  GCT B   3      25.063  45.112  60.7810  0.00  0.00     0.000 O
ATOM     45  HD  GCT B   3      24.275  45.439  60.9320  0.00  0.00     0.000 HD
BRANCH 39 45
ATOM     45   C  GCT B   3      27.000  48.742  62.7030  0.00  0.00     0.000 C
ATOM     46   O  GCT B   3      27.381  49.617  63.5430  0.00  0.00     0.000 OA
ATOM     47   O  GCT B   3      26.405  49.036  61.6530  0.00  0.00     0.000 OA
ENDBRANCH 39 45
BRANCH 35 48
ATOM     48  O3  ASG B   4      24.446  48.113  64.3620  0.00  0.00     0.000 O
BRANCH 48 51
ATOM     49  C1  ASG B   4      22.486  48.641  67.4550  0.00  0.00     0.000 C
ATOM     50  C2  ASG B   4      22.806  48.406  65.9700  0.00  0.00     0.000 C
ATOM     51  C3  ASG B   4      24.280  48.069  65.7690  0.00  0.00     0.000 C
ATOM     52  C4  ASG B   4      25.176  49.076  66.4720  0.00  0.00     0.000 C
ATOM     53  C5  ASG B   4      24.750  49.149  67.9360  0.00  0.00     0.000 C
ATOM     54  O5  ASG B   4      23.381  49.593  68.0070  0.00  0.00     0.000 O
BRANCH 50 57
ATOM     55   N  ASG B   4      21.949  47.339  65.5050  0.00  0.00     0.000 N
ATOM     57  HD  ASG B   4      21.195  47.760  65.5720  0.00  0.00     0.000 HD
ATOM     57   O  ASG B   4      20.345  48.700  64.7370  0.00  0.00     0.000 OA
ATOM     58   C  ASG B   4      20.822  47.573  64.8250  0.00  0.00     0.000 C
ATOM     59   C  ASG B   4      20.162  46.367  64.2300  0.00  0.00     0.000 C
ENDBRANCH 50 57
BRANCH 52 60
ATOM     60   O  ASG B   4      24.961  50.328  65.7030  0.00  0.00     0.000 O
ATOM     61   O  ASG B   4      27.176  51.268  66.3670  0.00  0.00     0.000 OA
ATOM     62   O  ASG B   4      25.814  52.437  64.8030  0.00  0.00     0.000 OA
ATOM     63   O  ASG B   4      25.046  52.177  67.0520  0.00  0.00     0.000 OA
ATOM     64   S  ASG B   4      25.860  51.630  65.9620  0.00  0.00     0.000 S
ENDBRANCH 52 60
ATOM     65   O  ASG B   4      25.359  49.835  70.1800  0.00  0.00     0.000 O
ATOM     67  HD  ASG B   4      24.579  50.196  70.2850  0.00  0.00     0.000 HD
ATOM     67   O  ASG B   4      25.359  49.835  70.1800  0.00  0.00     0.000 O
ATOM     69  HD  ASG B   4      24.579  50.196  70.2850  0.00  0.00     0.000 HD
ENDBRANCH 48 51
ENDBRANCH 35 48
ENDBRANCH 34 38
ENDBRANCH 15 34
ENDBRANCH 14 17
ENDBRANCH 1 14
TORSDOF 12
ENDMDL
MODEL 39
REMARK VINA RESULT:      -3.7      5.659     10.175
ROOT
ATOM      1  C1  GAD B   1      12.450  70.998  43.4920  0.00  0.00     0.000 C
ATOM      2  C2  GAD B   1      12.949  72.445  43.5370  0.00  0.00     0.000 C
ATOM      3  C3  GAD B   1      12.088  73.270  44.5010  0.00  0.00     0.000 C
ATOM      4  C4  GAD B   1      10.624  72.828  44.5810  0.00  0.00     0.000 C
ATOM      5  C5  GAD B   1      10.133  71.719  43.9930  0.00  0.00     0.000 C
ATOM      6  O5  GAD B   1      11.046  70.933  43.2040  0.00  0.00     0.000 O
ATOM      7   O  GAD B   1      14.388  72.509  43.8580  0.00  0.00     0.000 O
ATOM      9  HD  GAD B   1      14.327  71.670  43.6530  0.00  0.00     0.000 HD
ATOM      9   O  GAD B   1      12.065  74.666  44.1310  0.00  0.00     0.000 O
ATOM     11  HD  GAD B   1      12.004  73.827  43.9270  0.00  0.00     0.000 HD
ENDROOT
BRANCH 5 11
ATOM     11   C  GAD B   1       8.745  71.225  44.1510  0.00  0.00     0.000 C
ATOM     12   O  GAD B   1       8.357  70.328  43.3400  0.00  0.00     0.000 OA
ATOM     13   O  GAD B   1       7.965  71.757  45.0250  0.00  0.00     0.000 OA
ENDBRANCH 5 11
BRANCH 1 14
ATOM     14  O3  ASG B   2      12.700  70.148  42.4780  0.00  0.00     0.000 O
BRANCH 14 17
ATOM     15  C1  ASG B   2      10.842  67.999  39.9870  0.00  0.00     0.000 C
ATOM     16  C2  ASG B   2      11.710  68.300  41.2170  0.00  0.00     0.000 C
ATOM     17  C3  ASG B   2      11.898  69.815  41.3400  0.00  0.00     0.000 C
ATOM     18  C4  ASG B   2      12.546  70.360  40.0820  0.00  0.00     0.000 C
ATOM     19  C5  ASG B   2      11.721  69.935  38.8710  0.00  0.00     0.000 C
ATOM     20  O5  ASG B   2      11.550  68.504  38.8700  0.00  0.00     0.000 O
ATOM     21   C  ASG B   2      12.373  70.287  37.5730  0.00  0.00     0.000 C
ATOM     22   O  ASG B   2      11.669  69.680  36.5180  0.00  0.00     0.000 O
ATOM     24  HD  ASG B   2      11.336  69.374  35.7790  0.00  0.00     0.000 HD
BRANCH 16 26
ATOM     24   N  ASG B   2      11.223  67.706  42.4410  0.00  0.00     0.000 N
ATOM     26  HD  ASG B   2      11.054  67.366  41.6630  0.00  0.00     0.000 HD
ATOM     26   C  ASG B   2      12.020  67.262  43.4310  0.00  0.00     0.000 C
ATOM     27   C  ASG B   2      11.357  67.004  44.7400  0.00  0.00     0.000 C
ATOM     28   O  ASG B   2      13.219  67.082  43.2600  0.00  0.00     0.000 OA
ENDBRANCH 16 26
BRANCH 18 29
ATOM     29   O  ASG B   2      13.915  69.829  40.0540  0.00  0.00     0.000 O
ATOM     30   O  ASG B   2      14.878  71.809  38.9610  0.00  0.00     0.000 OA
ATOM     31   O  ASG B   2      15.287  71.408  41.3200  0.00  0.00     0.000 OA
ATOM     32   O  ASG B   2      16.294  69.972  39.6570  0.00  0.00     0.000 OA
ATOM     33   S  ASG B   2      15.165  70.837  39.9990  0.00  0.00     0.000 S
ENDBRANCH 18 29
BRANCH 15 34
ATOM     34  O4  ASG B   3      10.604  66.635  39.7870  0.00  0.00     0.000 O
BRANCH 34 38
ATOM     35  C1  GCT B   3       7.069  65.655  41.4910  0.00  0.00     0.000 C
ATOM     36  C2  GCT B   3       7.731  64.516  40.7480  0.00  0.00     0.000 C
ATOM     37  C3  GCT B   3       9.208  64.805  40.5170  0.00  0.00     0.000 C
ATOM     38  C4  GCT B   3       9.347  66.093  39.6980  0.00  0.00     0.000 C
ATOM     39  C5  GCT B   3       8.237  67.116  40.0320  0.00  0.00     0.000 C
ATOM     40  O5  GCT B   3       7.831  66.851  41.3630  0.00  0.00     0.000 O
ATOM     41   O  GCT B   3       7.576  63.361  41.5600  0.00  0.00     0.000 O
ATOM     43  HD  GCT B   3       6.899  62.841  41.7070  0.00  0.00     0.000 HD
ATOM     43   O  GCT B   3       9.804  63.661  39.8700  0.00  0.00     0.000 O
ATOM     45  HD  GCT B   3       9.128  63.141  40.0170  0.00  0.00     0.000 HD
BRANCH 39 45
ATOM     45   C  GCT B   3       7.018  67.172  39.1380  0.00  0.00     0.000 C
ATOM     46   O  GCT B   3       6.918  66.364  38.1620  0.00  0.00     0.000 OA
ATOM     47   O  GCT B   3       6.143  68.011  39.4070  0.00  0.00     0.000 OA
ENDBRANCH 39 45
BRANCH 35 48
ATOM     48  O3  ASG B   4       5.762  65.505  41.4430  0.00  0.00     0.000 O
BRANCH 48 51
ATOM     49  C1  ASG B   4       4.126  65.683  44.7570  0.00  0.00     0.000 C
ATOM     50  C2  ASG B   4       4.974  65.148  43.5910  0.00  0.00     0.000 C
ATOM     51  C3  ASG B   4       5.177  66.216  42.5200  0.00  0.00     0.000 C
ATOM     52  C4  ASG B   4       3.856  66.853  42.1200  0.00  0.00     0.000 C
ATOM     53  C5  ASG B   4       3.174  67.365  43.3860  0.00  0.00     0.000 C
ATOM     54  O5  ASG B   4       2.923  66.254  44.2690  0.00  0.00     0.000 O
BRANCH 50 57
ATOM     55   N  ASG B   4       5.844  64.775  44.6820  0.00  0.00     0.000 N
ATOM     57  HD  ASG B   4       5.484  64.007  44.8590  0.00  0.00     0.000 HD
ATOM     57   O  ASG B   4       5.591  62.570  44.3860  0.00  0.00     0.000 OA
ATOM     58   C  ASG B   4       6.171  63.503  44.9320  0.00  0.00     0.000 C
ATOM     59   C  ASG B   4       7.245  63.299  45.9550  0.00  0.00     0.000 C
ENDBRANCH 50 57
BRANCH 52 60
ATOM     60   O  ASG B   4       3.134  65.752  41.4310  0.00  0.00     0.000 O
ATOM     61   O  ASG B   4       2.870  67.068  39.3270  0.00  0.00     0.000 OA
ATOM     62   O  ASG B   4       2.174  64.793  39.3960  0.00  0.00     0.000 OA
ATOM     63   O  ASG B   4       1.043  66.400  40.7580  0.00  0.00     0.000 OA
ATOM     64   S  ASG B   4       2.291  66.016  40.0930  0.00  0.00     0.000 S
ENDBRANCH 52 60
ATOM     65   O  ASG B   4       1.463  68.816  44.3070  0.00  0.00     0.000 O
ATOM     67  HD  ASG B   4       1.196  68.176  44.8270  0.00  0.00     0.000 HD
ATOM     67   O  ASG B   4       1.463  68.816  44.3070  0.00  0.00     0.000 O
ATOM     69  HD  ASG B   4       1.196  68.176  44.8270  0.00  0.00     0.000 HD
ENDBRANCH 48 51
ENDBRANCH 35 48
ENDBRANCH 34 38
ENDBRANCH 15 34
ENDBRANCH 14 17
ENDBRANCH 1 14
TORSDOF 12
ENDMDL
MODEL 40
REMARK VINA RESULT:      -3.4     26.546     31.740
ROOT
ATOM      1  C1  GAD B   1      34.616  45.531  58.2100  0.00  0.00     0.000 C
ATOM      2  C2  GAD B   1      34.254  46.939  58.6910  0.00  0.00     0.000 C
ATOM      3  C3  GAD B   1      35.316  47.449  59.6730  0.00  0.00     0.000 C
ATOM      4  C4  GAD B   1      35.972  46.357  60.5230  0.00  0.00     0.000 C
ATOM      5  C5  GAD B   1      35.776  45.036  60.3440  0.00  0.00     0.000 C
ATOM      6  O5  GAD B   1      34.852  44.641  59.3120  0.00  0.00     0.000 O
ATOM      7   O  GAD B   1      34.037  47.856  57.5560  0.00  0.00     0.000 O
ATOM      9  HD  GAD B   1      34.003  47.101  57.1340  0.00  0.00     0.000 HD
ATOM      9   O  GAD B   1      34.762  48.404  60.6060  0.00  0.00     0.000 O
ATOM     11  HD  GAD B   1      34.727  47.648  60.1840  0.00  0.00     0.000 HD
ENDROOT
BRANCH 5 11
ATOM     11   C  GAD B   1      36.486  43.970  61.0890  0.00  0.00     0.000 C
ATOM     12   O  GAD B   1      37.058  44.308  62.1710  0.00  0.00     0.000 OA
ATOM     13   O  GAD B   1      36.571  42.785  60.5960  0.00  0.00     0.000 OA
ENDBRANCH 5 11
BRANCH 1 14
ATOM     14  O3  ASG B   2      33.728  44.661  57.6950  0.00  0.00     0.000 O
BRANCH 14 17
ATOM     15  C1  ASG B   2      30.238  44.471  56.2560  0.00  0.00     0.000 C
ATOM     16  C2  ASG B   2      31.364  44.195  57.2630  0.00  0.00     0.000 C
ATOM     17  C3  ASG B   2      32.645  44.886  56.7840  0.00  0.00     0.000 C
ATOM     18  C4  ASG B   2      33.023  44.377  55.4060  0.00  0.00     0.000 C
ATOM     19  C5  ASG B   2      31.835  44.554  54.4660  0.00  0.00     0.000 C
ATOM     20  O5  ASG B   2      30.666  43.922  55.0240  0.00  0.00     0.000 O
ATOM     21   C  ASG B   2      32.059  43.929  53.1260  0.00  0.00     0.000 C
ATOM     22   O  ASG B   2      30.856  43.945  52.3980  0.00  0.00     0.000 O
ATOM     24  HD  ASG B   2      30.196  43.889  51.8400  0.00  0.00     0.000 HD
BRANCH 16 26
ATOM     24   N  ASG B   2      31.567  43.392  58.4470  0.00  0.00     0.000 N
ATOM     26  HD  ASG B   2      32.184  43.497  57.8480  0.00  0.00     0.000 HD
ATOM     26   C  ASG B   2      31.483  43.868  59.7030  0.00  0.00     0.000 C
ATOM     27   C  ASG B   2      31.380  42.848  60.7850  0.00  0.00     0.000 C
ATOM     28   O  ASG B   2      31.492  45.070  59.9380  0.00  0.00     0.000 OA
ENDBRANCH 16 26
BRANCH 18 29
ATOM     29   O  ASG B   2      33.413  42.971  55.5740  0.00  0.00     0.000 O
ATOM     30   O  ASG B   2      35.133  43.028  53.8180  0.00  0.00     0.000 OA
ATOM     31   O  ASG B   2      35.789  42.985  56.1550  0.00  0.00     0.000 OA
ATOM     32   O  ASG B   2      34.788  41.031  55.1430  0.00  0.00     0.000 OA
ATOM     33   S  ASG B   2      34.885  42.490  55.1420  0.00  0.00     0.000 S
ENDBRANCH 18 29
BRANCH 15 34
ATOM     34  O4  ASG B   3      29.017  43.885  56.6060  0.00  0.00     0.000 O
BRANCH 34 38
ATOM     35  C1  GCT B   3      27.022  46.078  59.3590  0.00  0.00     0.000 C
ATOM     36  C2  GCT B   3      26.212  44.943  58.7700  0.00  0.00     0.000 C
ATOM     37  C3  GCT B   3      27.119  43.921  58.0990  0.00  0.00     0.000 C
ATOM     38  C4  GCT B   3      27.914  44.609  56.9830  0.00  0.00     0.000 C
ATOM     39  C5  GCT B   3      28.260  46.073  57.3350  0.00  0.00     0.000 C
ATOM     40  O5  GCT B   3      28.307  46.149  58.7490  0.00  0.00     0.000 O
ATOM     41   O  GCT B   3      25.511  44.346  59.8510  0.00  0.00     0.000 O
ATOM     43  HD  GCT B   3      24.806  44.589  60.2920  0.00  0.00     0.000 HD
ATOM     43   O  GCT B   3      26.305  42.830  57.6190  0.00  0.00     0.000 O
ATOM     45  HD  GCT B   3      25.600  43.074  58.0590  0.00  0.00     0.000 HD
BRANCH 39 45
ATOM     45   C  GCT B   3      27.364  47.171  56.8040  0.00  0.00     0.000 C
ATOM     46   O  GCT B   3      26.383  46.873  56.0520  0.00  0.00     0.000 OA
ATOM     47   O  GCT B   3      27.619  48.339  57.1420  0.00  0.00     0.000 OA
ENDBRANCH 39 45
BRANCH 35 48
ATOM     48  O3  ASG B   4      26.215  47.062  59.6920  0.00  0.00     0.000 O
BRANCH 48 51
ATOM     49  C1  ASG B   4      26.232  48.524  63.0900  0.00  0.00     0.000 C
ATOM     50  C2  ASG B   4      25.878  47.591  61.9210  0.00  0.00     0.000 C
ATOM     51  C3  ASG B   4      26.811  47.815  60.7340  0.00  0.00     0.000 C
ATOM     52  C4  ASG B   4      26.905  49.290  60.3780  0.00  0.00     0.000 C
ATOM     53  C5  ASG B   4      27.306  50.056  61.6360  0.00  0.00     0.000 C
ATOM     54  O5  ASG B   4      26.294  49.870  62.6450  0.00  0.00     0.000 O
BRANCH 50 57
ATOM     55   N  ASG B   4      25.991  46.356  62.6630  0.00  0.00     0.000 N
ATOM     57  HD  ASG B   4      25.252  46.422  63.1080  0.00  0.00     0.000 HD
ATOM     57   O  ASG B   4      23.784  46.085  62.9230  0.00  0.00     0.000 OA
ATOM     58   C  ASG B   4      24.922  45.638  63.0200  0.00  0.00     0.000 C
ATOM     59   C  ASG B   4      25.213  44.284  63.5910  0.00  0.00     0.000 C
ENDBRANCH 50 57
BRANCH 52 60
ATOM     60   O  ASG B   4      25.548  49.611  59.8650  0.00  0.00     0.000 O
ATOM     61   O  ASG B   4      26.424  51.258  58.2080  0.00  0.00     0.000 OA
ATOM     62   O  ASG B   4      24.107  50.710  58.2230  0.00  0.00     0.000 OA
ATOM     63   O  ASG B   4      25.052  51.833  60.1110  0.00  0.00     0.000 OA
ATOM     64   S  ASG B   4      25.279  50.923  58.9850  0.00  0.00     0.000 S
ENDBRANCH 52 60
ATOM     65   O  ASG B   4      28.189  52.126  62.5390  0.00  0.00     0.000 O
ATOM     67  HD  ASG B   4      27.566  52.133  63.1400  0.00  0.00     0.000 HD
ATOM     67   O  ASG B   4      28.189  52.126  62.5390  0.00  0.00     0.000 O
ATOM     69  HD  ASG B   4      27.566  52.133  63.1400  0.00  0.00     0.000 HD
ENDBRANCH 48 51
ENDBRANCH 35 48
ENDBRANCH 34 38
ENDBRANCH 15 34
ENDBRANCH 14 17
ENDBRANCH 1 14
TORSDOF 12
ENDMDL
MODEL 41
REMARK VINA RESULT:      -3.3     31.441     37.160
ROOT
ATOM      1  C1  GAD B   1      32.194  41.751  57.2240  0.00  0.00     0.000 C
ATOM      2  C2  GAD B   1      33.104  42.840  56.6480  0.00  0.00     0.000 C
ATOM      3  C3  GAD B   1      32.594  44.226  57.0610  0.00  0.00     0.000 C
ATOM      4  C4  GAD B   1      31.073  44.323  57.2140  0.00  0.00     0.000 C
ATOM      5  C5  GAD B   1      30.236  43.268  57.1560  0.00  0.00     0.000 C
ATOM      6  O5  GAD B   1      30.818  41.979  56.8850  0.00  0.00     0.000 O
ATOM      7   O  GAD B   1      34.514  42.615  57.0200  0.00  0.00     0.000 O
ATOM      9  HD  GAD B   1      34.192  41.835  57.2140  0.00  0.00     0.000 HD
ATOM      9   O  GAD B   1      32.964  45.237  56.0980  0.00  0.00     0.000 O
ATOM     11  HD  GAD B   1      32.642  44.457  56.2920  0.00  0.00     0.000 HD
ENDROOT
BRANCH 5 11
ATOM     11   C  GAD B   1      28.777  43.335  57.4090  0.00  0.00     0.000 C
ATOM     12   O  GAD B   1      28.107  44.146  56.6970  0.00  0.00     0.000 OA
ATOM     13   O  GAD B   1      28.255  42.653  58.3660  0.00  0.00     0.000 OA
ENDBRANCH 5 11
BRANCH 1 14
ATOM     14  O3  ASG B   2      32.111  40.501  56.7300  0.00  0.00     0.000 O
BRANCH 14 17
ATOM     15  C1  ASG B   2      31.623  38.357  53.6580  0.00  0.00     0.000 C
ATOM     16  C2  ASG B   2      31.398  38.817  55.1050  0.00  0.00     0.000 C
ATOM     17  C3  ASG B   2      32.288  40.031  55.3890  0.00  0.00     0.000 C
ATOM     18  C4  ASG B   2      33.744  39.670  55.1630  0.00  0.00     0.000 C
ATOM     19  C5  ASG B   2      33.904  39.101  53.7570  0.00  0.00     0.000 C
ATOM     20  O5  ASG B   2      32.990  38.003  53.5630  0.00  0.00     0.000 O
ATOM     21   C  ASG B   2      35.275  38.564  53.5020  0.00  0.00     0.000 C
ATOM     22   O  ASG B   2      35.284  37.871  52.2780  0.00  0.00     0.000 O
ATOM     24  HD  ASG B   2      35.436  37.421  51.5540  0.00  0.00     0.000 HD
BRANCH 16 26
ATOM     24   N  ASG B   2      30.018  39.079  55.4420  0.00  0.00     0.000 N
ATOM     26  HD  ASG B   2      30.244  38.531  54.8100  0.00  0.00     0.000 HD
ATOM     26   C  ASG B   2      29.480  38.838  56.6520  0.00  0.00     0.000 C
ATOM     27   C  ASG B   2      28.161  39.477  56.9220  0.00  0.00     0.000 C
ATOM     28   O  ASG B   2      30.045  38.134  57.4800  0.00  0.00     0.000 OA
ENDBRANCH 16 26
BRANCH 18 29
ATOM     29   O  ASG B   2      34.103  38.707  56.2120  0.00  0.00     0.000 O
ATOM     30   O  ASG B   2      36.437  39.457  56.3850  0.00  0.00     0.000 OA
ATOM     31   O  ASG B   2      34.849  40.030  58.1280  0.00  0.00     0.000 OA
ATOM     32   O  ASG B   2      35.580  37.741  57.8630  0.00  0.00     0.000 OA
ATOM     33   S  ASG B   2      35.324  39.024  57.2080  0.00  0.00     0.000 S
ENDBRANCH 18 29
BRANCH 15 34
ATOM     34  O4  ASG B   3      30.849  37.250  53.2930  0.00  0.00     0.000 O
BRANCH 34 38
ATOM     35  C1  GCT B   3      30.706  34.048  50.8260  0.00  0.00     0.000 C
ATOM     36  C2  GCT B   3      30.898  33.693  52.2840  0.00  0.00     0.000 C
ATOM     37  C3  GCT B   3      30.511  34.861  53.1810  0.00  0.00     0.000 C
ATOM     38  C4  GCT B   3      31.384  36.073  52.8340  0.00  0.00     0.000 C
ATOM     39  C5  GCT B   3      31.730  36.127  51.3290  0.00  0.00     0.000 C
ATOM     40  O5  GCT B   3      30.681  35.460  50.6490  0.00  0.00     0.000 O
ATOM     41   O  GCT B   3      30.059  32.576  52.5410  0.00  0.00     0.000 O
ATOM     43  HD  GCT B   3      30.138  31.735  52.3500  0.00  0.00     0.000 HD
ATOM     43   O  GCT B   3      30.645  34.448  54.5570  0.00  0.00     0.000 O
ATOM     45  HD  GCT B   3      30.724  33.607  54.3660  0.00  0.00     0.000 HD
BRANCH 39 45
ATOM     45   C  GCT B   3      33.059  35.564  50.8750  0.00  0.00     0.000 C
ATOM     46   O  GCT B   3      33.885  35.133  51.7390  0.00  0.00     0.000 OA
ATOM     47   O  GCT B   3      33.287  35.534  49.6550  0.00  0.00     0.000 OA
ENDBRANCH 39 45
BRANCH 35 48
ATOM     48  O3  ASG B   4      31.288  33.136  50.0760  0.00  0.00     0.000 O
BRANCH 48 51
ATOM     49  C1  ASG B   4      28.742  31.892  47.6980  0.00  0.00     0.000 C
ATOM     50  C2  ASG B   4      29.431  32.233  49.0300  0.00  0.00     0.000 C
ATOM     51  C3  ASG B   4      30.658  33.112  48.8070  0.00  0.00     0.000 C
ATOM     52  C4  ASG B   4      31.568  32.526  47.7400  0.00  0.00     0.000 C
ATOM     53  C5  ASG B   4      30.736  32.293  46.4820  0.00  0.00     0.000 C
ATOM     54  O5  ASG B   4      29.682  31.357  46.7800  0.00  0.00     0.000 O
BRANCH 50 57
ATOM     55   N  ASG B   4      29.512  30.859  49.4690  0.00  0.00     0.000 N
ATOM     57  HD  ASG B   4      29.177  30.971  50.2590  0.00  0.00     0.000 HD
ATOM     57   O  ASG B   4      27.808  31.016  50.9130  0.00  0.00     0.000 OA
ATOM     58   C  ASG B   4      28.620  30.324  50.3080  0.00  0.00     0.000 C
ATOM     59   C  ASG B   4      28.716  28.841  50.4960  0.00  0.00     0.000 C
ENDBRANCH 50 57
BRANCH 52 60
ATOM     60   O  ASG B   4      32.093  31.288  48.3710  0.00  0.00     0.000 O
ATOM     61   O  ASG B   4      34.379  32.249  48.6590  0.00  0.00     0.000 OA
ATOM     62   O  ASG B   4      33.873  30.103  49.5590  0.00  0.00     0.000 OA
ATOM     63   O  ASG B   4      33.845  30.408  47.1870  0.00  0.00     0.000 OA
ATOM     64   S  ASG B   4      33.668  31.023  48.5060  0.00  0.00     0.000 S
ENDBRANCH 52 60
ATOM     65   O  ASG B   4      30.765  31.891  44.0910  0.00  0.00     0.000 O
ATOM     67  HD  ASG B   4      30.183  31.258  44.1870  0.00  0.00     0.000 HD
ATOM     67   O  ASG B   4      30.765  31.891  44.0910  0.00  0.00     0.000 O
ATOM     69  HD  ASG B   4      30.183  31.258  44.1870  0.00  0.00     0.000 HD
ENDBRANCH 48 51
ENDBRANCH 35 48
ENDBRANCH 34 38
ENDBRANCH 15 34
ENDBRANCH 14 17
ENDBRANCH 1 14
TORSDOF 12
ENDMDL
MODEL 42
REMARK VINA RESULT:      -3.2     14.032     21.457
ROOT
ATOM      1  C1  GAD B   1      15.685  65.471  23.4470  0.00  0.00     0.000 C
ATOM      2  C2  GAD B   1      15.379  63.973  23.3510  0.00  0.00     0.000 C
ATOM      3  C3  GAD B   1      16.155  63.351  22.1840  0.00  0.00     0.000 C
ATOM      4  C4  GAD B   1      16.381  64.293  20.9980  0.00  0.00     0.000 C
ATOM      5  C5  GAD B   1      16.080  65.607  21.0040  0.00  0.00     0.000 C
ATOM      6  O5  GAD B   1      15.464  66.135  22.1940  0.00  0.00     0.000 O
ATOM      7   O  GAD B   1      15.631  63.289  24.6340  0.00  0.00     0.000 O
ATOM      9  HD  GAD B   1      15.627  64.110  24.9110  0.00  0.00     0.000 HD
ATOM      9   O  GAD B   1      15.474  62.193  21.6510  0.00  0.00     0.000 O
ATOM     11  HD  GAD B   1      15.471  63.013  21.9280  0.00  0.00     0.000 HD
ENDROOT
BRANCH 5 11
ATOM     11   C  GAD B   1      16.392  66.549  19.9040  0.00  0.00     0.000 C
ATOM     12   O  GAD B   1      16.015  66.215  18.7370  0.00  0.00     0.000 OA
ATOM     13   O  GAD B   1      17.085  67.607  20.1350  0.00  0.00     0.000 OA
ENDBRANCH 5 11
BRANCH 1 14
ATOM     14  O3  ASG B   2      14.886  66.363  24.0640  0.00  0.00     0.000 O
BRANCH 14 17
ATOM     15  C1  ASG B   2      12.069  66.479  26.5790  0.00  0.00     0.000 C
ATOM     16  C2  ASG B   2      12.729  66.585  25.1970  0.00  0.00     0.000 C
ATOM     17  C3  ASG B   2      14.224  66.280  25.3310  0.00  0.00     0.000 C
ATOM     18  C4  ASG B   2      14.865  67.249  26.3050  0.00  0.00     0.000 C
ATOM     19  C5  ASG B   2      14.103  67.205  27.6260  0.00  0.00     0.000 C
ATOM     20  O5  ASG B   2      12.701  67.447  27.3950  0.00  0.00     0.000 O
ATOM     21   C  ASG B   2      14.561  68.249  28.5940  0.00  0.00     0.000 C
ATOM     22   O  ASG B   2      13.681  68.286  29.6900  0.00  0.00     0.000 O
ATOM     24  HD  ASG B   2      13.230  68.417  30.4180  0.00  0.00     0.000 HD
BRANCH 16 26
ATOM     24   N  ASG B   2      12.233  65.727  24.1450  0.00  0.00     0.000 N
ATOM     26  HD  ASG B   2      11.782  65.880  24.8690  0.00  0.00     0.000 HD
ATOM     26   C  ASG B   2      12.014  66.136  22.8810  0.00  0.00     0.000 C
ATOM     27   C  ASG B   2      11.837  65.059  21.8660  0.00  0.00     0.000 C
ATOM     28   O  ASG B   2      11.965  67.324  22.5880  0.00  0.00     0.000 OA
ENDBRANCH 16 26
BRANCH 18 29
ATOM     29   O  ASG B   2      14.823  68.572  25.6670  0.00  0.00     0.000 O
ATOM     30   O  ASG B   2      16.959  69.325  26.6220  0.00  0.00     0.000 OA
ATOM     31   O  ASG B   2      16.827  68.722  24.2740  0.00  0.00     0.000 OA
ATOM     32   O  ASG B   2      15.738  70.727  25.0710  0.00  0.00     0.000 OA
ATOM     33   S  ASG B   2      16.189  69.373  25.3930  0.00  0.00     0.000 S
ENDBRANCH 18 29
BRANCH 15 34
ATOM     34  O4  ASG B   3      10.694  66.736  26.5660  0.00  0.00     0.000 O
BRANCH 34 38
ATOM     35  C1  GCT B   3       9.761  63.274  28.4400  0.00  0.00     0.000 C
ATOM     36  C2  GCT B   3       8.969  63.522  27.1740  0.00  0.00     0.000 C
ATOM     37  C3  GCT B   3       9.648  64.573  26.3080  0.00  0.00     0.000 C
ATOM     38  C4  GCT B   3       9.762  65.882  27.0990  0.00  0.00     0.000 C
ATOM     39  C5  GCT B   3       9.986  65.630  28.6070  0.00  0.00     0.000 C
ATOM     40  O5  GCT B   3      10.626  64.370  28.7160  0.00  0.00     0.000 O
ATOM     41   O  GCT B   3       8.910  62.280  26.4870  0.00  0.00     0.000 O
ATOM     43  HD  GCT B   3       8.436  61.567  26.6160  0.00  0.00     0.000 HD
ATOM     43   O  GCT B   3       8.893  64.720  25.0870  0.00  0.00     0.000 O
ATOM     45  HD  GCT B   3       8.419  64.006  25.2160  0.00  0.00     0.000 HD
BRANCH 39 45
ATOM     45   C  GCT B   3       8.786  65.662  29.5280  0.00  0.00     0.000 C
ATOM     46   O  GCT B   3       8.942  65.441  30.7700  0.00  0.00     0.000 OA
ATOM     47   O  GCT B   3       7.680  65.922  29.0270  0.00  0.00     0.000 OA
ENDBRANCH 39 45
BRANCH 35 48
ATOM     48  O3  ASG B   4       9.030  62.572  29.2800  0.00  0.00     0.000 O
BRANCH 48 51
ATOM     49  C1  ASG B   4       9.981  59.256  30.6170  0.00  0.00     0.000 C
ATOM     50  C2  ASG B   4       9.334  60.318  29.7120  0.00  0.00     0.000 C
ATOM     51  C3  ASG B   4       9.878  61.710  30.0190  0.00  0.00     0.000 C
ATOM     52  C4  ASG B   4       9.820  62.008  31.5090  0.00  0.00     0.000 C
ATOM     53  C5  ASG B   4      10.543  60.883  32.2450  0.00  0.00     0.000 C
ATOM     54  O5  ASG B   4       9.871  59.636  31.9790  0.00  0.00     0.000 O
BRANCH 50 57
ATOM     55   N  ASG B   4       9.703  59.669  28.4750  0.00  0.00     0.000 N
ATOM     57  HD  ASG B   4       9.109  59.039  28.4940  0.00  0.00     0.000 HD
ATOM     57   O  ASG B   4       7.664  58.830  28.0820  0.00  0.00     0.000 OA
ATOM     58   C  ASG B   4       8.806  59.057  27.6950  0.00  0.00     0.000 C
ATOM     59   C  ASG B   4       9.305  58.624  26.3510  0.00  0.00     0.000 C
ENDBRANCH 50 57
BRANCH 52 60
ATOM     60   O  ASG B   4       8.364  62.095  31.7890  0.00  0.00     0.000 O
ATOM     61   O  ASG B   4       8.689  63.735  33.6430  0.00  0.00     0.000 OA
ATOM     62   O  ASG B   4       6.487  63.153  32.9470  0.00  0.00     0.000 OA
ATOM     63   O  ASG B   4       7.877  61.479  33.9410  0.00  0.00     0.000 OA
ATOM     64   S  ASG B   4       7.815  62.718  33.1600  0.00  0.00     0.000 S
ENDBRANCH 52 60
ATOM     65   O  ASG B   4      11.585  60.174  34.3170  0.00  0.00     0.000 O
ATOM     67  HD  ASG B   4      11.161  59.420  34.2750  0.00  0.00     0.000 HD
ATOM     67   O  ASG B   4      11.585  60.174  34.3170  0.00  0.00     0.000 O
ATOM     69  HD  ASG B   4      11.161  59.420  34.2750  0.00  0.00     0.000 HD
ENDBRANCH 48 51
ENDBRANCH 35 48
ENDBRANCH 34 38
ENDBRANCH 15 34
ENDBRANCH 14 17
ENDBRANCH 1 14
TORSDOF 12
ENDMDL
MODEL 43
REMARK VINA RESULT:      -3.2      6.419     12.554
ROOT
ATOM      1  C1  GAD B   1       9.913  74.093  41.2700  0.00  0.00     0.000 C
ATOM      2  C2  GAD B   1      10.601  75.056  42.2420  0.00  0.00     0.000 C
ATOM      3  C3  GAD B   1       9.826  76.377  42.3120  0.00  0.00     0.000 C
ATOM      4  C4  GAD B   1       9.130  76.774  41.0070  0.00  0.00     0.000 C
ATOM      5  C5  GAD B   1       9.048  75.982  39.9190  0.00  0.00     0.000 C
ATOM      6  O5  GAD B   1       9.703  74.701  39.9860  0.00  0.00     0.000 O
ATOM      7   O  GAD B   1      10.794  74.435  43.5670  0.00  0.00     0.000 O
ATOM      9  HD  GAD B   1      10.620  73.724  43.1040  0.00  0.00     0.000 HD
ATOM      9   O  GAD B   1      10.691  77.482  42.6560  0.00  0.00     0.000 O
ATOM     11  HD  GAD B   1      10.517  76.772  42.1930  0.00  0.00     0.000 HD
ENDROOT
BRANCH 5 11
ATOM     11   C  GAD B   1       8.286  76.313  38.6920  0.00  0.00     0.000 C
ATOM     12   O  GAD B   1       8.226  75.416  37.7940  0.00  0.00     0.000 OA
ATOM     13   O  GAD B   1       7.791  77.489  38.5360  0.00  0.00     0.000 OA
ENDBRANCH 5 11
BRANCH 1 14
ATOM     14  O3  ASG B   2      10.531  73.053  40.6780  0.00  0.00     0.000 O
BRANCH 14 17
ATOM     15  C1  ASG B   2       9.653  69.878  38.8280  0.00  0.00     0.000 C
ATOM     16  C2  ASG B   2      10.139  70.733  40.0070  0.00  0.00     0.000 C
ATOM     17  C3  ASG B   2      10.090  72.211  39.6070  0.00  0.00     0.000 C
ATOM     18  C4  ASG B   2      10.955  72.446  38.3840  0.00  0.00     0.000 C
ATOM     19  C5  ASG B   2      10.522  71.490  37.2760  0.00  0.00     0.000 C
ATOM     20  O5  ASG B   2      10.546  70.132  37.7600  0.00  0.00     0.000 O
ATOM     21   C  ASG B   2      11.427  71.534  36.0870  0.00  0.00     0.000 C
ATOM     22   O  ASG B   2      11.094  70.487  35.2090  0.00  0.00     0.000 O
ATOM     24  HD  ASG B   2      11.000  69.897  34.5820  0.00  0.00     0.000 HD
BRANCH 16 26
ATOM     24   N  ASG B   2       9.423  70.632  41.2570  0.00  0.00     0.000 N
ATOM     26  HD  ASG B   2       9.345  70.039  40.6310  0.00  0.00     0.000 HD
ATOM     26   C  ASG B   2      10.018  70.553  42.4620  0.00  0.00     0.000 C
ATOM     27   C  ASG B   2       9.144  70.799  43.6430  0.00  0.00     0.000 C
ATOM     28   O  ASG B   2      11.210  70.294  42.5750  0.00  0.00     0.000 OA
ENDBRANCH 16 26
BRANCH 18 29
ATOM     29   O  ASG B   2      12.345  72.234  38.8090  0.00  0.00     0.000 O
ATOM     30   O  ASG B   2      13.275  73.961  37.3270  0.00  0.00     0.000 OA
ATOM     31   O  ASG B   2      13.116  74.370  39.7140  0.00  0.00     0.000 OA
ATOM     32   O  ASG B   2      14.703  72.756  38.8670  0.00  0.00     0.000 OA
ATOM     33   S  ASG B   2      13.417  73.423  38.6670  0.00  0.00     0.000 S
ENDBRANCH 18 29
BRANCH 15 34
ATOM     34  O4  ASG B   3       9.654  68.504  39.0930  0.00  0.00     0.000 O
BRANCH 34 38
ATOM     35  C1  GCT B   3       6.650  66.597  41.0170  0.00  0.00     0.000 C
ATOM     36  C2  GCT B   3       7.401  65.727  40.0330  0.00  0.00     0.000 C
ATOM     37  C3  GCT B   3       8.748  66.344  39.6830  0.00  0.00     0.000 C
ATOM     38  C4  GCT B   3       8.522  67.729  39.0650  0.00  0.00     0.000 C
ATOM     39  C5  GCT B   3       7.300  68.447  39.6820  0.00  0.00     0.000 C
ATOM     40  O5  GCT B   3       7.146  67.931  40.9920  0.00  0.00     0.000 O
ATOM     41   O  GCT B   3       7.585  64.469  40.6660  0.00  0.00     0.000 O
ATOM     43  HD  GCT B   3       7.047  63.805  40.8070  0.00  0.00     0.000 HD
ATOM     43   O  GCT B   3       9.450  65.444  38.8000  0.00  0.00     0.000 O
ATOM     45  HD  GCT B   3       8.912  64.780  38.9400  0.00  0.00     0.000 HD
BRANCH 39 45
ATOM     45   C  GCT B   3       5.976  68.365  38.9540  0.00  0.00     0.000 C
ATOM     46   O  GCT B   3       4.971  69.000  39.4060  0.00  0.00     0.000 OA
ATOM     47   O  GCT B   3       5.926  67.681  37.9190  0.00  0.00     0.000 OA
ENDBRANCH 39 45
BRANCH 35 48
ATOM     48  O3  ASG B   4       5.402  66.186  41.0970  0.00  0.00     0.000 O
BRANCH 48 51
ATOM     49  C1  ASG B   4       4.015  66.208  44.5270  0.00  0.00     0.000 C
ATOM     50  C2  ASG B   4       4.858  65.787  43.3120  0.00  0.00     0.000 C
ATOM     51  C3  ASG B   4       4.776  66.825  42.1960  0.00  0.00     0.000 C
ATOM     52  C4  ASG B   4       3.332  67.188  41.8870  0.00  0.00     0.000 C
ATOM     53  C5  ASG B   4       2.663  67.622  43.1880  0.00  0.00     0.000 C
ATOM     54  O5  ASG B   4       2.693  66.525  44.1220  0.00  0.00     0.000 O
BRANCH 50 57
ATOM     55   N  ASG B   4       4.524  64.467  42.8310  0.00  0.00     0.000 N
ATOM     57  HD  ASG B   4       5.289  64.092  42.9830  0.00  0.00     0.000 HD
ATOM     57   O  ASG B   4       6.007  63.406  44.1320  0.00  0.00     0.000 OA
ATOM     58   C  ASG B   4       5.055  63.359  43.3570  0.00  0.00     0.000 C
ATOM     59   C  ASG B   4       4.450  62.069  42.8990  0.00  0.00     0.000 C
ENDBRANCH 50 57
BRANCH 52 60
ATOM     60   O  ASG B   4       2.781  65.942  41.2930  0.00  0.00     0.000 O
ATOM     61   O  ASG B   4       2.498  66.987  39.0440  0.00  0.00     0.000 OA
ATOM     62   O  ASG B   4       2.058  64.665  39.3370  0.00  0.00     0.000 OA
ATOM     63   O  ASG B   4       0.674  66.264  40.4540  0.00  0.00     0.000 OA
ATOM     64   S  ASG B   4       1.996  65.961  39.8960  0.00  0.00     0.000 S
ENDBRANCH 52 60
ATOM     65   O  ASG B   4       0.784  68.771  44.2020  0.00  0.00     0.000 O
ATOM     67  HD  ASG B   4       0.682  68.118  44.7610  0.00  0.00     0.000 HD
ATOM     67   O  ASG B   4       0.784  68.771  44.2020  0.00  0.00     0.000 O
ATOM     69  HD  ASG B   4       0.682  68.118  44.7610  0.00  0.00     0.000 HD
ENDBRANCH 48 51
ENDBRANCH 35 48
ENDBRANCH 34 38
ENDBRANCH 15 34
ENDBRANCH 14 17
ENDBRANCH 1 14
TORSDOF 12
ENDMDL
MODEL 44
REMARK VINA RESULT:      -3.2     26.145     29.127
ROOT
ATOM      1  C1  GAD B   1      28.753  43.612  56.9840  0.00  0.00     0.000 C
ATOM      2  C2  GAD B   1      29.744  42.490  57.3090  0.00  0.00     0.000 C
ATOM      3  C3  GAD B   1      28.990  41.237  57.7680  0.00  0.00     0.000 C
ATOM      4  C4  GAD B   1      27.686  41.520  58.5190  0.00  0.00     0.000 C
ATOM      5  C5  GAD B   1      27.135  42.744  58.6480  0.00  0.00     0.000 C
ATOM      6  O5  GAD B   1      27.853  43.853  58.0760  0.00  0.00     0.000 O
ATOM      7   O  GAD B   1      30.651  42.228  56.1750  0.00  0.00     0.000 O
ATOM      9  HD  GAD B   1      30.335  42.995  55.9270  0.00  0.00     0.000 HD
ATOM      9   O  GAD B   1      29.795  40.427  58.6540  0.00  0.00     0.000 O
ATOM     11  HD  GAD B   1      29.478  41.194  58.4060  0.00  0.00     0.000 HD
ENDROOT
BRANCH 5 11
ATOM     11   C  GAD B   1      25.822  43.015  59.2790  0.00  0.00     0.000 C
ATOM     12   O  GAD B   1      25.481  42.261  60.2430  0.00  0.00     0.000 OA
ATOM     13   O  GAD B   1      25.050  43.925  58.8000  0.00  0.00     0.000 OA
ENDBRANCH 5 11
BRANCH 1 14
ATOM     14  O3  ASG B   2      29.078  44.918  56.9590  0.00  0.00     0.000 O
BRANCH 14 17
ATOM     15  C1  ASG B   2      28.907  47.923  54.6750  0.00  0.00     0.000 C
ATOM     16  C2  ASG B   2      29.577  46.789  55.4630  0.00  0.00     0.000 C
ATOM     17  C3  ASG B   2      28.502  45.993  56.2090  0.00  0.00     0.000 C
ATOM     18  C4  ASG B   2      27.732  46.910  57.1400  0.00  0.00     0.000 C
ATOM     19  C5  ASG B   2      27.187  48.089  56.3410  0.00  0.00     0.000 C
ATOM     20  O5  ASG B   2      28.259  48.741  55.6310  0.00  0.00     0.000 O
ATOM     21   C  ASG B   2      26.554  49.132  57.2060  0.00  0.00     0.000 C
ATOM     22   O  ASG B   2      26.272  50.272  56.4310  0.00  0.00     0.000 O
ATOM     24  HD  ASG B   2      26.042  51.030  56.0820  0.00  0.00     0.000 HD
BRANCH 16 26
ATOM     24   N  ASG B   2      30.448  45.965  54.6560  0.00  0.00     0.000 N
ATOM     26  HD  ASG B   2      30.302  46.799  54.4750  0.00  0.00     0.000 HD
ATOM     26   C  ASG B   2      31.555  45.358  55.1230  0.00  0.00     0.000 C
ATOM     27   C  ASG B   2      32.130  44.290  54.2590  0.00  0.00     0.000 C
ATOM     28   O  ASG B   2      32.056  45.669  56.1970  0.00  0.00     0.000 OA
ENDBRANCH 16 26
BRANCH 18 29
ATOM     29   O  ASG B   2      28.671  47.319  58.1930  0.00  0.00     0.000 O
ATOM     30   O  ASG B   2      26.932  47.653  59.8970  0.00  0.00     0.000 OA
ATOM     31   O  ASG B   2      28.392  45.718  60.0190  0.00  0.00     0.000 OA
ATOM     32   O  ASG B   2      29.273  47.927  60.4530  0.00  0.00     0.000 OA
ATOM     33   S  ASG B   2      28.275  47.129  59.7390  0.00  0.00     0.000 S
ENDBRANCH 18 29
BRANCH 15 34
ATOM     34  O4  ASG B   3      29.807  48.711  53.9500  0.00  0.00     0.000 O
BRANCH 34 38
ATOM     35  C1  GCT B   3      31.514  49.578  50.3860  0.00  0.00     0.000 C
ATOM     36  C2  GCT B   3      30.321  50.445  50.7250  0.00  0.00     0.000 C
ATOM     37  C3  GCT B   3      30.007  50.378  52.2120  0.00  0.00     0.000 C
ATOM     38  C4  GCT B   3      29.704  48.925  52.5980  0.00  0.00     0.000 C
ATOM     39  C5  GCT B   3      30.541  47.920  51.7750  0.00  0.00     0.000 C
ATOM     40  O5  GCT B   3      31.726  48.597  51.3950  0.00  0.00     0.000 O
ATOM     41   O  GCT B   3      30.668  51.772  50.3540  0.00  0.00     0.000 O
ATOM     43  HD  GCT B   3      30.709  52.168  49.5850  0.00  0.00     0.000 HD
ATOM     43   O  GCT B   3      28.910  51.273  52.4920  0.00  0.00     0.000 O
ATOM     45  HD  GCT B   3      28.950  51.669  51.7230  0.00  0.00     0.000 HD
BRANCH 39 45
ATOM     45   C  GCT B   3      29.911  47.290  50.5530  0.00  0.00     0.000 C
ATOM     46   O  GCT B   3      28.800  47.732  50.1210  0.00  0.00     0.000 OA
ATOM     47   O  GCT B   3      30.521  46.358  50.0030  0.00  0.00     0.000 OA
ENDBRANCH 39 45
BRANCH 35 48
ATOM     48  O3  ASG B   4      31.599  49.446  49.0800  0.00  0.00     0.000 O
BRANCH 48 51
ATOM     49  C1  ASG B   4      34.561  50.089  46.9570  0.00  0.00     0.000 C
ATOM     50  C2  ASG B   4      33.200  50.301  47.6420  0.00  0.00     0.000 C
ATOM     51  C3  ASG B   4      32.957  49.251  48.7230  0.00  0.00     0.000 C
ATOM     52  C4  ASG B   4      33.204  47.848  48.1940  0.00  0.00     0.000 C
ATOM     53  C5  ASG B   4      34.606  47.807  47.5940  0.00  0.00     0.000 C
ATOM     54  O5  ASG B   4      34.682  48.750  46.5070  0.00  0.00     0.000 O
BRANCH 50 57
ATOM     55   N  ASG B   4      33.288  51.654  48.1410  0.00  0.00     0.000 N
ATOM     57  HD  ASG B   4      33.260  52.060  47.3770  0.00  0.00     0.000 HD
ATOM     57   O  ASG B   4      32.213  52.571  46.4040  0.00  0.00     0.000 OA
ATOM     58   C  ASG B   4      32.691  52.681  47.5290  0.00  0.00     0.000 C
ATOM     59   C  ASG B   4      32.695  53.975  48.2820  0.00  0.00     0.000 C
ENDBRANCH 50 57
BRANCH 52 60
ATOM     60   O  ASG B   4      32.106  47.649  47.2130  0.00  0.00     0.000 O
ATOM     61   O  ASG B   4      32.132  45.168  47.4930  0.00  0.00     0.000 OA
ATOM     62   O  ASG B   4      30.468  46.189  46.1310  0.00  0.00     0.000 OA
ATOM     63   O  ASG B   4      32.761  46.321  45.4660  0.00  0.00     0.000 OA
ATOM     64   S  ASG B   4      31.809  46.208  46.5750  0.00  0.00     0.000 S
ENDBRANCH 52 60
ATOM     65   O  ASG B   4      36.438  46.405  46.8460  0.00  0.00     0.000 O
ATOM     67  HD  ASG B   4      36.508  46.877  46.1230  0.00  0.00     0.000 HD
ATOM     67   O  ASG B   4      36.438  46.405  46.8460  0.00  0.00     0.000 O
ATOM     69  HD  ASG B   4      36.508  46.877  46.1230  0.00  0.00     0.000 HD
ENDBRANCH 48 51
ENDBRANCH 35 48
ENDBRANCH 34 38
ENDBRANCH 15 34
ENDBRANCH 14 17
ENDBRANCH 1 14
TORSDOF 12
ENDMDL
MODEL 45
REMARK VINA RESULT:      -3.0      7.499     10.924
ROOT
ATOM      1  C1  GAD B   1      14.217  73.399  45.3370  0.00  0.00     0.000 C
ATOM      2  C2  GAD B   1      14.175  74.541  44.3170  0.00  0.00     0.000 C
ATOM      3  C3  GAD B   1      13.709  75.835  44.9940  0.00  0.00     0.000 C
ATOM      4  C4  GAD B   1      12.717  75.629  46.1430  0.00  0.00     0.000 C
ATOM      5  C5  GAD B   1      12.382  74.425  46.6490  0.00  0.00     0.000 C
ATOM      6  O5  GAD B   1      12.966  73.264  46.0290  0.00  0.00     0.000 O
ATOM      7   O  GAD B   1      15.470  74.692  43.6260  0.00  0.00     0.000 O
ATOM      9  HD  GAD B   1      15.587  73.907  43.9720  0.00  0.00     0.000 HD
ATOM      9   O  GAD B   1      13.056  76.720  44.0560  0.00  0.00     0.000 O
ATOM     11  HD  GAD B   1      13.173  75.934  44.4020  0.00  0.00     0.000 HD
ENDROOT
BRANCH 5 11
ATOM     11   C  GAD B   1      11.508  74.221  47.8280  0.00  0.00     0.000 C
ATOM     12   O  GAD B   1      10.694  73.246  47.7780  0.00  0.00     0.000 OA
ATOM     13   O  GAD B   1      11.536  75.055  48.8060  0.00  0.00     0.000 OA
ENDBRANCH 5 11
BRANCH 1 14
ATOM     14  O3  ASG B   2      14.177  72.094  45.0070  0.00  0.00     0.000 O
BRANCH 14 17
ATOM     15  C1  ASG B   2      12.069  69.015  45.5980  0.00  0.00     0.000 C
ATOM     16  C2  ASG B   2      13.296  69.929  45.7290  0.00  0.00     0.000 C
ATOM     17  C3  ASG B   2      13.059  71.204  44.9140  0.00  0.00     0.000 C
ATOM     18  C4  ASG B   2      12.808  70.851  43.4600  0.00  0.00     0.000 C
ATOM     19  C5  ASG B   2      11.664  69.845  43.3830  0.00  0.00     0.000 C
ATOM     20  O5  ASG B   2      11.949  68.708  44.2220  0.00  0.00     0.000 O
ATOM     21   C  ASG B   2      11.454  69.312  42.0010  0.00  0.00     0.000 C
ATOM     22   O  ASG B   2      10.538  68.246  42.0480  0.00  0.00     0.000 O
ATOM     24  HD  ASG B   2       9.993  67.584  41.9260  0.00  0.00     0.000 HD
BRANCH 16 26
ATOM     24   N  ASG B   2      13.677  70.215  47.0930  0.00  0.00     0.000 N
ATOM     26  HD  ASG B   2      13.255  69.491  46.8730  0.00  0.00     0.000 HD
ATOM     26   C  ASG B   2      14.948  70.392  47.4980  0.00  0.00     0.000 C
ATOM     27   C  ASG B   2      15.127  71.009  48.8420  0.00  0.00     0.000 C
ATOM     28   O  ASG B   2      15.898  70.064  46.7990  0.00  0.00     0.000 OA
ENDBRANCH 16 26
BRANCH 18 29
ATOM     29   O  ASG B   2      14.072  70.318  42.9360  0.00  0.00     0.000 O
ATOM     30   O  ASG B   2      13.717  71.163  40.6550  0.00  0.00     0.000 OA
ATOM     31   O  ASG B   2      15.334  72.242  42.1090  0.00  0.00     0.000 OA
ATOM     32   O  ASG B   2      15.773  70.027  41.2450  0.00  0.00     0.000 OA
ATOM     33   S  ASG B   2      14.758  70.999  41.6520  0.00  0.00     0.000 S
ENDBRANCH 18 29
BRANCH 15 34
ATOM     34  O4  ASG B   3      12.182  67.818  46.3140  0.00  0.00     0.000 O
BRANCH 34 38
ATOM     35  C1  GCT B   3       8.323  66.634  46.0460  0.00  0.00     0.000 C
ATOM     36  C2  GCT B   3       8.678  67.284  47.3660  0.00  0.00     0.000 C
ATOM     37  C3  GCT B   3       9.970  68.080  47.2480  0.00  0.00     0.000 C
ATOM     38  C4  GCT B   3      11.105  67.140  46.8240  0.00  0.00     0.000 C
ATOM     39  C5  GCT B   3      10.609  66.021  45.8800  0.00  0.00     0.000 C
ATOM     40  O5  GCT B   3       9.471  66.532  45.2090  0.00  0.00     0.000 O
ATOM     41   O  GCT B   3       7.597  68.145  47.6940  0.00  0.00     0.000 O
ATOM     43  HD  GCT B   3       6.806  67.989  48.0100  0.00  0.00     0.000 HD
ATOM     43   O  GCT B   3      10.224  68.734  48.5090  0.00  0.00     0.000 O
ATOM     45  HD  GCT B   3       9.433  68.578  48.8250  0.00  0.00     0.000 HD
BRANCH 39 45
ATOM     45   C  GCT B   3      10.273  64.672  46.4780  0.00  0.00     0.000 C
ATOM     46   O  GCT B   3      10.352  64.505  47.7360  0.00  0.00     0.000 OA
ATOM     47   O  GCT B   3       9.913  63.770  45.7030  0.00  0.00     0.000 OA
ENDBRANCH 39 45
BRANCH 35 48
ATOM     48  O3  ASG B   4       7.366  65.752  46.2390  0.00  0.00     0.000 O
BRANCH 48 51
ATOM     49  C1  ASG B   4       4.083  65.659  44.5360  0.00  0.00     0.000 C
ATOM     50  C2  ASG B   4       5.142  65.923  45.6190  0.00  0.00     0.000 C
ATOM     51  C3  ASG B   4       6.552  65.694  45.0810  0.00  0.00     0.000 C
ATOM     52  C4  ASG B   4       6.662  64.349  44.3820  0.00  0.00     0.000 C
ATOM     53  C5  ASG B   4       5.572  64.277  43.3160  0.00  0.00     0.000 C
ATOM     54  O5  ASG B   4       4.283  64.383  43.9520  0.00  0.00     0.000 O
BRANCH 50 57
ATOM     55   N  ASG B   4       4.767  67.280  45.9440  0.00  0.00     0.000 N
ATOM     57  HD  ASG B   4       4.043  67.098  46.3810  0.00  0.00     0.000 HD
ATOM     57   O  ASG B   4       3.636  66.730  47.7960  0.00  0.00     0.000 OA
ATOM     58   C  ASG B   4       4.125  67.593  47.0740  0.00  0.00     0.000 C
ATOM     59   C  ASG B   4       4.001  69.056  47.3650  0.00  0.00     0.000 C
ENDBRANCH 50 57
BRANCH 52 60
ATOM     60   O  ASG B   4       6.511  63.369  45.4880  0.00  0.00     0.000 O
ATOM     61   O  ASG B   4       7.944  61.671  44.3510  0.00  0.00     0.000 OA
ATOM     62   O  ASG B   4       7.150  61.265  46.5590  0.00  0.00     0.000 OA
ATOM     63   O  ASG B   4       5.578  61.408  44.7620  0.00  0.00     0.000 OA
ATOM     64   S  ASG B   4       6.882  61.823  45.2880  0.00  0.00     0.000 S
ENDBRANCH 52 60
ATOM     65   O  ASG B   4       4.779  63.159  41.3160  0.00  0.00     0.000 O
ATOM     67  HD  ASG B   4       3.983  63.113  41.6530  0.00  0.00     0.000 HD
ATOM     67   O  ASG B   4       4.779  63.159  41.3160  0.00  0.00     0.000 O
ATOM     69  HD  ASG B   4       3.983  63.113  41.6530  0.00  0.00     0.000 HD
ENDBRANCH 48 51
ENDBRANCH 35 48
ENDBRANCH 34 38
ENDBRANCH 15 34
ENDBRANCH 14 17
ENDBRANCH 1 14
TORSDOF 12
ENDMDL
MODEL 46
REMARK VINA RESULT:      -3.0      8.163     13.988
ROOT
ATOM      1  C1  GAD B   1      22.398  57.752  42.8400  0.00  0.00     0.000 C
ATOM      2  C2  GAD B   1      23.776  57.114  42.6400  0.00  0.00     0.000 C
ATOM      3  C3  GAD B   1      24.132  57.089  41.1490  0.00  0.00     0.000 C
ATOM      4  C4  GAD B   1      22.932  56.931  40.2110  0.00  0.00     0.000 C
ATOM      5  C5  GAD B   1      21.646  56.969  40.6130  0.00  0.00     0.000 C
ATOM      6  O5  GAD B   1      21.400  57.120  42.0240  0.00  0.00     0.000 O
ATOM      7   O  GAD B   1      24.803  57.783  43.4620  0.00  0.00     0.000 O
ATOM      9  HD  GAD B   1      24.091  58.092  43.8480  0.00  0.00     0.000 HD
ATOM      9   O  GAD B   1      25.030  56.000  40.8360  0.00  0.00     0.000 O
ATOM     11  HD  GAD B   1      24.319  56.309  41.2220  0.00  0.00     0.000 HD
ENDROOT
BRANCH 5 11
ATOM     11   C  GAD B   1      20.477  56.924  39.7030  0.00  0.00     0.000 C
ATOM     12   O  GAD B   1      20.212  55.806  39.1610  0.00  0.00     0.000 OA
ATOM     13   O  GAD B   1      19.830  58.001  39.4300  0.00  0.00     0.000 OA
ENDBRANCH 5 11
BRANCH 1 14
ATOM     14  O3  ASG B   2      21.631  57.559  43.9300  0.00  0.00     0.000 O
BRANCH 14 17
ATOM     15  C1  ASG B   2      18.815  55.410  45.2470  0.00  0.00     0.000 C
ATOM     16  C2  ASG B   2      19.505  56.702  44.7870  0.00  0.00     0.000 C
ATOM     17  C3  ASG B   2      20.944  56.382  44.3730  0.00  0.00     0.000 C
ATOM     18  C4  ASG B   2      21.693  55.763  45.5380  0.00  0.00     0.000 C
ATOM     19  C5  ASG B   2      20.912  54.555  46.0470  0.00  0.00     0.000 C
ATOM     20  O5  ASG B   2      19.557  54.939  46.3570  0.00  0.00     0.000 O
ATOM     21   C  ASG B   2      21.488  53.979  47.3000  0.00  0.00     0.000 C
ATOM     22   O  ASG B   2      20.603  53.017  47.8200  0.00  0.00     0.000 O
ATOM     24  HD  ASG B   2      20.162  52.407  48.2480  0.00  0.00     0.000 HD
BRANCH 16 26
ATOM     24   N  ASG B   2      19.381  58.137  44.6730  0.00  0.00     0.000 N
ATOM     26  HD  ASG B   2      20.150  57.741  44.7110  0.00  0.00     0.000 HD
ATOM     26   C  ASG B   2      18.773  58.762  43.6480  0.00  0.00     0.000 C
ATOM     27   C  ASG B   2      18.438  60.198  43.8610  0.00  0.00     0.000 C
ATOM     28   O  ASG B   2      18.511  58.179  42.6030  0.00  0.00     0.000 OA
ENDBRANCH 16 26
BRANCH 18 29
ATOM     29   O  ASG B   2      21.835  56.818  46.5500  0.00  0.00     0.000 O
ATOM     30   O  ASG B   2      23.992  55.995  47.3970  0.00  0.00     0.000 OA
ATOM     31   O  ASG B   2      23.912  57.995  46.0230  0.00  0.00     0.000 OA
ATOM     32   O  ASG B   2      23.020  58.034  48.2690  0.00  0.00     0.000 OA
ATOM     33   S  ASG B   2      23.296  57.228  47.0800  0.00  0.00     0.000 S
ENDBRANCH 18 29
BRANCH 15 34
ATOM     34  O4  ASG B   3      17.486  55.593  45.6440  0.00  0.00     0.000 O
BRANCH 34 38
ATOM     35  C1  GCT B   3      14.631  57.844  47.4170  0.00  0.00     0.000 C
ATOM     36  C2  GCT B   3      14.869  58.186  45.9620  0.00  0.00     0.000 C
ATOM     37  C3  GCT B   3      15.604  57.057  45.2540  0.00  0.00     0.000 C
ATOM     38  C4  GCT B   3      16.952  56.820  45.9470  0.00  0.00     0.000 C
ATOM     39  C5  GCT B   3      16.872  57.070  47.4700  0.00  0.00     0.000 C
ATOM     40  O5  GCT B   3      15.529  56.828  47.8500  0.00  0.00     0.000 O
ATOM     41   O  GCT B   3      13.589  58.382  45.3790  0.00  0.00     0.000 O
ATOM     43  HD  GCT B   3      13.028  59.041  45.4180  0.00  0.00     0.000 HD
ATOM     43   O  GCT B   3      15.743  57.402  43.8600  0.00  0.00     0.000 O
ATOM     45  HD  GCT B   3      15.182  58.061  43.8990  0.00  0.00     0.000 HD
BRANCH 39 45
ATOM     45   C  GCT B   3      17.308  58.419  48.0010  0.00  0.00     0.000 C
ATOM     46   O  GCT B   3      17.215  58.663  49.2450  0.00  0.00     0.000 OA
ATOM     47   O  GCT B   3      17.758  59.242  47.1880  0.00  0.00     0.000 OA
ENDBRANCH 39 45
BRANCH 35 48
ATOM     48  O3  ASG B   4      14.240  58.924  48.0590  0.00  0.00     0.000 O
BRANCH 48 51
ATOM     49  C1  ASG B   4      10.937  60.174  49.1620  0.00  0.00     0.000 C
ATOM     50  C2  ASG B   4      12.311  60.136  48.4740  0.00  0.00     0.000 C
ATOM     51  C3  ASG B   4      12.911  58.734  48.5150  0.00  0.00     0.000 C
ATOM     52  C4  ASG B   4      12.877  58.161  49.9220  0.00  0.00     0.000 C
ATOM     53  C5  ASG B   4      11.439  58.236  50.4300  0.00  0.00     0.000 C
ATOM     54  O5  ASG B   4      11.022  59.615  50.4630  0.00  0.00     0.000 O
BRANCH 50 57
ATOM     55   N  ASG B   4      13.519  60.926  48.5580  0.00  0.00     0.000 N
ATOM     57  HD  ASG B   4      13.369  61.437  47.8750  0.00  0.00     0.000 HD
ATOM     57   O  ASG B   4      12.637  62.731  47.5670  0.00  0.00     0.000 OA
ATOM     58   C  ASG B   4      13.558  62.210  48.1890  0.00  0.00     0.000 C
ATOM     59   C  ASG B   4      14.816  62.945  48.5360  0.00  0.00     0.000 C
ENDBRANCH 50 57
BRANCH 52 60
ATOM     60   O  ASG B   4      13.840  59.012  50.6680  0.00  0.00     0.000 O
ATOM     61   O  ASG B   4      14.962  57.045  51.7190  0.00  0.00     0.000 OA
ATOM     62   O  ASG B   4      15.840  59.232  52.0590  0.00  0.00     0.000 OA
ATOM     63   O  ASG B   4      13.678  58.695  52.9300  0.00  0.00     0.000 OA
ATOM     64   S  ASG B   4      14.686  58.431  51.8990  0.00  0.00     0.000 S
ENDBRANCH 52 60
ATOM     65   O  ASG B   4       9.837  57.444  52.0690  0.00  0.00     0.000 O
ATOM     67  HD  ASG B   4       9.572  58.257  52.2070  0.00  0.00     0.000 HD
ATOM     67   O  ASG B   4       9.837  57.444  52.0690  0.00  0.00     0.000 O
ATOM     69  HD  ASG B   4       9.572  58.257  52.2070  0.00  0.00     0.000 HD
ENDBRANCH 48 51
ENDBRANCH 35 48
ENDBRANCH 34 38
ENDBRANCH 15 34
ENDBRANCH 14 17
ENDBRANCH 1 14
TORSDOF 12
ENDMDL
MODEL 47
REMARK VINA RESULT:      -2.9     21.639     29.062
ROOT
ATOM      1  C1  GAD B   1      34.840  46.122  57.8620  0.00  0.00     0.000 C
ATOM      2  C2  GAD B   1      35.451  47.446  57.3910  0.00  0.00     0.000 C
ATOM      3  C3  GAD B   1      36.594  47.861  58.3260  0.00  0.00     0.000 C
ATOM      4  C4  GAD B   1      36.408  47.432  59.7850  0.00  0.00     0.000 C
ATOM      5  C5  GAD B   1      35.420  46.624  60.2180  0.00  0.00     0.000 C
ATOM      6  O5  GAD B   1      34.457  46.180  59.2440  0.00  0.00     0.000 O
ATOM      7   O  GAD B   1      35.867  47.375  55.9770  0.00  0.00     0.000 O
ATOM      9  HD  GAD B   1      35.362  46.671  56.0110  0.00  0.00     0.000 HD
ATOM      9   O  GAD B   1      36.767  49.295  58.3490  0.00  0.00     0.000 O
ATOM     11  HD  GAD B   1      36.263  48.592  58.3830  0.00  0.00     0.000 HD
ENDROOT
BRANCH 5 11
ATOM     11   C  GAD B   1      35.292  46.118  61.6050  0.00  0.00     0.000 C
ATOM     12   O  GAD B   1      36.261  46.351  62.3940  0.00  0.00     0.000 OA
ATOM     13   O  GAD B   1      34.274  45.409  61.9430  0.00  0.00     0.000 OA
ENDBRANCH 5 11
BRANCH 1 14
ATOM     14  O3  ASG B   2      33.603  45.707  57.5330  0.00  0.00     0.000 O
BRANCH 14 17
ATOM     15  C1  ASG B   2      30.635  46.528  55.3430  0.00  0.00     0.000 C
ATOM     16  C2  ASG B   2      31.396  46.299  56.6560  0.00  0.00     0.000 C
ATOM     17  C3  ASG B   2      32.848  45.928  56.3360  0.00  0.00     0.000 C
ATOM     18  C4  ASG B   2      32.886  44.683  55.4720  0.00  0.00     0.000 C
ATOM     19  C5  ASG B   2      32.017  44.906  54.2380  0.00  0.00     0.000 C
ATOM     20  O5  ASG B   2      30.690  45.304  54.6350  0.00  0.00     0.000 O
ATOM     21   C  ASG B   2      31.861  43.671  53.4090  0.00  0.00     0.000 C
ATOM     22   O  ASG B   2      30.886  43.895  52.4200  0.00  0.00     0.000 O
ATOM     24  HD  ASG B   2      30.317  43.891  51.7670  0.00  0.00     0.000 HD
BRANCH 16 26
ATOM     24   N  ASG B   2      31.117  46.222  58.0720  0.00  0.00     0.000 N
ATOM     26  HD  ASG B   2      31.703  45.713  57.6880  0.00  0.00     0.000 HD
ATOM     26   C  ASG B   2      31.283  47.247  58.9280  0.00  0.00     0.000 C
ATOM     27   C  ASG B   2      30.631  47.101  60.2600  0.00  0.00     0.000 C
ATOM     28   O  ASG B   2      31.933  48.241  58.6260  0.00  0.00     0.000 OA
ENDBRANCH 16 26
BRANCH 18 29
ATOM     29   O  ASG B   2      32.409  43.577  56.3130  0.00  0.00     0.000 O
ATOM     30   O  ASG B   2      33.844  41.885  55.2540  0.00  0.00     0.000 OA
ATOM     31   O  ASG B   2      34.375  42.706  57.4760  0.00  0.00     0.000 OA
ATOM     32   O  ASG B   2      32.435  41.305  57.1350  0.00  0.00     0.000 OA
ATOM     33   S  ASG B   2      33.344  42.292  56.5540  0.00  0.00     0.000 S
ENDBRANCH 18 29
BRANCH 15 34
ATOM     34  O4  ASG B   3      29.293  46.879  55.5250  0.00  0.00     0.000 O
BRANCH 34 38
ATOM     35  C1  GCT B   3      26.349  49.581  56.1520  0.00  0.00     0.000 C
ATOM     36  C2  GCT B   3      27.480  50.092  55.2870  0.00  0.00     0.000 C
ATOM     37  C3  GCT B   3      28.306  48.938  54.7370  0.00  0.00     0.000 C
ATOM     38  C4  GCT B   3      28.886  48.132  55.9060  0.00  0.00     0.000 C
ATOM     39  C5  GCT B   3      27.929  48.099  57.1190  0.00  0.00     0.000 C
ATOM     40  O5  GCT B   3      26.618  48.258  56.6050  0.00  0.00     0.000 O
ATOM     41   O  GCT B   3      26.878  50.817  54.2240  0.00  0.00     0.000 O
ATOM     43  HD  GCT B   3      26.524  51.607  54.1870  0.00  0.00     0.000 HD
ATOM     43   O  GCT B   3      29.324  49.475  53.8670  0.00  0.00     0.000 O
ATOM     45  HD  GCT B   3      28.970  50.264  53.8300  0.00  0.00     0.000 HD
BRANCH 39 45
ATOM     45   C  GCT B   3      28.151  49.094  58.2380  0.00  0.00     0.000 C
ATOM     46   O  GCT B   3      29.097  49.938  58.1480  0.00  0.00     0.000 OA
ATOM     47   O  GCT B   3      27.378  49.053  59.2090  0.00  0.00     0.000 OA
ENDBRANCH 39 45
BRANCH 35 48
ATOM     48  O3  ASG B   4      25.821  50.586  56.8180  0.00  0.00     0.000 O
BRANCH 48 51
ATOM     49  C1  ASG B   4      22.246  50.157  55.9680  0.00  0.00     0.000 C
ATOM     50  C2  ASG B   4      23.771  50.252  55.7950  0.00  0.00     0.000 C
ATOM     51  C3  ASG B   4      24.480  50.268  57.1470  0.00  0.00     0.000 C
ATOM     52  C4  ASG B   4      23.869  51.304  58.0760  0.00  0.00     0.000 C
ATOM     53  C5  ASG B   4      22.369  51.035  58.1660  0.00  0.00     0.000 C
ATOM     54  O5  ASG B   4      21.787  51.166  56.8540  0.00  0.00     0.000 O
BRANCH 50 57
ATOM     55   N  ASG B   4      23.393  51.306  54.8820  0.00  0.00     0.000 N
ATOM     57  HD  ASG B   4      23.973  51.135  54.2620  0.00  0.00     0.000 HD
ATOM     57   O  ASG B   4      24.100  50.235  53.0470  0.00  0.00     0.000 OA
ATOM     58   C  ASG B   4      23.492  51.171  53.5560  0.00  0.00     0.000 C
ATOM     59   C  ASG B   4      22.862  52.262  52.7450  0.00  0.00     0.000 C
ENDBRANCH 50 57
BRANCH 52 60
ATOM     60   O  ASG B   4      24.228  52.597  57.4400  0.00  0.00     0.000 O
ATOM     61   O  ASG B   4      25.871  53.169  59.2300  0.00  0.00     0.000 OA
ATOM     62   O  ASG B   4      25.659  54.578  57.3220  0.00  0.00     0.000 OA
ATOM     63   O  ASG B   4      23.814  54.370  58.8290  0.00  0.00     0.000 OA
ATOM     64   S  ASG B   4      25.005  53.739  58.2530  0.00  0.00     0.000 S
ENDBRANCH 52 60
ATOM     65   O  ASG B   4      20.319  51.439  59.3960  0.00  0.00     0.000 O
ATOM     67  HD  ASG B   4      19.904  51.606  58.6550  0.00  0.00     0.000 HD
ATOM     67   O  ASG B   4      20.319  51.439  59.3960  0.00  0.00     0.000 O
ATOM     69  HD  ASG B   4      19.904  51.606  58.6550  0.00  0.00     0.000 HD
ENDBRANCH 48 51
ENDBRANCH 35 48
ENDBRANCH 34 38
ENDBRANCH 15 34
ENDBRANCH 14 17
ENDBRANCH 1 14
TORSDOF 12
ENDMDL
MODEL 48
REMARK VINA RESULT:      -2.8     13.152     18.416
ROOT
ATOM      1  C1  GAD B   1      23.878  60.274  44.1730  0.00  0.00     0.000 C
ATOM      2  C2  GAD B   1      24.991  60.380  43.1250  0.00  0.00     0.000 C
ATOM      3  C3  GAD B   1      24.845  61.684  42.3320  0.00  0.00     0.000 C
ATOM      4  C4  GAD B   1      23.400  62.159  42.1510  0.00  0.00     0.000 C
ATOM      5  C5  GAD B   1      22.335  61.595  42.7540  0.00  0.00     0.000 C
ATOM      6  O5  GAD B   1      22.581  60.443  43.5830  0.00  0.00     0.000 O
ATOM      7   O  GAD B   1      26.324  60.230  43.7390  0.00  0.00     0.000 O
ATOM      9  HD  GAD B   1      25.836  59.929  44.3880  0.00  0.00     0.000 HD
ATOM      9   O  GAD B   1      25.396  61.562  41.0020  0.00  0.00     0.000 O
ATOM     11  HD  GAD B   1      24.908  61.260  41.6510  0.00  0.00     0.000 HD
ENDROOT
BRANCH 5 11
ATOM     11   C  GAD B   1      20.948  62.110  42.6700  0.00  0.00     0.000 C
ATOM     12   O  GAD B   1      20.357  61.991  41.5510  0.00  0.00     0.000 OA
ATOM     13   O  GAD B   1      20.423  62.718  43.6740  0.00  0.00     0.000 OA
ENDBRANCH 5 11
BRANCH 1 14
ATOM     14  O3  ASG B   2      23.477  59.115  44.7290  0.00  0.00     0.000 O
BRANCH 14 17
ATOM     15  C1  ASG B   2      20.423  56.901  44.9500  0.00  0.00     0.000 C
ATOM     16  C2  ASG B   2      21.493  57.881  45.4530  0.00  0.00     0.000 C
ATOM     17  C3  ASG B   2      22.459  58.199  44.3090  0.00  0.00     0.000 C
ATOM     18  C4  ASG B   2      23.100  56.922  43.8010  0.00  0.00     0.000 C
ATOM     19  C5  ASG B   2      22.005  55.928  43.4290  0.00  0.00     0.000 C
ATOM     20  O5  ASG B   2      21.114  55.734  44.5450  0.00  0.00     0.000 O
ATOM     21   C  ASG B   2      22.542  54.579  43.0740  0.00  0.00     0.000 C
ATOM     22   O  ASG B   2      21.476  53.670  42.9530  0.00  0.00     0.000 O
ATOM     24  HD  ASG B   2      20.927  53.009  42.8430  0.00  0.00     0.000 HD
BRANCH 16 26
ATOM     24   N  ASG B   2      21.967  58.519  46.6600  0.00  0.00     0.000 N
ATOM     26  HD  ASG B   2      22.497  58.315  46.0060  0.00  0.00     0.000 HD
ATOM     26   C  ASG B   2      21.542  59.721  47.0920  0.00  0.00     0.000 C
ATOM     27   C  ASG B   2      21.873  60.063  48.5040  0.00  0.00     0.000 C
ATOM     28   O  ASG B   2      20.921  60.485  46.3640  0.00  0.00     0.000 OA
ENDBRANCH 16 26
BRANCH 18 29
ATOM     29   O  ASG B   2      23.969  56.434  44.8810  0.00  0.00     0.000 O
ATOM     30   O  ASG B   2      25.636  55.447  43.3680  0.00  0.00     0.000 OA
ATOM     31   O  ASG B   2      26.141  57.507  44.5490  0.00  0.00     0.000 OA
ATOM     32   O  ASG B   2      25.978  55.424  45.7660  0.00  0.00     0.000 OA
ATOM     33   S  ASG B   2      25.534  56.198  44.6060  0.00  0.00     0.000 S
ENDBRANCH 18 29
BRANCH 15 34
ATOM     34  O4  ASG B   3      19.482  56.548  45.9230  0.00  0.00     0.000 O
BRANCH 34 38
ATOM     35  C1  GCT B   3      18.808  55.294  49.7090  0.00  0.00     0.000 C
ATOM     36  C2  GCT B   3      18.656  56.788  49.5190  0.00  0.00     0.000 C
ATOM     37  C3  GCT B   3      18.488  57.132  48.0460  0.00  0.00     0.000 C
ATOM     38  C4  GCT B   3      19.718  56.644  47.2710  0.00  0.00     0.000 C
ATOM     39  C5  GCT B   3      20.297  55.339  47.8640  0.00  0.00     0.000 C
ATOM     40  O5  GCT B   3      19.221  54.671  48.4980  0.00  0.00     0.000 O
ATOM     41   O  GCT B   3      17.501  57.172  50.2500  0.00  0.00     0.000 O
ATOM     43  HD  GCT B   3      17.361  57.289  51.0970  0.00  0.00     0.000 HD
ATOM     43   O  GCT B   3      18.279  58.555  47.9280  0.00  0.00     0.000 O
ATOM     45  HD  GCT B   3      18.140  58.672  48.7740  0.00  0.00     0.000 HD
BRANCH 39 45
ATOM     45   C  GCT B   3      21.460  55.440  48.8260  0.00  0.00     0.000 C
ATOM     46   O  GCT B   3      21.866  56.585  49.2010  0.00  0.00     0.000 OA
ATOM     47   O  GCT B   3      21.971  54.382  49.2290  0.00  0.00     0.000 OA
ENDBRANCH 39 45
BRANCH 35 48
ATOM     48  O3  ASG B   4      19.211  55.051  50.9380  0.00  0.00     0.000 O
BRANCH 48 51
ATOM     49  C1  ASG B   4      17.704  52.896  53.5410  0.00  0.00     0.000 C
ATOM     50  C2  ASG B   4      18.157  54.165  52.7990  0.00  0.00     0.000 C
ATOM     51  C3  ASG B   4      18.626  53.839  51.3840  0.00  0.00     0.000 C
ATOM     52  C4  ASG B   4      19.629  52.698  51.3850  0.00  0.00     0.000 C
ATOM     53  C5  ASG B   4      19.001  51.515  52.1180  0.00  0.00     0.000 C
ATOM     54  O5  ASG B   4      18.712  51.901  53.4760  0.00  0.00     0.000 O
BRANCH 50 57
ATOM     55   N  ASG B   4      17.032  55.071  52.8030  0.00  0.00     0.000 N
ATOM     57  HD  ASG B   4      17.017  55.233  53.6540  0.00  0.00     0.000 HD
ATOM     57   O  ASG B   4      17.681  56.178  54.6380  0.00  0.00     0.000 OA
ATOM     58   C  ASG B   4      16.934  56.084  53.6700  0.00  0.00     0.000 C
ATOM     59   C  ASG B   4      15.825  57.055  53.4080  0.00  0.00     0.000 C
ENDBRANCH 50 57
BRANCH 52 60
ATOM     60   O  ASG B   4      20.818  53.281  52.0580  0.00  0.00     0.000 O
ATOM     61   O  ASG B   4      22.373  51.618  51.0340  0.00  0.00     0.000 OA
ATOM     62   O  ASG B   4      23.244  53.403  52.3460  0.00  0.00     0.000 OA
ATOM     63   O  ASG B   4      21.873  51.748  53.3940  0.00  0.00     0.000 OA
ATOM     64   S  ASG B   4      22.198  52.471  52.1610  0.00  0.00     0.000 S
ENDBRANCH 52 60
ATOM     65   O  ASG B   4      19.091  49.129  52.5430  0.00  0.00     0.000 O
ATOM     67  HD  ASG B   4      18.994  49.274  53.3910  0.00  0.00     0.000 HD
ATOM     67   O  ASG B   4      19.091  49.129  52.5430  0.00  0.00     0.000 O
ATOM     69  HD  ASG B   4      18.994  49.274  53.3910  0.00  0.00     0.000 HD
ENDBRANCH 48 51
ENDBRANCH 35 48
ENDBRANCH 34 38
ENDBRANCH 15 34
ENDBRANCH 14 17
ENDBRANCH 1 14
TORSDOF 12
ENDMDL
MODEL 49
REMARK VINA RESULT:      -2.5     28.395     35.071
ROOT
ATOM      1  C1  GAD B   1      39.040  41.222  57.6880  0.00  0.00     0.000 C
ATOM      2  C2  GAD B   1      40.115  40.465  56.9020  0.00  0.00     0.000 C
ATOM      3  C3  GAD B   1      41.095  41.455  56.2630  0.00  0.00     0.000 C
ATOM      4  C4  GAD B   1      40.473  42.794  55.8580  0.00  0.00     0.000 C
ATOM      5  C5  GAD B   1      39.215  43.169  56.1640  0.00  0.00     0.000 C
ATOM      6  O5  GAD B   1      38.400  42.220  56.8780  0.00  0.00     0.000 O
ATOM      7   O  GAD B   1      40.787  39.458  57.7450  0.00  0.00     0.000 O
ATOM      9  HD  GAD B   1      40.097  39.618  58.2420  0.00  0.00     0.000 HD
ATOM      9   O  GAD B   1      41.692  40.913  55.0630  0.00  0.00     0.000 O
ATOM     11  HD  GAD B   1      41.001  41.073  55.5610  0.00  0.00     0.000 HD
ENDROOT
BRANCH 5 11
ATOM     11   C  GAD B   1      38.637  44.502  55.8710  0.00  0.00     0.000 C
ATOM     12   O  GAD B   1      37.579  44.821  56.4980  0.00  0.00     0.000 OA
ATOM     13   O  GAD B   1      39.158  45.246  54.9600  0.00  0.00     0.000 OA
ENDBRANCH 5 11
BRANCH 1 14
ATOM     14  O3  ASG B   2      37.838  40.706  58.0060  0.00  0.00     0.000 O
BRANCH 14 17
ATOM     15  C1  ASG B   2      34.179  41.132  57.1640  0.00  0.00     0.000 C
ATOM     16  C2  ASG B   2      35.443  41.210  58.0310  0.00  0.00     0.000 C
ATOM     17  C3  ASG B   2      36.630  40.652  57.2390  0.00  0.00     0.000 C
ATOM     18  C4  ASG B   2      36.350  39.218  56.8290  0.00  0.00     0.000 C
ATOM     19  C5  ASG B   2      35.023  39.164  56.0780  0.00  0.00     0.000 C
ATOM     20  O5  ASG B   2      33.981  39.760  56.8750  0.00  0.00     0.000 O
ATOM     21   C  ASG B   2      34.584  37.767  55.7790  0.00  0.00     0.000 C
ATOM     22   O  ASG B   2      33.268  37.788  55.2840  0.00  0.00     0.000 O
ATOM     24  HD  ASG B   2      32.473  37.652  54.9680  0.00  0.00     0.000 HD
BRANCH 16 26
ATOM     24   N  ASG B   2      35.712  42.526  58.5650  0.00  0.00     0.000 N
ATOM     26  HD  ASG B   2      34.911  42.262  58.3640  0.00  0.00     0.000 HD
ATOM     26   C  ASG B   2      36.279  42.750  59.7640  0.00  0.00     0.000 C
ATOM     27   C  ASG B   2      36.788  44.130  60.0010  0.00  0.00     0.000 C
ATOM     28   O  ASG B   2      36.369  41.867  60.6090  0.00  0.00     0.000 OA
ENDBRANCH 16 26
BRANCH 18 29
ATOM     29   O  ASG B   2      36.337  38.426  58.0660  0.00  0.00     0.000 O
ATOM     30   O  ASG B   2      37.234  36.393  57.0130  0.00  0.00     0.000 OA
ATOM     31   O  ASG B   2      38.650  37.735  58.4580  0.00  0.00     0.000 OA
ATOM     32   O  ASG B   2      36.818  36.468  59.3980  0.00  0.00     0.000 OA
ATOM     33   S  ASG B   2      37.337  37.178  58.2290  0.00  0.00     0.000 S
ENDBRANCH 18 29
BRANCH 15 34
ATOM     34  O4  ASG B   3      33.033  41.625  57.7960  0.00  0.00     0.000 O
BRANCH 34 38
ATOM     35  C1  GCT B   3      29.845  44.108  57.9920  0.00  0.00     0.000 C
ATOM     36  C2  GCT B   3      29.729  43.040  56.9260  0.00  0.00     0.000 C
ATOM     37  C3  GCT B   3      30.713  41.908  57.1850  0.00  0.00     0.000 C
ATOM     38  C4  GCT B   3      32.139  42.470  57.1870  0.00  0.00     0.000 C
ATOM     39  C5  GCT B   3      32.197  43.904  57.7600  0.00  0.00     0.000 C
ATOM     40  O5  GCT B   3      31.103  44.027  58.6520  0.00  0.00     0.000 O
ATOM     41   O  GCT B   3      28.395  42.556  56.9830  0.00  0.00     0.000 O
ATOM     43  HD  GCT B   3      27.645  42.886  56.7020  0.00  0.00     0.000 HD
ATOM     43   O  GCT B   3      30.513  40.888  56.1830  0.00  0.00     0.000 O
ATOM     45  HD  GCT B   3      29.763  41.217  55.9020  0.00  0.00     0.000 HD
BRANCH 39 45
ATOM     45   C  GCT B   3      32.185  45.067  56.7910  0.00  0.00     0.000 C
ATOM     46   O  GCT B   3      32.215  46.256  57.2380  0.00  0.00     0.000 OA
ATOM     47   O  GCT B   3      32.160  44.807  55.5770  0.00  0.00     0.000 OA
ENDBRANCH 39 45
BRANCH 35 48
ATOM     48  O3  ASG B   4      29.186  45.180  57.6070  0.00  0.00     0.000 O
BRANCH 48 51
ATOM     49  C1  ASG B   4      26.527  46.149  59.9900  0.00  0.00     0.000 C
ATOM     50  C2  ASG B   4      27.293  45.340  58.9300  0.00  0.00     0.000 C
ATOM     51  C3  ASG B   4      28.714  45.867  58.7530  0.00  0.00     0.000 C
ATOM     52  C4  ASG B   4      28.721  47.373  58.5470  0.00  0.00     0.000 C
ATOM     53  C5  ASG B   4      27.961  48.014  59.7060  0.00  0.00     0.000 C
ATOM     54  O5  ASG B   4      26.602  47.535  59.7010  0.00  0.00     0.000 O
BRANCH 50 57
ATOM     55   N  ASG B   4      26.696  44.344  59.7900  0.00  0.00     0.000 N
ATOM     57  HD  ASG B   4      25.963  44.230  59.3420  0.00  0.00     0.000 HD
ATOM     57   O  ASG B   4      25.468  43.402  58.1710  0.00  0.00     0.000 OA
ATOM     58   C  ASG B   4      25.902  43.378  59.3180  0.00  0.00     0.000 C
ATOM     59   C  ASG B   4      25.539  42.303  60.2960  0.00  0.00     0.000 C
ENDBRANCH 50 57
BRANCH 52 60
ATOM     60   O  ASG B   4      28.080  47.545  57.2180  0.00  0.00     0.000 O
ATOM     61   O  ASG B   4      30.091  48.663  56.2500  0.00  0.00     0.000 OA
ATOM     62   O  ASG B   4      28.231  48.152  54.8530  0.00  0.00     0.000 OA
ATOM     63   O  ASG B   4      27.964  49.751  56.6110  0.00  0.00     0.000 OA
ATOM     64   S  ASG B   4      28.675  48.562  56.1310  0.00  0.00     0.000 S
ENDBRANCH 52 60
ATOM     65   O  ASG B   4      27.510  50.053  60.9380  0.00  0.00     0.000 O
ATOM     67  HD  ASG B   4      26.661  49.880  60.9190  0.00  0.00     0.000 HD
ATOM     67   O  ASG B   4      27.510  50.053  60.9380  0.00  0.00     0.000 O
ATOM     69  HD  ASG B   4      26.661  49.880  60.9190  0.00  0.00     0.000 HD
ENDBRANCH 48 51
ENDBRANCH 35 48
ENDBRANCH 34 38
ENDBRANCH 15 34
ENDBRANCH 14 17
ENDBRANCH 1 14
TORSDOF 12
ENDMDL
MODEL 50
REMARK VINA RESULT:      -2.4     29.684     33.803
ROOT
ATOM      1  C1  GAD B   1      35.865  45.499  57.5930  0.00  0.00     0.000 C
ATOM      2  C2  GAD B   1      35.928  46.075  59.0110  0.00  0.00     0.000 C
ATOM      3  C3  GAD B   1      37.385  46.149  59.4850  0.00  0.00     0.000 C
ATOM      4  C4  GAD B   1      38.290  45.047  58.9290  0.00  0.00     0.000 C
ATOM      5  C5  GAD B   1      37.918  44.165  57.9800  0.00  0.00     0.000 C
ATOM      6  O5  GAD B   1      36.562  44.248  57.5010  0.00  0.00     0.000 O
ATOM      7   O  GAD B   1      35.232  47.373  59.0960  0.00  0.00     0.000 O
ATOM      9  HD  GAD B   1      34.919  47.096  58.3380  0.00  0.00     0.000 HD
ATOM      9   O  GAD B   1      37.480  46.058  60.9240  0.00  0.00     0.000 O
ATOM     11  HD  GAD B   1      37.167  45.780  60.1660  0.00  0.00     0.000 HD
ENDROOT
BRANCH 5 11
ATOM     11   C  GAD B   1      38.817  43.165  57.3590  0.00  0.00     0.000 C
ATOM     12   O  GAD B   1      40.045  43.217  57.6810  0.00  0.00     0.000 OA
ATOM     13   O  GAD B   1      38.362  42.347  56.4770  0.00  0.00     0.000 OA
ENDBRANCH 5 11
BRANCH 1 14
ATOM     14  O3  ASG B   2      34.767  44.930  57.0610  0.00  0.00     0.000 O
BRANCH 14 17
ATOM     15  C1  ASG B   2      31.011  44.710  57.4050  0.00  0.00     0.000 C
ATOM     16  C2  ASG B   2      32.456  44.193  57.3780  0.00  0.00     0.000 C
ATOM     17  C3  ASG B   2      33.402  45.362  57.0930  0.00  0.00     0.000 C
ATOM     18  C4  ASG B   2      33.042  46.010  55.7700  0.00  0.00     0.000 C
ATOM     19  C5  ASG B   2      31.566  46.397  55.7900  0.00  0.00     0.000 C
ATOM     20  O5  ASG B   2      30.760  45.250  56.1200  0.00  0.00     0.000 O
ATOM     21   C  ASG B   2      31.079  46.892  54.4660  0.00  0.00     0.000 C
ATOM     22   O  ASG B   2      29.680  47.025  54.5040  0.00  0.00     0.000 O
ATOM     24  HD  ASG B   2      28.832  47.155  54.3850  0.00  0.00     0.000 HD
BRANCH 16 26
ATOM     24   N  ASG B   2      33.113  42.908  57.4420  0.00  0.00     0.000 N
ATOM     26  HD  ASG B   2      33.374  43.534  56.9040  0.00  0.00     0.000 HD
ATOM     26   C  ASG B   2      33.695  42.414  58.5510  0.00  0.00     0.000 C
ATOM     27   C  ASG B   2      34.014  40.959  58.5320  0.00  0.00     0.000 C
ATOM     28   O  ASG B   2      33.946  43.124  59.5170  0.00  0.00     0.000 OA
ENDBRANCH 16 26
BRANCH 18 29
ATOM     29   O  ASG B   2      33.359  45.027  54.7250  0.00  0.00     0.000 O
ATOM     30   O  ASG B   2      33.988  46.712  53.0480  0.00  0.00     0.000 OA
ATOM     31   O  ASG B   2      35.705  45.387  54.1380  0.00  0.00     0.000 OA
ATOM     32   O  ASG B   2      34.195  44.348  52.5620  0.00  0.00     0.000 OA
ATOM     33   S  ASG B   2      34.386  45.410  53.5500  0.00  0.00     0.000 S
ENDBRANCH 18 29
BRANCH 15 34
ATOM     34  O4  ASG B   3      30.062  43.715  57.6640  0.00  0.00     0.000 O
BRANCH 34 38
ATOM     35  C1  GCT B   3      27.872  43.402  61.0510  0.00  0.00     0.000 C
ATOM     36  C2  GCT B   3      27.161  42.908  59.8100  0.00  0.00     0.000 C
ATOM     37  C3  GCT B   3      28.153  42.644  58.6860  0.00  0.00     0.000 C
ATOM     38  C4  GCT B   3      28.901  43.942  58.3590  0.00  0.00     0.000 C
ATOM     39  C5  GCT B   3      29.125  44.814  59.6160  0.00  0.00     0.000 C
ATOM     40  O5  GCT B   3      29.152  43.930  60.7220  0.00  0.00     0.000 O
ATOM     41   O  GCT B   3      26.499  41.706  60.1750  0.00  0.00     0.000 O
ATOM     43  HD  GCT B   3      25.773  41.555  60.6230  0.00  0.00     0.000 HD
ATOM     43   O  GCT B   3      27.434  42.112  57.5540  0.00  0.00     0.000 O
ATOM     45  HD  GCT B   3      26.708  41.961  58.0010  0.00  0.00     0.000 HD
BRANCH 39 45
ATOM     45   C  GCT B   3      28.150  45.937  59.8960  0.00  0.00     0.000 C
ATOM     46   O  GCT B   3      27.156  46.111  59.1230  0.00  0.00     0.000 OA
ATOM     47   O  GCT B   3      28.355  46.645  60.8950  0.00  0.00     0.000 OA
ENDBRANCH 39 45
BRANCH 35 48
ATOM     48  O3  ASG B   4      26.985  43.868  61.9040  0.00  0.00     0.000 O
BRANCH 48 51
ATOM     49  C1  ASG B   4      26.684  42.403  65.2890  0.00  0.00     0.000 C
ATOM     50  C2  ASG B   4      26.482  42.603  63.7770  0.00  0.00     0.000 C
ATOM     51  C3  ASG B   4      27.452  43.643  63.2230  0.00  0.00     0.000 C
ATOM     52  C4  ASG B   4      27.426  44.916  64.0530  0.00  0.00     0.000 C
ATOM     53  C5  ASG B   4      27.686  44.540  65.5090  0.00  0.00     0.000 C
ATOM     54  O5  ASG B   4      26.644  43.652  65.9600  0.00  0.00     0.000 O
BRANCH 50 57
ATOM     55   N  ASG B   4      25.157  42.920  63.2960  0.00  0.00     0.000 N
ATOM     57  HD  ASG B   4      25.011  42.181  62.8670  0.00  0.00     0.000 HD
ATOM     57   O  ASG B   4      24.487  40.787  63.1590  0.00  0.00     0.000 OA
ATOM     58   C  ASG B   4      24.219  41.984  63.1210  0.00  0.00     0.000 C
ATOM     59   C  ASG B   4      22.842  42.495  62.8270  0.00  0.00     0.000 C
ENDBRANCH 50 57
BRANCH 52 60
ATOM     60   O  ASG B   4      26.075  45.475  63.7910  0.00  0.00     0.000 O
ATOM     61   O  ASG B   4      26.917  47.824  63.7270  0.00  0.00     0.000 OA
ATOM     62   O  ASG B   4      24.638  47.367  63.2070  0.00  0.00     0.000 OA
ATOM     63   O  ASG B   4      25.435  46.949  65.4230  0.00  0.00     0.000 OA
ATOM     64   S  ASG B   4      25.762  47.034  63.9960  0.00  0.00     0.000 S
ENDBRANCH 52 60
ATOM     65   O  ASG B   4      28.322  45.328  67.7120  0.00  0.00     0.000 O
ATOM     67  HD  ASG B   4      27.670  44.880  68.0640  0.00  0.00     0.000 HD
ATOM     67   O  ASG B   4      28.322  45.328  67.7120  0.00  0.00     0.000 O
ATOM     69  HD  ASG B   4      27.670  44.880  68.0640  0.00  0.00     0.000 HD
ENDBRANCH 48 51
ENDBRANCH 35 48
ENDBRANCH 34 38
ENDBRANCH 15 34
ENDBRANCH 14 17
ENDBRANCH 1 14
TORSDOF 12
ENDMDL
MODEL 51
REMARK VINA RESULT:      -2.4     14.585     19.385
ROOT
ATOM      1  C1  GAD B   1      27.557  63.311  43.0990  0.00  0.00     0.000 C
ATOM      2  C2  GAD B   1      28.985  63.029  42.6240  0.00  0.00     0.000 C
ATOM      3  C3  GAD B   1      29.252  63.753  41.2990  0.00  0.00     0.000 C
ATOM      4  C4  GAD B   1      28.024  63.897  40.3960  0.00  0.00     0.000 C
ATOM      5  C5  GAD B   1      26.768  63.572  40.7640  0.00  0.00     0.000 C
ATOM      6  O5  GAD B   1      26.593  63.010  42.0790  0.00  0.00     0.000 O
ATOM      7   O  GAD B   1      29.975  63.363  43.6660  0.00  0.00     0.000 O
ATOM      9  HD  GAD B   1      29.257  63.358  44.1510  0.00  0.00     0.000 HD
ATOM      9   O  GAD B   1      30.250  63.068  40.5100  0.00  0.00     0.000 O
ATOM     11  HD  GAD B   1      29.532  63.063  40.9950  0.00  0.00     0.000 HD
ENDROOT
BRANCH 5 11
ATOM     11   C  GAD B   1      25.560  63.806  39.9390  0.00  0.00     0.000 C
ATOM     12   O  GAD B   1      24.735  64.676  40.3600  0.00  0.00     0.000 OA
ATOM     13   O  GAD B   1      25.343  63.088  38.8940  0.00  0.00     0.000 OA
ENDBRANCH 5 11
BRANCH 1 14
ATOM     14  O3  ASG B   2      26.886  62.530  43.9660  0.00  0.00     0.000 O
BRANCH 14 17
ATOM     15  C1  ASG B   2      25.787  59.020  44.8330  0.00  0.00     0.000 C
ATOM     16  C2  ASG B   2      25.629  60.530  44.6030  0.00  0.00     0.000 C
ATOM     17  C3  ASG B   2      26.982  61.120  44.1960  0.00  0.00     0.000 C
ATOM     18  C4  ASG B   2      28.012  60.848  45.2770  0.00  0.00     0.000 C
ATOM     19  C5  ASG B   2      28.050  59.350  45.5640  0.00  0.00     0.000 C
ATOM     20  O5  ASG B   2      26.727  58.875  45.8820  0.00  0.00     0.000 O
ATOM     21   C  ASG B   2      28.917  59.006  46.7320  0.00  0.00     0.000 C
ATOM     22   O  ASG B   2      28.735  57.652  47.0650  0.00  0.00     0.000 O
ATOM     24  HD  ASG B   2      28.726  56.845  47.3770  0.00  0.00     0.000 HD
BRANCH 16 26
ATOM     24   N  ASG B   2      24.593  60.890  43.6620  0.00  0.00     0.000 N
ATOM     26  HD  ASG B   2      24.575  60.147  44.1070  0.00  0.00     0.000 HD
ATOM     26   C  ASG B   2      23.825  61.989  43.7720  0.00  0.00     0.000 C
ATOM     27   C  ASG B   2      23.061  62.380  42.5540  0.00  0.00     0.000 C
ATOM     28   O  ASG B   2      23.762  62.629  44.8150  0.00  0.00     0.000 OA
ENDBRANCH 16 26
BRANCH 18 29
ATOM     29   O  ASG B   2      27.609  61.642  46.4450  0.00  0.00     0.000 O
ATOM     30   O  ASG B   2      29.906  62.011  47.2390  0.00  0.00     0.000 OA
ATOM     31   O  ASG B   2      28.681  63.825  46.1890  0.00  0.00     0.000 OA
ATOM     32   O  ASG B   2      28.028  63.031  48.3770  0.00  0.00     0.000 OA
ATOM     33   S  ASG B   2      28.636  62.697  47.0890  0.00  0.00     0.000 S
ENDBRANCH 18 29
BRANCH 15 34
ATOM     34  O4  ASG B   3      24.600  58.381  45.2050  0.00  0.00     0.000 O
BRANCH 34 38
ATOM     35  C1  GCT B   3      22.266  55.084  45.4350  0.00  0.00     0.000 C
ATOM     36  C2  GCT B   3      23.748  54.786  45.3520  0.00  0.00     0.000 C
ATOM     37  C3  GCT B   3      24.569  56.017  45.7050  0.00  0.00     0.000 C
ATOM     38  C4  GCT B   3      24.224  57.150  44.7300  0.00  0.00     0.000 C
ATOM     39  C5  GCT B   3      22.741  57.110  44.2970  0.00  0.00     0.000 C
ATOM     40  O5  GCT B   3      22.029  56.485  45.3500  0.00  0.00     0.000 O
ATOM     41   O  GCT B   3      24.001  53.741  46.2810  0.00  0.00     0.000 O
ATOM     43  HD  GCT B   3      23.851  52.889  46.2520  0.00  0.00     0.000 HD
ATOM     43   O  GCT B   3      25.967  55.661  45.6790  0.00  0.00     0.000 O
ATOM     45  HD  GCT B   3      25.817  54.808  45.6490  0.00  0.00     0.000 HD
BRANCH 39 45
ATOM     45   C  GCT B   3      22.392  56.437  42.9880  0.00  0.00     0.000 C
ATOM     46   O  GCT B   3      23.303  55.857  42.3180  0.00  0.00     0.000 OA
ATOM     47   O  GCT B   3      21.206  56.468  42.6210  0.00  0.00     0.000 OA
ENDBRANCH 39 45
BRANCH 35 48
ATOM     48  O3  ASG B   4      21.593  54.101  44.8780  0.00  0.00     0.000 O
BRANCH 48 51
ATOM     49  C1  ASG B   4      19.817  51.196  46.3270  0.00  0.00     0.000 C
ATOM     50  C2  ASG B   4      20.840  52.005  45.5120  0.00  0.00     0.000 C
ATOM     51  C3  ASG B   4      20.772  53.490  45.8590  0.00  0.00     0.000 C
ATOM     52  C4  ASG B   4      19.344  54.005  45.7980  0.00  0.00     0.000 C
ATOM     53  C5  ASG B   4      18.481  53.119  46.6920  0.00  0.00     0.000 C
ATOM     54  O5  ASG B   4      18.525  51.766  46.1990  0.00  0.00     0.000 O
BRANCH 50 57
ATOM     55   N  ASG B   4      21.036  52.011  44.0810  0.00  0.00     0.000 N
ATOM     57  HD  ASG B   4      21.759  51.533  44.0620  0.00  0.00     0.000 HD
ATOM     57   O  ASG B   4      22.147  50.066  44.0310  0.00  0.00     0.000 OA
ATOM     58   C  ASG B   4      21.588  50.981  43.4320  0.00  0.00     0.000 C
ATOM     59   C  ASG B   4      21.525  51.047  41.9370  0.00  0.00     0.000 C
ENDBRANCH 50 57
BRANCH 52 60
ATOM     60   O  ASG B   4      19.011  53.934  44.3510  0.00  0.00     0.000 O
ATOM     61   O  ASG B   4      18.212  56.298  44.2870  0.00  0.00     0.000 OA
ATOM     62   O  ASG B   4      18.342  55.035  42.2730  0.00  0.00     0.000 OA
ATOM     63   O  ASG B   4      16.795  54.367  43.9690  0.00  0.00     0.000 OA
ATOM     64   S  ASG B   4      18.066  55.028  43.6590  0.00  0.00     0.000 S
ENDBRANCH 52 60
ATOM     65   O  ASG B   4      16.378  52.892  47.8770  0.00  0.00     0.000 O
ATOM     67  HD  ASG B   4      16.285  52.089  47.5660  0.00  0.00     0.000 HD
ATOM     67   O  ASG B   4      16.378  52.892  47.8770  0.00  0.00     0.000 O
ATOM     69  HD  ASG B   4      16.285  52.089  47.5660  0.00  0.00     0.000 HD
ENDBRANCH 48 51
ENDBRANCH 35 48
ENDBRANCH 34 38
ENDBRANCH 15 34
ENDBRANCH 14 17
ENDBRANCH 1 14
TORSDOF 12
ENDMDL
MODEL 52
REMARK VINA RESULT:      -2.4      8.330     13.424
ROOT
ATOM      1  C1  GAD B   1       9.402  76.814  44.1710  0.00  0.00     0.000 C
ATOM      2  C2  GAD B   1      10.215  77.658  45.1570  0.00  0.00     0.000 C
ATOM      3  C3  GAD B   1       9.356  78.807  45.6980  0.00  0.00     0.000 C
ATOM      4  C4  GAD B   1       8.317  79.344  44.7100  0.00  0.00     0.000 C
ATOM      5  C5  GAD B   1       8.041  78.779  43.5180  0.00  0.00     0.000 C
ATOM      6  O5  GAD B   1       8.815  77.624  43.1420  0.00  0.00     0.000 O
ATOM      7   O  GAD B   1      10.796  76.825  46.2270  0.00  0.00     0.000 O
ATOM      9  HD  GAD B   1      10.582  76.202  45.6650  0.00  0.00     0.000 HD
ATOM      9   O  GAD B   1      10.166  79.941  46.0820  0.00  0.00     0.000 O
ATOM     11  HD  GAD B   1       9.952  79.318  45.5200  0.00  0.00     0.000 HD
ENDROOT
BRANCH 5 11
ATOM     11   C  GAD B   1       6.966  79.226  42.6010  0.00  0.00     0.000 C
ATOM     12   O  GAD B   1       7.163  79.056  41.3580  0.00  0.00     0.000 OA
ATOM     13   O  GAD B   1       5.930  79.830  43.0670  0.00  0.00     0.000 OA
ENDBRANCH 5 11
BRANCH 1 14
ATOM     14  O3  ASG B   2       9.950  76.017  43.2340  0.00  0.00     0.000 O
BRANCH 14 17
ATOM     15  C1  ASG B   2       9.470  72.485  41.9790  0.00  0.00     0.000 C
ATOM     16  C2  ASG B   2      10.128  73.619  42.7780  0.00  0.00     0.000 C
ATOM     17  C3  ASG B   2       9.375  74.926  42.5060  0.00  0.00     0.000 C
ATOM     18  C4  ASG B   2       9.396  75.236  41.0220  0.00  0.00     0.000 C
ATOM     19  C5  ASG B   2       8.850  74.036  40.2540  0.00  0.00     0.000 C
ATOM     20  O5  ASG B   2       9.580  72.847  40.6150  0.00  0.00     0.000 O
ATOM     21   C  ASG B   2       8.986  74.186  38.7730  0.00  0.00     0.000 C
ATOM     22   O  ASG B   2       8.664  72.967  38.1500  0.00  0.00     0.000 O
ATOM     24  HD  ASG B   2       8.493  72.290  37.6370  0.00  0.00     0.000 HD
BRANCH 16 26
ATOM     24   N  ASG B   2      11.296  73.818  43.6050  0.00  0.00     0.000 N
ATOM     26  HD  ASG B   2      11.009  74.424  43.0570  0.00  0.00     0.000 HD
ATOM     26   C  ASG B   2      11.280  73.784  44.9500  0.00  0.00     0.000 C
ATOM     27   C  ASG B   2      12.607  73.665  45.6180  0.00  0.00     0.000 C
ATOM     28   O  ASG B   2      10.234  73.847  45.5840  0.00  0.00     0.000 OA
ENDBRANCH 16 26
BRANCH 18 29
ATOM     29   O  ASG B   2      10.790  75.546  40.6800  0.00  0.00     0.000 O
ATOM     30   O  ASG B   2      10.212  77.171  38.9290  0.00  0.00     0.000 OA
ATOM     31   O  ASG B   2      11.072  77.944  41.0630  0.00  0.00     0.000 OA
ATOM     32   O  ASG B   2      12.524  76.772  39.5270  0.00  0.00     0.000 OA
ATOM     33   S  ASG B   2      11.156  76.960  40.0100  0.00  0.00     0.000 S
ENDBRANCH 18 29
BRANCH 15 34
ATOM     34  O4  ASG B   3      10.082  71.241  42.1620  0.00  0.00     0.000 O
BRANCH 34 38
ATOM     35  C1  GCT B   3       6.737  69.126  42.9990  0.00  0.00     0.000 C
ATOM     36  C2  GCT B   3       7.558  69.488  44.2170  0.00  0.00     0.000 C
ATOM     37  C3  GCT B   3       8.526  70.619  43.9020  0.00  0.00     0.000 C
ATOM     38  C4  GCT B   3       9.464  70.178  42.7710  0.00  0.00     0.000 C
ATOM     39  C5  GCT B   3       8.757  69.247  41.7610  0.00  0.00     0.000 C
ATOM     40  O5  GCT B   3       7.378  69.571  41.8080  0.00  0.00     0.000 O
ATOM     41   O  GCT B   3       6.635  69.894  45.2190  0.00  0.00     0.000 O
ATOM     43  HD  GCT B   3       6.106  69.445  45.7370  0.00  0.00     0.000 HD
ATOM     43   O  GCT B   3       9.232  70.970  45.1110  0.00  0.00     0.000 O
ATOM     45  HD  GCT B   3       8.702  70.522  45.6290  0.00  0.00     0.000 HD
BRANCH 39 45
ATOM     45   C  GCT B   3       8.925  67.752  41.9210  0.00  0.00     0.000 C
ATOM     46   O  GCT B   3       9.577  67.297  42.9130  0.00  0.00     0.000 OA
ATOM     47   O  GCT B   3       8.398  67.016  41.0700  0.00  0.00     0.000 OA
ENDBRANCH 39 45
BRANCH 35 48
ATOM     48  O3  ASG B   4       6.109  67.991  43.2190  0.00  0.00     0.000 O
BRANCH 48 51
ATOM     49  C1  ASG B   4       2.469  67.356  43.0180  0.00  0.00     0.000 C
ATOM     50  C2  ASG B   4       3.859  67.619  43.6210  0.00  0.00     0.000 C
ATOM     51  C3  ASG B   4       4.864  68.014  42.5420  0.00  0.00     0.000 C
ATOM     52  C4  ASG B   4       4.837  67.035  41.3800  0.00  0.00     0.000 C
ATOM     53  C5  ASG B   4       3.399  66.930  40.8800  0.00  0.00     0.000 C
ATOM     54  O5  ASG B   4       2.564  66.434  41.9450  0.00  0.00     0.000 O
BRANCH 50 57
ATOM     55   N  ASG B   4       3.573  68.648  44.5930  0.00  0.00     0.000 N
ATOM     57  HD  ASG B   4       3.143  68.155  45.1600  0.00  0.00     0.000 HD
ATOM     57   O  ASG B   4       3.455  67.244  46.3330  0.00  0.00     0.000 OA
ATOM     58   C  ASG B   4       3.495  68.392  45.9020  0.00  0.00     0.000 C
ATOM     59   C  ASG B   4       3.407  69.593  46.7930  0.00  0.00     0.000 C
ENDBRANCH 50 57
BRANCH 52 60
ATOM     60   O  ASG B   4       5.380  65.783  41.9680  0.00  0.00     0.000 O
ATOM     61   O  ASG B   4       6.200  64.950  39.7630  0.00  0.00     0.000 OA
ATOM     62   O  ASG B   4       6.697  63.733  41.7480  0.00  0.00     0.000 OA
ATOM     63   O  ASG B   4       4.422  63.923  41.0360  0.00  0.00     0.000 OA
ATOM     64   S  ASG B   4       5.758  64.525  41.0490  0.00  0.00     0.000 S
ENDBRANCH 52 60
ATOM     65   O  ASG B   4       1.940  66.243  39.0690  0.00  0.00     0.000 O
ATOM     67  HD  ASG B   4       1.415  65.852  39.6360  0.00  0.00     0.000 HD
ATOM     67   O  ASG B   4       1.940  66.243  39.0690  0.00  0.00     0.000 O
ATOM     69  HD  ASG B   4       1.415  65.852  39.6360  0.00  0.00     0.000 HD
ENDBRANCH 48 51
ENDBRANCH 35 48
ENDBRANCH 34 38
ENDBRANCH 15 34
ENDBRANCH 14 17
ENDBRANCH 1 14
TORSDOF 12
ENDMDL
MODEL 53
REMARK VINA RESULT:      -2.2     14.747     21.844
ROOT
ATOM      1  C1  GAD B   1      19.550  65.283  24.2920  0.00  0.00     0.000 C
ATOM      2  C2  GAD B   1      19.369  66.373  23.2300  0.00  0.00     0.000 C
ATOM      3  C3  GAD B   1      20.173  67.621  23.6150  0.00  0.00     0.000 C
ATOM      4  C4  GAD B   1      20.297  67.857  25.1220  0.00  0.00     0.000 C
ATOM      5  C5  GAD B   1      19.887  66.983  26.0640  0.00  0.00     0.000 C
ATOM      6  O5  GAD B   1      19.251  65.774  25.6070  0.00  0.00     0.000 O
ATOM      7   O  GAD B   1      19.701  65.871  21.8830  0.00  0.00     0.000 O
ATOM      9  HD  GAD B   1      19.634  65.115  22.3010  0.00  0.00     0.000 HD
ATOM      9   O  GAD B   1      19.582  68.821  23.0690  0.00  0.00     0.000 O
ATOM     11  HD  GAD B   1      19.515  68.066  23.4870  0.00  0.00     0.000 HD
ENDROOT
BRANCH 5 11
ATOM     11   C  GAD B   1      20.098  67.153  27.5200  0.00  0.00     0.000 C
ATOM     12   O  GAD B   1      19.715  66.203  28.2720  0.00  0.00     0.000 OA
ATOM     13   O  GAD B   1      20.573  68.256  27.9800  0.00  0.00     0.000 OA
ENDBRANCH 5 11
BRANCH 1 14
ATOM     14  O3  ASG B   2      18.691  64.263  24.4750  0.00  0.00     0.000 O
BRANCH 14 17
ATOM     15  C1  ASG B   2      16.680  62.630  27.2270  0.00  0.00     0.000 C
ATOM     16  C2  ASG B   2      17.804  62.758  26.1890  0.00  0.00     0.000 C
ATOM     17  C3  ASG B   2      17.660  64.094  25.4550  0.00  0.00     0.000 C
ATOM     18  C4  ASG B   2      16.302  64.174  24.7850  0.00  0.00     0.000 C
ATOM     19  C5  ASG B   2      15.217  63.919  25.8270  0.00  0.00     0.000 C
ATOM     20  O5  ASG B   2      15.465  62.670  26.5020  0.00  0.00     0.000 O
ATOM     21   C  ASG B   2      13.851  63.814  25.2270  0.00  0.00     0.000 C
ATOM     22   O  ASG B   2      12.945  63.370  26.2060  0.00  0.00     0.000 O
ATOM     24  HD  ASG B   2      12.283  63.109  26.7000  0.00  0.00     0.000 HD
BRANCH 16 26
ATOM     24   N  ASG B   2      18.865  61.942  25.6450  0.00  0.00     0.000 N
ATOM     26  HD  ASG B   2      18.405  62.489  25.1560  0.00  0.00     0.000 HD
ATOM     26   C  ASG B   2      20.147  62.005  26.0510  0.00  0.00     0.000 C
ATOM     27   C  ASG B   2      21.023  60.873  25.6360  0.00  0.00     0.000 C
ATOM     28   O  ASG B   2      20.565  62.940  26.7230  0.00  0.00     0.000 OA
ENDBRANCH 16 26
BRANCH 18 29
ATOM     29   O  ASG B   2      16.308  63.173  23.7110  0.00  0.00     0.000 O
ATOM     30   O  ASG B   2      14.856  64.475  22.2140  0.00  0.00     0.000 OA
ATOM     31   O  ASG B   2      17.230  64.290  21.7410  0.00  0.00     0.000 OA
ATOM     32   O  ASG B   2      15.793  62.361  21.4940  0.00  0.00     0.000 OA
ATOM     33   S  ASG B   2      16.031  63.624  22.1930  0.00  0.00     0.000 S
ENDBRANCH 18 29
BRANCH 15 34
ATOM     34  O4  ASG B   3      16.725  61.440  27.9600  0.00  0.00     0.000 O
BRANCH 34 38
ATOM     35  C1  GCT B   3      14.664  58.840  30.2750  0.00  0.00     0.000 C
ATOM     36  C2  GCT B   3      14.859  58.374  28.8480  0.00  0.00     0.000 C
ATOM     37  C3  GCT B   3      15.978  59.152  28.1720  0.00  0.00     0.000 C
ATOM     38  C4  GCT B   3      15.627  60.645  28.1740  0.00  0.00     0.000 C
ATOM     39  C5  GCT B   3      14.840  61.053  29.4400  0.00  0.00     0.000 C
ATOM     40  O5  GCT B   3      15.211  60.141  30.4590  0.00  0.00     0.000 O
ATOM     41   O  GCT B   3      15.189  56.994  28.9170  0.00  0.00     0.000 O
ATOM     43  HD  GCT B   3      14.708  56.288  29.0570  0.00  0.00     0.000 HD
ATOM     43   O  GCT B   3      16.168  58.622  26.8430  0.00  0.00     0.000 O
ATOM     45  HD  GCT B   3      15.687  57.916  26.9840  0.00  0.00     0.000 HD
BRANCH 39 45
ATOM     45   C  GCT B   3      13.331  61.124  29.3570  0.00  0.00     0.000 C
ATOM     46   O  GCT B   3      12.755  60.937  28.2390  0.00  0.00     0.000 OA
ATOM     47   O  GCT B   3      12.704  61.352  30.4050  0.00  0.00     0.000 OA
ENDBRANCH 39 45
BRANCH 35 48
ATOM     48  O3  ASG B   4      13.537  58.348  30.7430  0.00  0.00     0.000 O
BRANCH 48 51
ATOM     49  C1  ASG B   4      12.600  55.487  32.8950  0.00  0.00     0.000 C
ATOM     50  C2  ASG B   4      12.558  56.501  31.7400  0.00  0.00     0.000 C
ATOM     51  C3  ASG B   4      13.834  57.337  31.6910  0.00  0.00     0.000 C
ATOM     52  C4  ASG B   4      14.160  57.924  33.0550  0.00  0.00     0.000 C
ATOM     53  C5  ASG B   4      14.205  56.780  34.0650  0.00  0.00     0.000 C
ATOM     54  O5  ASG B   4      12.914  56.142  34.1130  0.00  0.00     0.000 O
BRANCH 50 57
ATOM     55   N  ASG B   4      11.808  57.405  30.8970  0.00  0.00     0.000 N
ATOM     57  HD  ASG B   4      11.396  56.806  30.4260  0.00  0.00     0.000 HD
ATOM     57   O  ASG B   4      10.135  55.966  30.5150  0.00  0.00     0.000 OA
ATOM     58   C  ASG B   4      10.593  57.102  30.4300  0.00  0.00     0.000 C
ATOM     59   C  ASG B   4       9.861  58.221  29.7560  0.00  0.00     0.000 C
ENDBRANCH 50 57
BRANCH 52 60
ATOM     60   O  ASG B   4      13.068  58.905  33.2810  0.00  0.00     0.000 O
ATOM     61   O  ASG B   4      14.663  60.783  33.6800  0.00  0.00     0.000 OA
ATOM     62   O  ASG B   4      12.323  61.213  33.5990  0.00  0.00     0.000 OA
ATOM     63   O  ASG B   4      13.198  59.855  35.3610  0.00  0.00     0.000 OA
ATOM     64   S  ASG B   4      13.350  60.320  33.9790  0.00  0.00     0.000 S
ENDBRANCH 52 60
ATOM     65   O  ASG B   4      14.928  56.062  36.2650  0.00  0.00     0.000 O
ATOM     67  HD  ASG B   4      14.150  55.711  36.4100  0.00  0.00     0.000 HD
ATOM     67   O  ASG B   4      14.928  56.062  36.2650  0.00  0.00     0.000 O
ATOM     69  HD  ASG B   4      14.150  55.711  36.4100  0.00  0.00     0.000 HD
ENDBRANCH 48 51
ENDBRANCH 35 48
ENDBRANCH 34 38
ENDBRANCH 15 34
ENDBRANCH 14 17
ENDBRANCH 1 14
TORSDOF 12
ENDMDL
MODEL 54
REMARK VINA RESULT:      -2.2     29.439     36.502
ROOT
ATOM      1  C1  GAD B   1      41.504  41.727  56.4790  0.00  0.00     0.000 C
ATOM      2  C2  GAD B   1      41.911  40.743  57.5800  0.00  0.00     0.000 C
ATOM      3  C3  GAD B   1      43.096  39.890  57.1130  0.00  0.00     0.000 C
ATOM      4  C4  GAD B   1      43.119  39.605  55.6090  0.00  0.00     0.000 C
ATOM      5  C5  GAD B   1      42.279  40.166  54.7160  0.00  0.00     0.000 C
ATOM      6  O5  GAD B   1      41.270  41.055  55.2320  0.00  0.00     0.000 O
ATOM      7   O  GAD B   1      42.174  41.441  58.8530  0.00  0.00     0.000 O
ATOM      9  HD  GAD B   1      41.757  42.072  58.4320  0.00  0.00     0.000 HD
ATOM      9   O  GAD B   1      43.113  38.601  57.7660  0.00  0.00     0.000 O
ATOM     11  HD  GAD B   1      42.695  39.232  57.3440  0.00  0.00     0.000 HD
ENDROOT
BRANCH 5 11
ATOM     11   C  GAD B   1      42.360  39.979  53.2490  0.00  0.00     0.000 C
ATOM     12   O  GAD B   1      43.151  40.744  52.6140  0.00  0.00     0.000 OA
ATOM     13   O  GAD B   1      41.591  39.131  52.6620  0.00  0.00     0.000 OA
ENDBRANCH 5 11
BRANCH 1 14
ATOM     14  O3  ASG B   2      40.291  42.305  56.3980  0.00  0.00     0.000 O
BRANCH 14 17
ATOM     15  C1  ASG B   2      36.590  41.695  55.9340  0.00  0.00     0.000 C
ATOM     16  C2  ASG B   2      37.961  42.327  55.6510  0.00  0.00     0.000 C
ATOM     17  C3  ASG B   2      38.991  41.747  56.6240  0.00  0.00     0.000 C
ATOM     18  C4  ASG B   2      38.562  42.018  58.0540  0.00  0.00     0.000 C
ATOM     19  C5  ASG B   2      37.148  41.485  58.2590  0.00  0.00     0.000 C
ATOM     20  O5  ASG B   2      36.263  42.041  57.2670  0.00  0.00     0.000 O
ATOM     21   C  ASG B   2      36.578  41.854  59.5910  0.00  0.00     0.000 C
ATOM     22   O  ASG B   2      35.212  41.518  59.6230  0.00  0.00     0.000 O
ATOM     24  HD  ASG B   2      34.375  41.364  59.7840  0.00  0.00     0.000 HD
BRANCH 16 26
ATOM     24   N  ASG B   2      38.492  42.174  54.3160  0.00  0.00     0.000 N
ATOM     26  HD  ASG B   2      37.651  42.068  54.4940  0.00  0.00     0.000 HD
ATOM     26   C  ASG B   2      39.121  43.152  53.6390  0.00  0.00     0.000 C
ATOM     27   C  ASG B   2      39.894  42.726  52.4380  0.00  0.00     0.000 C
ATOM     28   O  ASG B   2      39.059  44.323  53.9930  0.00  0.00     0.000 OA
ENDBRANCH 16 26
BRANCH 18 29
ATOM     29   O  ASG B   2      38.658  43.470  58.2500  0.00  0.00     0.000 O
ATOM     30   O  ASG B   2      39.249  43.313  60.6320  0.00  0.00     0.000 OA
ATOM     31   O  ASG B   2      40.945  43.908  59.0000  0.00  0.00     0.000 OA
ATOM     32   O  ASG B   2      39.167  45.463  59.5200  0.00  0.00     0.000 OA
ATOM     33   S  ASG B   2      39.575  44.060  59.4320  0.00  0.00     0.000 S
ENDBRANCH 18 29
BRANCH 15 34
ATOM     34  O4  ASG B   3      35.574  42.156  55.0900  0.00  0.00     0.000 O
BRANCH 34 38
ATOM     35  C1  GCT B   3      33.409  42.058  51.6740  0.00  0.00     0.000 C
ATOM     36  C2  GCT B   3      33.646  40.697  52.2930  0.00  0.00     0.000 C
ATOM     37  C3  GCT B   3      34.063  40.830  53.7500  0.00  0.00     0.000 C
ATOM     38  C4  GCT B   3      35.353  41.656  53.8320  0.00  0.00     0.000 C
ATOM     39  C5  GCT B   3      35.411  42.750  52.7420  0.00  0.00     0.000 C
ATOM     40  O5  GCT B   3      34.069  43.073  52.4220  0.00  0.00     0.000 O
ATOM     41   O  GCT B   3      32.417  39.990  52.1940  0.00  0.00     0.000 O
ATOM     43  HD  GCT B   3      32.026  39.595  51.5310  0.00  0.00     0.000 HD
ATOM     43   O  GCT B   3      34.208  39.507  54.3090  0.00  0.00     0.000 O
ATOM     45  HD  GCT B   3      33.817  39.112  53.6450  0.00  0.00     0.000 HD
BRANCH 39 45
ATOM     45   C  GCT B   3      36.172  42.456  51.4670  0.00  0.00     0.000 C
ATOM     46   O  GCT B   3      36.157  43.302  50.5190  0.00  0.00     0.000 OA
ATOM     47   O  GCT B   3      36.803  41.388  51.4040  0.00  0.00     0.000 OA
ENDBRANCH 39 45
BRANCH 35 48
ATOM     48  O3  ASG B   4      33.310  41.931  50.3680  0.00  0.00     0.000 O
BRANCH 48 51
ATOM     49  C1  ASG B   4      30.535  41.815  47.9250  0.00  0.00     0.000 C
ATOM     50  C2  ASG B   4      31.868  41.480  48.6150  0.00  0.00     0.000 C
ATOM     51  C3  ASG B   4      31.964  42.147  49.9840  0.00  0.00     0.000 C
ATOM     52  C4  ASG B   4      31.634  43.628  49.8990  0.00  0.00     0.000 C
ATOM     53  C5  ASG B   4      30.268  43.772  49.2330  0.00  0.00     0.000 C
ATOM     54  O5  ASG B   4      30.330  43.218  47.9040  0.00  0.00     0.000 O
BRANCH 50 57
ATOM     55   N  ASG B   4      32.181  40.086  48.8320  0.00  0.00     0.000 N
ATOM     57  HD  ASG B   4      32.162  39.833  48.0040  0.00  0.00     0.000 HD
ATOM     57   O  ASG B   4      33.104  39.779  46.8150  0.00  0.00     0.000 OA
ATOM     58   C  ASG B   4      32.875  39.364  47.9470  0.00  0.00     0.000 C
ATOM     59   C  ASG B   4      33.302  38.006  48.4120  0.00  0.00     0.000 C
ENDBRANCH 50 57
BRANCH 52 60
ATOM     60   O  ASG B   4      32.765  44.192  49.1180  0.00  0.00     0.000 O
ATOM     61   O  ASG B   4      33.264  45.922  50.8460  0.00  0.00     0.000 OA
ATOM     62   O  ASG B   4      34.695  45.686  48.9580  0.00  0.00     0.000 OA
ATOM     63   O  ASG B   4      32.438  46.405  48.6280  0.00  0.00     0.000 OA
ATOM     64   S  ASG B   4      33.373  45.636  49.4550  0.00  0.00     0.000 S
ENDBRANCH 52 60
ATOM     65   O  ASG B   4      28.373  45.227  48.8150  0.00  0.00     0.000 O
ATOM     67  HD  ASG B   4      28.383  45.004  47.9780  0.00  0.00     0.000 HD
ATOM     67   O  ASG B   4      28.373  45.227  48.8150  0.00  0.00     0.000 O
ATOM     69  HD  ASG B   4      28.383  45.004  47.9780  0.00  0.00     0.000 HD
ENDBRANCH 48 51
ENDBRANCH 35 48
ENDBRANCH 34 38
ENDBRANCH 15 34
ENDBRANCH 14 17
ENDBRANCH 1 14
TORSDOF 12
ENDMDL
MODEL 55
REMARK VINA RESULT:      -2.1      8.061     11.908
ROOT
ATOM      1  C1  GAD B   1      13.807  74.076  44.1330  0.00  0.00     0.000 C
ATOM      2  C2  GAD B   1      14.623  72.920  44.7220  0.00  0.00     0.000 C
ATOM      3  C3  GAD B   1      15.908  73.456  45.3640  0.00  0.00     0.000 C
ATOM      4  C4  GAD B   1      16.486  74.701  44.6850  0.00  0.00     0.000 C
ATOM      5  C5  GAD B   1      15.865  75.389  43.7060  0.00  0.00     0.000 C
ATOM      6  O5  GAD B   1      14.598  74.881  43.2460  0.00  0.00     0.000 O
ATOM      7   O  GAD B   1      13.814  72.109  45.6520  0.00  0.00     0.000 O
ATOM      9  HD  GAD B   1      13.178  72.545  45.2570  0.00  0.00     0.000 HD
ATOM      9   O  GAD B   1      16.961  72.467  45.3510  0.00  0.00     0.000 O
ATOM     11  HD  GAD B   1      16.326  72.903  44.9560  0.00  0.00     0.000 HD
ENDROOT
BRANCH 5 11
ATOM     11   C  GAD B   1      16.365  76.653  43.1160  0.00  0.00     0.000 C
ATOM     12   O  GAD B   1      15.495  77.454  42.6520  0.00  0.00     0.000 OA
ATOM     13   O  GAD B   1      17.630  76.864  43.0170  0.00  0.00     0.000 OA
ENDBRANCH 5 11
BRANCH 1 14
ATOM     14  O3  ASG B   2      12.877  73.925  43.1720  0.00  0.00     0.000 O
BRANCH 14 17
ATOM     15  C1  ASG B   2      10.339  71.380  42.0050  0.00  0.00     0.000 C
ATOM     16  C2  ASG B   2      11.637  72.199  41.9590  0.00  0.00     0.000 C
ATOM     17  C3  ASG B   2      11.680  73.139  43.1670  0.00  0.00     0.000 C
ATOM     18  C4  ASG B   2      10.470  74.054  43.1550  0.00  0.00     0.000 C
ATOM     19  C5  ASG B   2       9.204  73.205  43.0740  0.00  0.00     0.000 C
ATOM     20  O5  ASG B   2       9.279  72.315  41.9430  0.00  0.00     0.000 O
ATOM     21   C  ASG B   2       7.968  74.025  42.8900  0.00  0.00     0.000 C
ATOM     22   O  ASG B   2       6.882  73.175  42.6120  0.00  0.00     0.000 O
ATOM     24  HD  ASG B   2       6.133  72.779  42.4370  0.00  0.00     0.000 HD
BRANCH 16 26
ATOM     24   N  ASG B   2      12.849  71.416  41.8750  0.00  0.00     0.000 N
ATOM     26  HD  ASG B   2      12.083  71.114  41.6050  0.00  0.00     0.000 HD
ATOM     26   C  ASG B   2      13.936  71.785  41.1730  0.00  0.00     0.000 C
ATOM     27   C  ASG B   2      15.193  71.042  41.4730  0.00  0.00     0.000 C
ATOM     28   O  ASG B   2      13.890  72.680  40.3380  0.00  0.00     0.000 OA
ENDBRANCH 16 26
BRANCH 18 29
ATOM     29   O  ASG B   2      10.633  74.945  41.9980  0.00  0.00     0.000 O
ATOM     30   O  ASG B   2       9.551  76.872  43.0750  0.00  0.00     0.000 OA
ATOM     31   O  ASG B   2      11.960  76.844  42.7810  0.00  0.00     0.000 OA
ATOM     32   O  ASG B   2      10.510  77.073  40.8610  0.00  0.00     0.000 OA
ATOM     33   S  ASG B   2      10.669  76.538  42.2130  0.00  0.00     0.000 S
ENDBRANCH 18 29
BRANCH 15 34
ATOM     34  O4  ASG B   3      10.205  70.481  40.9420  0.00  0.00     0.000 O
BRANCH 34 38
ATOM     35  C1  GCT B   3       7.092  68.365  42.4250  0.00  0.00     0.000 C
ATOM     36  C2  GCT B   3       8.433  67.682  42.5840  0.00  0.00     0.000 C
ATOM     37  C3  GCT B   3       9.572  68.678  42.4200  0.00  0.00     0.000 C
ATOM     38  C4  GCT B   3       9.488  69.314  41.0270  0.00  0.00     0.000 C
ATOM     39  C5  GCT B   3       8.027  69.481  40.5530  0.00  0.00     0.000 C
ATOM     40  O5  GCT B   3       7.233  69.594  41.7200  0.00  0.00     0.000 O
ATOM     41   O  GCT B   3       8.449  67.125  43.8910  0.00  0.00     0.000 O
ATOM     43  HD  GCT B   3       8.076  66.420  44.2270  0.00  0.00     0.000 HD
ATOM     43   O  GCT B   3      10.820  67.991  42.6500  0.00  0.00     0.000 O
ATOM     45  HD  GCT B   3      10.447  67.286  42.9850  0.00  0.00     0.000 HD
BRANCH 39 45
ATOM     45   C  GCT B   3       7.439  68.420  39.6480  0.00  0.00     0.000 C
ATOM     46   O  GCT B   3       6.257  68.561  39.2020  0.00  0.00     0.000 OA
ATOM     47   O  GCT B   3       8.152  67.445  39.3610  0.00  0.00     0.000 OA
ENDBRANCH 39 45
BRANCH 35 48
ATOM     48  O3  ASG B   4       6.150  67.453  42.3080  0.00  0.00     0.000 O
BRANCH 48 51
ATOM     49  C1  ASG B   4       3.257  68.118  44.5170  0.00  0.00     0.000 C
ATOM     50  C2  ASG B   4       4.685  67.755  44.0750  0.00  0.00     0.000 C
ATOM     51  C3  ASG B   4       4.896  68.048  42.5920  0.00  0.00     0.000 C
ATOM     52  C4  ASG B   4       3.784  67.444  41.7490  0.00  0.00     0.000 C
ATOM     53  C5  ASG B   4       2.450  67.942  42.2960  0.00  0.00     0.000 C
ATOM     54  O5  ASG B   4       2.307  67.505  43.6610  0.00  0.00     0.000 O
BRANCH 50 57
ATOM     55   N  ASG B   4       5.231  68.593  45.1180  0.00  0.00     0.000 N
ATOM     57  HD  ASG B   4       5.125  68.040  45.7760  0.00  0.00     0.000 HD
ATOM     57   O  ASG B   4       5.873  66.887  46.4190  0.00  0.00     0.000 OA
ATOM     58   C  ASG B   4       5.882  68.089  46.1710  0.00  0.00     0.000 C
ATOM     59   C  ASG B   4       6.570  69.090  47.0460  0.00  0.00     0.000 C
ENDBRANCH 50 57
BRANCH 52 60
ATOM     60   O  ASG B   4       4.000  65.981  41.8850  0.00  0.00     0.000 O
ATOM     61   O  ASG B   4       4.724  65.737  39.5080  0.00  0.00     0.000 OA
ATOM     62   O  ASG B   4       4.832  63.867  40.9780  0.00  0.00     0.000 OA
ATOM     63   O  ASG B   4       2.698  64.792  40.4230  0.00  0.00     0.000 OA
ATOM     64   S  ASG B   4       4.133  65.034  40.5970  0.00  0.00     0.000 S
ENDBRANCH 52 60
ATOM     65   O  ASG B   4       0.080  68.234  41.8710  0.00  0.00     0.000 O
ATOM     67  HD  ASG B   4      -0.103  67.912  42.6540  0.00  0.00     0.000 HD
ATOM     67   O  ASG B   4       0.080  68.234  41.8710  0.00  0.00     0.000 O
ATOM     69  HD  ASG B   4      -0.103  67.912  42.6540  0.00  0.00     0.000 HD
ENDBRANCH 48 51
ENDBRANCH 35 48
ENDBRANCH 34 38
ENDBRANCH 15 34
ENDBRANCH 14 17
ENDBRANCH 1 14
TORSDOF 12
ENDMDL
MODEL 56
REMARK VINA RESULT:      -2.1     16.311     22.801
ROOT
ATOM      1  C1  GAD B   1      20.140  65.652  23.8120  0.00  0.00     0.000 C
ATOM      2  C2  GAD B   1      20.451  66.373  22.4970  0.00  0.00     0.000 C
ATOM      3  C3  GAD B   1      21.223  67.668  22.7760  0.00  0.00     0.000 C
ATOM      4  C4  GAD B   1      20.868  68.346  24.1020  0.00  0.00     0.000 C
ATOM      5  C5  GAD B   1      20.069  67.803  25.0430  0.00  0.00     0.000 C
ATOM      6  O5  GAD B   1      19.482  66.521  24.7470  0.00  0.00     0.000 O
ATOM      7   O  GAD B   1      21.148  65.484  21.5480  0.00  0.00     0.000 O
ATOM      9  HD  GAD B   1      20.858  64.891  22.1080  0.00  0.00     0.000 HD
ATOM      9   O  GAD B   1      20.992  68.656  21.7470  0.00  0.00     0.000 O
ATOM     11  HD  GAD B   1      20.701  68.063  22.3070  0.00  0.00     0.000 HD
ENDROOT
BRANCH 5 11
ATOM     11   C  GAD B   1      19.805  68.401  26.3720  0.00  0.00     0.000 C
ATOM     12   O  GAD B   1      19.242  67.658  27.2350  0.00  0.00     0.000 OA
ATOM     13   O  GAD B   1      20.068  69.642  26.5860  0.00  0.00     0.000 OA
ENDBRANCH 5 11
BRANCH 1 14
ATOM     14  O3  ASG B   2      19.155  64.746  23.9580  0.00  0.00     0.000 O
BRANCH 14 17
ATOM     15  C1  ASG B   2      16.093  64.142  26.0880  0.00  0.00     0.000 C
ATOM     16  C2  ASG B   2      17.528  63.921  25.5890  0.00  0.00     0.000 C
ATOM     17  C3  ASG B   2      17.823  64.910  24.4580  0.00  0.00     0.000 C
ATOM     18  C4  ASG B   2      16.828  64.717  23.3290  0.00  0.00     0.000 C
ATOM     19  C5  ASG B   2      15.413  64.820  23.8880  0.00  0.00     0.000 C
ATOM     20  O5  ASG B   2      15.246  63.895  24.9810  0.00  0.00     0.000 O
ATOM     21   C  ASG B   2      14.364  64.479  22.8790  0.00  0.00     0.000 C
ATOM     22   O  ASG B   2      13.114  64.388  23.5170  0.00  0.00     0.000 O
ATOM     24  HD  ASG B   2      12.291  64.302  23.7730  0.00  0.00     0.000 HD
BRANCH 16 26
ATOM     24   N  ASG B   2      18.628  63.004  25.7820  0.00  0.00     0.000 N
ATOM     26  HD  ASG B   2      18.452  63.361  25.0120  0.00  0.00     0.000 HD
ATOM     26   C  ASG B   2      19.650  63.223  26.6290  0.00  0.00     0.000 C
ATOM     27   C  ASG B   2      20.498  62.041  26.9520  0.00  0.00     0.000 C
ATOM     28   O  ASG B   2      19.867  64.330  27.1050  0.00  0.00     0.000 OA
ENDBRANCH 16 26
BRANCH 18 29
ATOM     29   O  ASG B   2      17.114  63.402  22.7410  0.00  0.00     0.000 O
ATOM     30   O  ASG B   2      16.469  64.055  20.4610  0.00  0.00     0.000 OA
ATOM     31   O  ASG B   2      18.814  63.776  21.0230  0.00  0.00     0.000 OA
ATOM     32   O  ASG B   2      17.360  61.848  20.9070  0.00  0.00     0.000 OA
ATOM     33   S  ASG B   2      17.466  63.282  21.1770  0.00  0.00     0.000 S
ENDBRANCH 18 29
BRANCH 15 34
ATOM     34  O4  ASG B   3      15.724  63.287  27.1320  0.00  0.00     0.000 O
BRANCH 34 38
ATOM     35  C1  GCT B   3      13.512  60.173  28.4670  0.00  0.00     0.000 C
ATOM     36  C2  GCT B   3      14.854  59.774  27.8910  0.00  0.00     0.000 C
ATOM     37  C3  GCT B   3      15.790  60.972  27.8190  0.00  0.00     0.000 C
ATOM     38  C4  GCT B   3      15.159  62.052  26.9330  0.00  0.00     0.000 C
ATOM     39  C5  GCT B   3      13.619  62.079  27.0580  0.00  0.00     0.000 C
ATOM     40  O5  GCT B   3      13.310  61.577  28.3470  0.00  0.00     0.000 O
ATOM     41   O  GCT B   3      15.386  58.784  28.7590  0.00  0.00     0.000 O
ATOM     43  HD  GCT B   3      15.206  57.943  28.8610  0.00  0.00     0.000 HD
ATOM     43   O  GCT B   3      17.072  60.524  27.3310  0.00  0.00     0.000 O
ATOM     45  HD  GCT B   3      16.892  59.683  27.4330  0.00  0.00     0.000 HD
BRANCH 39 45
ATOM     45   C  GCT B   3      12.800  61.339  26.0230  0.00  0.00     0.000 C
ATOM     46   O  GCT B   3      13.390  60.679  25.1110  0.00  0.00     0.000 OA
ATOM     47   O  GCT B   3      11.563  61.396  26.1170  0.00  0.00     0.000 OA
ENDBRANCH 39 45
BRANCH 35 48
ATOM     48  O3  ASG B   4      12.649  59.199  28.2750  0.00  0.00     0.000 O
BRANCH 48 51
ATOM     49  C1  ASG B   4      10.910  57.108  30.7830  0.00  0.00     0.000 C
ATOM     50  C2  ASG B   4      11.897  57.518  29.6770  0.00  0.00     0.000 C
ATOM     51  C3  ASG B   4      11.878  59.027  29.4510  0.00  0.00     0.000 C
ATOM     52  C4  ASG B   4      10.459  59.539  29.2730  0.00  0.00     0.000 C
ATOM     53  C5  ASG B   4       9.635  59.081  30.4740  0.00  0.00     0.000 C
ATOM     54  O5  ASG B   4       9.623  57.641  30.5170  0.00  0.00     0.000 O
BRANCH 50 57
ATOM     55   N  ASG B   4      13.107  56.958  30.2360  0.00  0.00     0.000 N
ATOM     57  HD  ASG B   4      12.927  56.124  30.0860  0.00  0.00     0.000 HD
ATOM     57   O  ASG B   4      13.075  55.118  28.9590  0.00  0.00     0.000 OA
ATOM     58   C  ASG B   4      13.664  55.842  29.7560  0.00  0.00     0.000 C
ATOM     59   C  ASG B   4      15.022  55.512  30.2960  0.00  0.00     0.000 C
ENDBRANCH 50 57
BRANCH 52 60
ATOM     60   O  ASG B   4      10.038  58.952  27.9750  0.00  0.00     0.000 O
ATOM     61   O  ASG B   4       8.590  60.906  27.4140  0.00  0.00     0.000 OA
ATOM     62   O  ASG B   4       8.904  59.168  25.8180  0.00  0.00     0.000 OA
ATOM     63   O  ASG B   4       7.766  58.680  27.8640  0.00  0.00     0.000 OA
ATOM     64   S  ASG B   4       8.762  59.512  27.1810  0.00  0.00     0.000 S
ENDBRANCH 52 60
ATOM     65   O  ASG B   4       7.603  59.392  31.7610  0.00  0.00     0.000 O
ATOM     67  HD  ASG B   4       7.477  58.535  31.7740  0.00  0.00     0.000 HD
ATOM     67   O  ASG B   4       7.603  59.392  31.7610  0.00  0.00     0.000 O
ATOM     69  HD  ASG B   4       7.477  58.535  31.7740  0.00  0.00     0.000 HD
ENDBRANCH 48 51
ENDBRANCH 35 48
ENDBRANCH 34 38
ENDBRANCH 15 34
ENDBRANCH 14 17
ENDBRANCH 1 14
TORSDOF 12
ENDMDL
MODEL 57
REMARK VINA RESULT:      -2.1      9.323     14.163
ROOT
ATOM      1  C1  GAD B   1       9.719  78.194  44.4660  0.00  0.00     0.000 C
ATOM      2  C2  GAD B   1      10.265  78.797  45.7640  0.00  0.00     0.000 C
ATOM      3  C3  GAD B   1       9.807  80.254  45.9000  0.00  0.00     0.000 C
ATOM      4  C4  GAD B   1       9.645  80.996  44.5710  0.00  0.00     0.000 C
ATOM      5  C5  GAD B   1       9.734  80.411  43.3600  0.00  0.00     0.000 C
ATOM      6  O5  GAD B   1      10.047  79.006  43.3290  0.00  0.00     0.000 O
ATOM      7   O  GAD B   1       9.904  77.973  46.9340  0.00  0.00     0.000 O
ATOM      9  HD  GAD B   1       9.734  77.404  46.3030  0.00  0.00     0.000 HD
ATOM      9   O  GAD B   1      10.739  81.033  46.6830  0.00  0.00     0.000 O
ATOM     11  HD  GAD B   1      10.569  80.464  46.0530  0.00  0.00     0.000 HD
ENDROOT
BRANCH 5 11
ATOM     11   C  GAD B   1       9.474  81.096  42.0720  0.00  0.00     0.000 C
ATOM     12   O  GAD B   1      10.216  80.777  41.0910  0.00  0.00     0.000 OA
ATOM     13   O  GAD B   1       8.589  82.026  42.0010  0.00  0.00     0.000 OA
ENDBRANCH 5 11
BRANCH 1 14
ATOM     14  O3  ASG B   2      10.252  77.119  43.8550  0.00  0.00     0.000 O
BRANCH 14 17
ATOM     15  C1  ASG B   2       9.043  73.861  42.3710  0.00  0.00     0.000 C
ATOM     16  C2  ASG B   2       9.680  74.779  43.4230  0.00  0.00     0.000 C
ATOM     17  C3  ASG B   2       9.668  76.220  42.9050  0.00  0.00     0.000 C
ATOM     18  C4  ASG B   2      10.424  76.305  41.5930  0.00  0.00     0.000 C
ATOM     19  C5  ASG B   2       9.841  75.290  40.6150  0.00  0.00     0.000 C
ATOM     20  O5  ASG B   2       9.842  73.977  41.2080  0.00  0.00     0.000 O
ATOM     21   C  ASG B   2      10.630  75.185  39.3490  0.00  0.00     0.000 C
ATOM     22   O  ASG B   2      10.163  74.092  38.5980  0.00  0.00     0.000 O
ATOM     24  HD  ASG B   2       9.980  73.460  38.0350  0.00  0.00     0.000 HD
BRANCH 16 26
ATOM     24   N  ASG B   2      10.369  74.636  44.6850  0.00  0.00     0.000 N
ATOM     26  HD  ASG B   2      10.608  75.220  44.0920  0.00  0.00     0.000 HD
ATOM     26   C  ASG B   2       9.784  74.804  45.8850  0.00  0.00     0.000 C
ATOM     27   C  ASG B   2      10.541  74.288  47.0610  0.00  0.00     0.000 C
ATOM     28   O  ASG B   2       8.693  75.349  46.0000  0.00  0.00     0.000 OA
ENDBRANCH 16 26
BRANCH 18 29
ATOM     29   O  ASG B   2      11.836  76.047  41.9070  0.00  0.00     0.000 O
ATOM     30   O  ASG B   2      12.708  77.496  40.1230  0.00  0.00     0.000 OA
ATOM     31   O  ASG B   2      12.826  78.219  42.4380  0.00  0.00     0.000 OA
ATOM     32   O  ASG B   2      14.215  76.396  41.6680  0.00  0.00     0.000 OA
ATOM     33   S  ASG B   2      12.957  77.126  41.5040  0.00  0.00     0.000 S
ENDBRANCH 18 29
BRANCH 15 34
ATOM     34  O4  ASG B   3       8.999  72.515  42.7510  0.00  0.00     0.000 O
BRANCH 34 38
ATOM     35  C1  GCT B   3       5.398  70.676  42.8510  0.00  0.00     0.000 C
ATOM     36  C2  GCT B   3       5.485  71.906  43.7280  0.00  0.00     0.000 C
ATOM     37  C3  GCT B   3       6.667  72.776  43.3230  0.00  0.00     0.000 C
ATOM     38  C4  GCT B   3       7.961  71.964  43.4580  0.00  0.00     0.000 C
ATOM     39  C5  GCT B   3       7.745  70.471  43.1240  0.00  0.00     0.000 C
ATOM     40  O5  GCT B   3       6.650  70.410  42.2280  0.00  0.00     0.000 O
ATOM     41   O  GCT B   3       4.267  72.615  43.5500  0.00  0.00     0.000 O
ATOM     43  HD  GCT B   3       3.468  72.482  43.8560  0.00  0.00     0.000 HD
ATOM     43   O  GCT B   3       6.663  73.965  44.1410  0.00  0.00     0.000 O
ATOM     45  HD  GCT B   3       5.864  73.833  44.4470  0.00  0.00     0.000 HD
BRANCH 39 45
ATOM     45   C  GCT B   3       7.511  69.505  44.2660  0.00  0.00     0.000 C
ATOM     46   O  GCT B   3       7.420  69.948  45.4540  0.00  0.00     0.000 OA
ATOM     47   O  GCT B   3       7.401  68.299  43.9890  0.00  0.00     0.000 OA
ENDBRANCH 39 45
BRANCH 35 48
ATOM     48  O3  ASG B   4       4.547  69.824  43.3810  0.00  0.00     0.000 O
BRANCH 48 51
ATOM     49  C1  ASG B   4       2.043  68.201  41.1930  0.00  0.00     0.000 C
ATOM     50  C2  ASG B   4       2.717  69.263  42.0780  0.00  0.00     0.000 C
ATOM     51  C3  ASG B   4       4.161  68.883  42.3940  0.00  0.00     0.000 C
ATOM     52  C4  ASG B   4       4.254  67.456  42.9100  0.00  0.00     0.000 C
ATOM     53  C5  ASG B   4       3.579  66.539  41.8940  0.00  0.00     0.000 C
ATOM     54  O5  ASG B   4       2.194  66.913  41.7670  0.00  0.00     0.000 O
BRANCH 50 57
ATOM     55   N  ASG B   4       2.488  70.393  41.2070  0.00  0.00     0.000 N
ATOM     57  HD  ASG B   4       1.641  70.489  41.3640  0.00  0.00     0.000 HD
ATOM     57   O  ASG B   4       0.748  71.185  42.3740  0.00  0.00     0.000 OA
ATOM     58   C  ASG B   4       1.579  71.333  41.4830  0.00  0.00     0.000 C
ATOM     59   C  ASG B   4       1.611  72.544  40.6010  0.00  0.00     0.000 C
ENDBRANCH 50 57
BRANCH 52 60
ATOM     60   O  ASG B   4       3.577  67.519  44.2310  0.00  0.00     0.000 O
ATOM     61   O  ASG B   4       5.338  66.143  45.3430  0.00  0.00     0.000 OA
ATOM     62   O  ASG B   4       3.587  67.103  46.6410  0.00  0.00     0.000 OA
ATOM     63   O  ASG B   4       3.052  65.433  45.0150  0.00  0.00     0.000 OA
ATOM     64   S  ASG B   4       3.963  66.510  45.4140  0.00  0.00     0.000 S
ENDBRANCH 52 60
ATOM     65   O  ASG B   4       3.302  64.263  41.1050  0.00  0.00     0.000 O
ATOM     67  HD  ASG B   4       2.445  64.377  41.0680  0.00  0.00     0.000 HD
ATOM     67   O  ASG B   4       3.302  64.263  41.1050  0.00  0.00     0.000 O
ATOM     69  HD  ASG B   4       2.445  64.377  41.0680  0.00  0.00     0.000 HD
ENDBRANCH 48 51
ENDBRANCH 35 48
ENDBRANCH 34 38
ENDBRANCH 15 34
ENDBRANCH 14 17
ENDBRANCH 1 14
TORSDOF 12
ENDMDL
MODEL 58
REMARK VINA RESULT:      -1.9     28.656     34.719
ROOT
ATOM      1  C1  GAD B   1      38.992  46.125  58.0050  0.00  0.00     0.000 C
ATOM      2  C2  GAD B   1      39.686  46.270  59.3620  0.00  0.00     0.000 C
ATOM      3  C3  GAD B   1      40.530  47.550  59.3880  0.00  0.00     0.000 C
ATOM      4  C4  GAD B   1      41.126  47.945  58.0340  0.00  0.00     0.000 C
ATOM      5  C5  GAD B   1      40.830  47.337  56.8680  0.00  0.00     0.000 C
ATOM      6  O5  GAD B   1      39.928  46.215  56.9210  0.00  0.00     0.000 O
ATOM      7   O  GAD B   1      38.717  46.201  60.4730  0.00  0.00     0.000 O
ATOM      9  HD  GAD B   1      38.222  45.886  59.8350  0.00  0.00     0.000 HD
ATOM      9   O  GAD B   1      41.646  47.432  60.2990  0.00  0.00     0.000 O
ATOM     11  HD  GAD B   1      41.151  47.118  59.6610  0.00  0.00     0.000 HD
ENDROOT
BRANCH 5 11
ATOM     11   C  GAD B   1      41.318  47.777  55.5400  0.00  0.00     0.000 C
ATOM     12   O  GAD B   1      41.656  48.997  55.4270  0.00  0.00     0.000 OA
ATOM     13   O  GAD B   1      41.312  46.961  54.5460  0.00  0.00     0.000 OA
ENDBRANCH 5 11
BRANCH 1 14
ATOM     14  O3  ASG B   2      38.534  44.957  57.5150  0.00  0.00     0.000 O
BRANCH 14 17
ATOM     15  C1  ASG B   2      35.432  43.758  55.7220  0.00  0.00     0.000 C
ATOM     16  C2  ASG B   2      36.363  43.999  56.9190  0.00  0.00     0.000 C
ATOM     17  C3  ASG B   2      37.632  44.706  56.4320  0.00  0.00     0.000 C
ATOM     18  C4  ASG B   2      38.323  43.862  55.3780  0.00  0.00     0.000 C
ATOM     19  C5  ASG B   2      37.328  43.540  54.2670  0.00  0.00     0.000 C
ATOM     20  O5  ASG B   2      36.147  42.930  54.8240  0.00  0.00     0.000 O
ATOM     21   C  ASG B   2      37.873  42.573  53.2650  0.00  0.00     0.000 C
ATOM     22   O  ASG B   2      36.840  42.164  52.4030  0.00  0.00     0.000 O
ATOM     24  HD  ASG B   2      36.310  41.830  51.8050  0.00  0.00     0.000 HD
BRANCH 16 26
ATOM     24   N  ASG B   2      36.410  43.648  58.3190  0.00  0.00     0.000 N
ATOM     26  HD  ASG B   2      37.118  43.655  57.8200  0.00  0.00     0.000 HD
ATOM     26   C  ASG B   2      36.040  44.473  59.3160  0.00  0.00     0.000 C
ATOM     27   C  ASG B   2      35.829  43.840  60.6480  0.00  0.00     0.000 C
ATOM     28   O  ASG B   2      35.885  45.675  59.1330  0.00  0.00     0.000 OA
ENDBRANCH 16 26
BRANCH 18 29
ATOM     29   O  ASG B   2      38.819  42.662  56.0640  0.00  0.00     0.000 O
ATOM     30   O  ASG B   2      40.822  42.439  54.6560  0.00  0.00     0.000 OA
ATOM     31   O  ASG B   2      41.029  43.241  56.9380  0.00  0.00     0.000 OA
ATOM     32   O  ASG B   2      40.446  40.933  56.5140  0.00  0.00     0.000 OA
ATOM     33   S  ASG B   2      40.388  42.314  56.0350  0.00  0.00     0.000 S
ENDBRANCH 18 29
BRANCH 15 34
ATOM     34  O4  ASG B   3      34.235  43.119  56.0620  0.00  0.00     0.000 O
BRANCH 34 38
ATOM     35  C1  GCT B   3      30.671  44.337  57.5390  0.00  0.00     0.000 C
ATOM     36  C2  GCT B   3      30.560  43.440  56.3260  0.00  0.00     0.000 C
ATOM     37  C3  GCT B   3      31.859  42.681  56.0930  0.00  0.00     0.000 C
ATOM     38  C4  GCT B   3      32.998  43.685  55.8790  0.00  0.00     0.000 C
ATOM     39  C5  GCT B   3      32.806  44.968  56.7190  0.00  0.00     0.000 C
ATOM     40  O5  GCT B   3      32.035  44.600  57.8500  0.00  0.00     0.000 O
ATOM     41   O  GCT B   3      29.500  42.533  56.5900  0.00  0.00     0.000 O
ATOM     43  HD  GCT B   3      28.639  42.625  56.5720  0.00  0.00     0.000 HD
ATOM     43   O  GCT B   3      31.677  41.792  54.9710  0.00  0.00     0.000 O
ATOM     45  HD  GCT B   3      30.816  41.884  54.9520  0.00  0.00     0.000 HD
BRANCH 39 45
ATOM     45   C  GCT B   3      32.176  46.174  56.0570  0.00  0.00     0.000 C
ATOM     46   O  GCT B   3      31.779  46.092  54.8520  0.00  0.00     0.000 OA
ATOM     47   O  GCT B   3      32.058  47.209  56.7330  0.00  0.00     0.000 OA
ENDBRANCH 39 45
BRANCH 35 48
ATOM     48  O3  ASG B   4      29.649  45.166  57.5630  0.00  0.00     0.000 O
BRANCH 48 51
ATOM     49  C1  ASG B   4      28.171  45.116  60.9540  0.00  0.00     0.000 C
ATOM     50  C2  ASG B   4      28.644  44.623  59.5760  0.00  0.00     0.000 C
ATOM     51  C3  ASG B   4      29.499  45.676  58.8760  0.00  0.00     0.000 C
ATOM     52  C4  ASG B   4      28.812  47.032  58.8780  0.00  0.00     0.000 C
ATOM     53  C5  ASG B   4      28.455  47.381  60.3200  0.00  0.00     0.000 C
ATOM     54  O5  ASG B   4      27.550  46.385  60.8370  0.00  0.00     0.000 O
BRANCH 50 57
ATOM     55   N  ASG B   4      27.270  44.266  59.3070  0.00  0.00     0.000 N
ATOM     57  HD  ASG B   4      27.419  43.486  58.9620  0.00  0.00     0.000 HD
ATOM     57   O  ASG B   4      27.616  42.057  59.4340  0.00  0.00     0.000 OA
ATOM     58   C  ASG B   4      26.837  43.002  59.3600  0.00  0.00     0.000 C
ATOM     59   C  ASG B   4      25.353  42.822  59.2690  0.00  0.00     0.000 C
ENDBRANCH 50 57
BRANCH 52 60
ATOM     60   O  ASG B   4      27.643  46.830  57.9830  0.00  0.00     0.000 O
ATOM     61   O  ASG B   4      28.693  48.106  56.1120  0.00  0.00     0.000 OA
ATOM     62   O  ASG B   4      26.610  47.005  55.7730  0.00  0.00     0.000 OA
ATOM     63   O  ASG B   4      26.729  48.823  57.3210  0.00  0.00     0.000 OA
ATOM     64   S  ASG B   4      27.439  47.721  56.6660  0.00  0.00     0.000 S
ENDBRANCH 52 60
ATOM     65   O  ASG B   4      27.819  49.134  61.8710  0.00  0.00     0.000 O
ATOM     67  HD  ASG B   4      27.197  48.625  62.1950  0.00  0.00     0.000 HD
ATOM     67   O  ASG B   4      27.819  49.134  61.8710  0.00  0.00     0.000 O
ATOM     69  HD  ASG B   4      27.197  48.625  62.1950  0.00  0.00     0.000 HD
ENDBRANCH 48 51
ENDBRANCH 35 48
ENDBRANCH 34 38
ENDBRANCH 15 34
ENDBRANCH 14 17
ENDBRANCH 1 14
TORSDOF 12
ENDMDL
MODEL 59
REMARK VINA RESULT:      -1.8     34.003     38.094
ROOT
ATOM      1  C1  GAD B   1      41.959  45.878  54.1660  0.00  0.00     0.000 C
ATOM      2  C2  GAD B   1      41.574  47.278  53.6800  0.00  0.00     0.000 C
ATOM      3  C3  GAD B   1      42.610  48.304  54.1540  0.00  0.00     0.000 C
ATOM      4  C4  GAD B   1      43.259  47.974  55.5010  0.00  0.00     0.000 C
ATOM      5  C5  GAD B   1      43.080  46.816  56.1670  0.00  0.00     0.000 C
ATOM      6  O5  GAD B   1      42.181  45.854  55.5840  0.00  0.00     0.000 O
ATOM      7   O  GAD B   1      41.371  47.304  52.2190  0.00  0.00     0.000 O
ATOM      9  HD  GAD B   1      41.352  46.448  52.3480  0.00  0.00     0.000 HD
ATOM      9   O  GAD B   1      42.028  49.618  54.3010  0.00  0.00     0.000 O
ATOM     11  HD  GAD B   1      42.009  48.762  54.4300  0.00  0.00     0.000 HD
ENDROOT
BRANCH 5 11
ATOM     11   C  GAD B   1      43.785  46.444  57.4160  0.00  0.00     0.000 C
ATOM     12   O  GAD B   1      43.608  47.198  58.4230  0.00  0.00     0.000 OA
ATOM     13   O  GAD B   1      44.596  45.445  57.4270  0.00  0.00     0.000 OA
ENDBRANCH 5 11
BRANCH 1 14
ATOM     14  O3  ASG B   2      41.090  44.857  54.2820  0.00  0.00     0.000 O
BRANCH 14 17
ATOM     15  C1  ASG B   2      37.568  43.893  53.3070  0.00  0.00     0.000 C
ATOM     16  C2  ASG B   2      38.710  44.285  54.2550  0.00  0.00     0.000 C
ATOM     17  C3  ASG B   2      39.992  44.485  53.4400  0.00  0.00     0.000 C
ATOM     18  C4  ASG B   2      40.333  43.212  52.6900  0.00  0.00     0.000 C
ATOM     19  C5  ASG B   2      39.128  42.787  51.8550  0.00  0.00     0.000 C
ATOM     20  O5  ASG B   2      37.961  42.679  52.6940  0.00  0.00     0.000 O
ATOM     21   C  ASG B   2      39.313  41.452  51.2090  0.00  0.00     0.000 C
ATOM     22   O  ASG B   2      38.096  41.036  50.6410  0.00  0.00     0.000 O
ATOM     24  HD  ASG B   2      37.423  40.659  50.2480  0.00  0.00     0.000 HD
BRANCH 16 26
ATOM     24   N  ASG B   2      38.583  45.489  55.0420  0.00  0.00     0.000 N
ATOM     26  HD  ASG B   2      37.908  45.127  54.6400  0.00  0.00     0.000 HD
ATOM     26   C  ASG B   2      38.876  45.566  56.3540  0.00  0.00     0.000 C
ATOM     27   C  ASG B   2      39.015  46.939  56.9150  0.00  0.00     0.000 C
ATOM     28   O  ASG B   2      39.018  44.563  57.0420  0.00  0.00     0.000 OA
ENDBRANCH 16 26
BRANCH 18 29
ATOM     29   O  ASG B   2      40.703  42.216  53.7040  0.00  0.00     0.000 O
ATOM     30   O  ASG B   2      42.395  41.117  52.3000  0.00  0.00     0.000 OA
ATOM     31   O  ASG B   2      43.087  42.540  54.1400  0.00  0.00     0.000 OA
ATOM     32   O  ASG B   2      42.040  40.407  54.5880  0.00  0.00     0.000 OA
ATOM     33   S  ASG B   2      42.160  41.539  53.6680  0.00  0.00     0.000 S
ENDBRANCH 18 29
BRANCH 15 34
ATOM     34  O4  ASG B   3      36.345  43.691  53.9550  0.00  0.00     0.000 O
BRANCH 34 38
ATOM     35  C1  GCT B   3      33.921  41.210  56.0370  0.00  0.00     0.000 C
ATOM     36  C2  GCT B   3      34.767  42.116  56.9050  0.00  0.00     0.000 C
ATOM     37  C3  GCT B   3      35.307  43.289  56.0990  0.00  0.00     0.000 C
ATOM     38  C4  GCT B   3      36.159  42.755  54.9410  0.00  0.00     0.000 C
ATOM     39  C5  GCT B   3      35.616  41.416  54.3910  0.00  0.00     0.000 C
ATOM     40  O5  GCT B   3      34.225  41.403  54.6600  0.00  0.00     0.000 O
ATOM     41   O  GCT B   3      33.921  42.581  57.9470  0.00  0.00     0.000 O
ATOM     43  HD  GCT B   3      33.627  42.204  58.6680  0.00  0.00     0.000 HD
ATOM     43   O  GCT B   3      36.046  44.155  56.9860  0.00  0.00     0.000 O
ATOM     45  HD  GCT B   3      35.751  43.777  57.7080  0.00  0.00     0.000 HD
BRANCH 39 45
ATOM     45   C  GCT B   3      36.235  40.129  54.8910  0.00  0.00     0.000 C
ATOM     46   O  GCT B   3      37.172  40.176  55.7490  0.00  0.00     0.000 OA
ATOM     47   O  GCT B   3      35.786  39.061  54.4450  0.00  0.00     0.000 OA
ENDBRANCH 39 45
BRANCH 35 48
ATOM     48  O3  ASG B   4      33.691  40.084  56.6780  0.00  0.00     0.000 O
BRANCH 48 51
ATOM     49  C1  ASG B   4      30.807  38.524  58.3930  0.00  0.00     0.000 C
ATOM     50  C2  ASG B   4      32.262  38.888  58.0520  0.00  0.00     0.000 C
ATOM     51  C3  ASG B   4      32.323  40.035  57.0480  0.00  0.00     0.000 C
ATOM     52  C4  ASG B   4      31.427  39.767  55.8500  0.00  0.00     0.000 C
ATOM     53  C5  ASG B   4      30.022  39.470  56.3670  0.00  0.00     0.000 C
ATOM     54  O5  ASG B   4      30.065  38.299  57.2050  0.00  0.00     0.000 O
BRANCH 50 57
ATOM     55   N  ASG B   4      33.349  39.259  58.9300  0.00  0.00     0.000 N
ATOM     57  HD  ASG B   4      33.266  38.609  59.4960  0.00  0.00     0.000 HD
ATOM     57   O  ASG B   4      33.735  37.174  59.6500  0.00  0.00     0.000 OA
ATOM     58   C  ASG B   4      34.076  38.351  59.5870  0.00  0.00     0.000 C
ATOM     59   C  ASG B   4      35.295  38.877  60.2810  0.00  0.00     0.000 C
ENDBRANCH 50 57
BRANCH 52 60
ATOM     60   O  ASG B   4      32.089  38.625  55.1690  0.00  0.00     0.000 O
ATOM     61   O  ASG B   4      31.918  39.700  52.9220  0.00  0.00     0.000 OA
ATOM     62   O  ASG B   4      33.096  37.645  53.1670  0.00  0.00     0.000 OA
ATOM     63   O  ASG B   4      30.740  37.693  53.5700  0.00  0.00     0.000 OA
ATOM     64   S  ASG B   4      32.002  38.439  53.5790  0.00  0.00     0.000 S
ENDBRANCH 52 60
ATOM     65   O  ASG B   4      27.665  39.304  55.8180  0.00  0.00     0.000 O
ATOM     67  HD  ASG B   4      27.616  38.550  56.2420  0.00  0.00     0.000 HD
ATOM     67   O  ASG B   4      27.665  39.304  55.8180  0.00  0.00     0.000 O
ATOM     69  HD  ASG B   4      27.616  38.550  56.2420  0.00  0.00     0.000 HD
ENDBRANCH 48 51
ENDBRANCH 35 48
ENDBRANCH 34 38
ENDBRANCH 15 34
ENDBRANCH 14 17
ENDBRANCH 1 14
TORSDOF 12
ENDMDL
MODEL 60
REMARK VINA RESULT:      -1.8     27.212     34.601
ROOT
ATOM      1  C1  GAD B   1      40.224  46.614  58.4280  0.00  0.00     0.000 C
ATOM      2  C2  GAD B   1      40.699  45.759  59.6080  0.00  0.00     0.000 C
ATOM      3  C3  GAD B   1      41.799  46.495  60.3820  0.00  0.00     0.000 C
ATOM      4  C4  GAD B   1      42.686  47.398  59.5210  0.00  0.00     0.000 C
ATOM      5  C5  GAD B   1      42.455  47.673  58.2220  0.00  0.00     0.000 C
ATOM      6  O5  GAD B   1      41.323  47.032  57.6040  0.00  0.00     0.000 O
ATOM      7   O  GAD B   1      39.570  45.353  60.4660  0.00  0.00     0.000 O
ATOM      9  HD  GAD B   1      39.128  45.611  59.7670  0.00  0.00     0.000 HD
ATOM      9   O  GAD B   1      42.691  45.570  61.0440  0.00  0.00     0.000 O
ATOM     11  HD  GAD B   1      42.250  45.829  60.3450  0.00  0.00     0.000 HD
ENDROOT
BRANCH 5 11
ATOM     11   C  GAD B   1      43.245  48.627  57.4080  0.00  0.00     0.000 C
ATOM     12   O  GAD B   1      43.017  48.644  56.1590  0.00  0.00     0.000 OA
ATOM     13   O  GAD B   1      44.168  49.335  57.9570  0.00  0.00     0.000 OA
ENDBRANCH 5 11
BRANCH 1 14
ATOM     14  O3  ASG B   2      39.597  46.119  57.3450  0.00  0.00     0.000 O
BRANCH 14 17
ATOM     15  C1  ASG B   2      36.564  46.982  55.2630  0.00  0.00     0.000 C
ATOM     16  C2  ASG B   2      37.373  46.231  56.3300  0.00  0.00     0.000 C
ATOM     17  C3  ASG B   2      38.800  46.786  56.3600  0.00  0.00     0.000 C
ATOM     18  C4  ASG B   2      39.444  46.633  54.9950  0.00  0.00     0.000 C
ATOM     19  C5  ASG B   2      38.548  47.284  53.9460  0.00  0.00     0.000 C
ATOM     20  O5  ASG B   2      37.216  46.741  54.0300  0.00  0.00     0.000 O
ATOM     21   C  ASG B   2      39.020  47.038  52.5480  0.00  0.00     0.000 C
ATOM     22   O  ASG B   2      38.040  47.478  51.6410  0.00  0.00     0.000 O
ATOM     24  HD  ASG B   2      37.534  47.705  50.9760  0.00  0.00     0.000 HD
BRANCH 16 26
ATOM     24   N  ASG B   2      37.187  45.100  57.2100  0.00  0.00     0.000 N
ATOM     26  HD  ASG B   2      37.939  45.256  56.8090  0.00  0.00     0.000 HD
ATOM     26   C  ASG B   2      36.857  45.204  58.5100  0.00  0.00     0.000 C
ATOM     27   C  ASG B   2      36.376  43.956  59.1660  0.00  0.00     0.000 C
ATOM     28   O  ASG B   2      36.948  46.266  59.1150  0.00  0.00     0.000 OA
ENDBRANCH 16 26
BRANCH 18 29
ATOM     29   O  ASG B   2      39.622  45.191  54.7780  0.00  0.00     0.000 O
ATOM     30   O  ASG B   2      41.683  45.440  53.4600  0.00  0.00     0.000 OA
ATOM     31   O  ASG B   2      41.796  44.619  55.7420  0.00  0.00     0.000 OA
ATOM     32   O  ASG B   2      40.825  43.242  54.0080  0.00  0.00     0.000 OA
ATOM     33   S  ASG B   2      41.088  44.601  54.4830  0.00  0.00     0.000 S
ENDBRANCH 18 29
BRANCH 15 34
ATOM     34  O4  ASG B   3      35.237  46.552  55.1590  0.00  0.00     0.000 O
BRANCH 34 38
ATOM     35  C1  GCT B   3      31.355  46.557  56.2960  0.00  0.00     0.000 C
ATOM     36  C2  GCT B   3      31.989  47.931  56.2630  0.00  0.00     0.000 C
ATOM     37  C3  GCT B   3      33.264  47.919  55.4330  0.00  0.00     0.000 C
ATOM     38  C4  GCT B   3      34.253  46.918  56.0420  0.00  0.00     0.000 C
ATOM     39  C5  GCT B   3      33.535  45.700  56.6660  0.00  0.00     0.000 C
ATOM     40  O5  GCT B   3      32.310  45.553  55.9700  0.00  0.00     0.000 O
ATOM     41   O  GCT B   3      31.030  48.804  55.6830  0.00  0.00     0.000 O
ATOM     43  HD  GCT B   3      30.311  49.169  55.9980  0.00  0.00     0.000 HD
ATOM     43   O  GCT B   3      33.789  49.263  55.3770  0.00  0.00     0.000 O
ATOM     45  HD  GCT B   3      33.069  49.628  55.6920  0.00  0.00     0.000 HD
BRANCH 39 45
ATOM     45   C  GCT B   3      33.267  45.707  58.1550  0.00  0.00     0.000 C
ATOM     46   O  GCT B   3      33.620  46.711  58.8510  0.00  0.00     0.000 OA
ATOM     47   O  GCT B   3      32.691  44.721  58.6440  0.00  0.00     0.000 OA
ENDBRANCH 39 45
BRANCH 35 48
ATOM     48  O3  ASG B   4      30.418  46.532  57.2200  0.00  0.00     0.000 O
BRANCH 48 51
ATOM     49  C1  ASG B   4      26.989  45.997  55.9380  0.00  0.00     0.000 C
ATOM     50  C2  ASG B   4      28.323  46.696  56.2480  0.00  0.00     0.000 C
ATOM     51  C3  ASG B   4      29.356  45.705  56.7780  0.00  0.00     0.000 C
ATOM     52  C4  ASG B   4      28.786  44.869  57.9120  0.00  0.00     0.000 C
ATOM     53  C5  ASG B   4      27.497  44.217  57.4180  0.00  0.00     0.000 C
ATOM     54  O5  ASG B   4      26.554  45.247  57.0610  0.00  0.00     0.000 O
BRANCH 50 57
ATOM     55   N  ASG B   4      28.002  47.793  57.1320  0.00  0.00     0.000 N
ATOM     57  HD  ASG B   4      28.318  48.432  56.6410  0.00  0.00     0.000 HD
ATOM     57   O  ASG B   4      27.854  49.319  55.5000  0.00  0.00     0.000 OA
ATOM     58   C  ASG B   4      27.687  49.009  56.6750  0.00  0.00     0.000 C
ATOM     59   C  ASG B   4      27.173  49.972  57.7000  0.00  0.00     0.000 C
ENDBRANCH 50 57
BRANCH 52 60
ATOM     60   O  ASG B   4      28.600  45.852  59.0100  0.00  0.00     0.000 O
ATOM     61   O  ASG B   4      29.976  44.519  60.6100  0.00  0.00     0.000 OA
ATOM     62   O  ASG B   4      29.165  46.666  61.2460  0.00  0.00     0.000 OA
ATOM     63   O  ASG B   4      27.602  44.903  60.8390  0.00  0.00     0.000 OA
ATOM     64   S  ASG B   4      28.918  45.470  60.5340  0.00  0.00     0.000 S
ENDBRANCH 52 60
ATOM     65   O  ASG B   4      25.847  42.478  57.7890  0.00  0.00     0.000 O
ATOM     67  HD  ASG B   4      25.210  43.050  57.6600  0.00  0.00     0.000 HD
ATOM     67   O  ASG B   4      25.847  42.478  57.7890  0.00  0.00     0.000 O
ATOM     69  HD  ASG B   4      25.210  43.050  57.6600  0.00  0.00     0.000 HD
ENDBRANCH 48 51
ENDBRANCH 35 48
ENDBRANCH 34 38
ENDBRANCH 15 34
ENDBRANCH 14 17
ENDBRANCH 1 14
TORSDOF 12
ENDMDL
MODEL 61
REMARK VINA RESULT:      -1.7      8.475     11.932
ROOT
ATOM      1  C1  GAD B   1      14.256  75.229  44.7740  0.00  0.00     0.000 C
ATOM      2  C2  GAD B   1      14.521  76.141  43.5720  0.00  0.00     0.000 C
ATOM      3  C3  GAD B   1      13.751  77.458  43.7310  0.00  0.00     0.000 C
ATOM      4  C4  GAD B   1      12.420  77.329  44.4760  0.00  0.00     0.000 C
ATOM      5  C5  GAD B   1      12.001  76.206  45.0930  0.00  0.00     0.000 C
ATOM      6  O5  GAD B   1      12.850  75.046  44.9970  0.00  0.00     0.000 O
ATOM      7   O  GAD B   1      15.967  76.346  43.3610  0.00  0.00     0.000 O
ATOM      9  HD  GAD B   1      15.999  75.665  43.8950  0.00  0.00     0.000 HD
ATOM      9   O  GAD B   1      13.437  78.047  42.4490  0.00  0.00     0.000 O
ATOM     11  HD  GAD B   1      13.469  77.366  42.9830  0.00  0.00     0.000 HD
ENDROOT
BRANCH 5 11
ATOM     11   C  GAD B   1      10.767  76.101  45.9060  0.00  0.00     0.000 C
ATOM     12   O  GAD B   1      10.470  74.950  46.3550  0.00  0.00     0.000 OA
ATOM     13   O  GAD B   1      10.008  77.127  46.0650  0.00  0.00     0.000 OA
ENDBRANCH 5 11
BRANCH 1 14
ATOM     14  O3  ASG B   2      14.429  73.894  44.7560  0.00  0.00     0.000 O
BRANCH 14 17
ATOM     15  C1  ASG B   2      12.412  70.700  44.6770  0.00  0.00     0.000 C
ATOM     16  C2  ASG B   2      13.329  71.772  45.2810  0.00  0.00     0.000 C
ATOM     17  C3  ASG B   2      13.579  72.865  44.2370  0.00  0.00     0.000 C
ATOM     18  C4  ASG B   2      14.208  72.261  42.9960  0.00  0.00     0.000 C
ATOM     19  C5  ASG B   2      13.330  71.117  42.4980  0.00  0.00     0.000 C
ATOM     20  O5  ASG B   2      13.104  70.170  43.5610  0.00  0.00     0.000 O
ATOM     21   C  ASG B   2      13.955  70.354  41.3750  0.00  0.00     0.000 C
ATOM     22   O  ASG B   2      13.194  69.199  41.1160  0.00  0.00     0.000 O
ATOM     24  HD  ASG B   2      12.827  68.463  40.8480  0.00  0.00     0.000 HD
BRANCH 16 26
ATOM     24   N  ASG B   2      12.858  72.301  46.5410  0.00  0.00     0.000 N
ATOM     26  HD  ASG B   2      12.662  71.501  46.2730  0.00  0.00     0.000 HD
ATOM     26   C  ASG B   2      13.667  72.712  47.5350  0.00  0.00     0.000 C
ATOM     27   C  ASG B   2      13.030  73.534  48.6010  0.00  0.00     0.000 C
ATOM     28   O  ASG B   2      14.858  72.425  47.5560  0.00  0.00     0.000 OA
ENDBRANCH 16 26
BRANCH 18 29
ATOM     29   O  ASG B   2      15.554  71.818  43.3850  0.00  0.00     0.000 O
ATOM     30   O  ASG B   2      16.561  72.288  41.1910  0.00  0.00     0.000 OA
ATOM     31   O  ASG B   2      17.023  73.748  43.0740  0.00  0.00     0.000 OA
ATOM     32   O  ASG B   2      17.924  71.505  43.0340  0.00  0.00     0.000 OA
ATOM     33   S  ASG B   2      16.841  72.393  42.6110  0.00  0.00     0.000 S
ENDBRANCH 18 29
BRANCH 15 34
ATOM     34  O4  ASG B   3      12.115  69.653  45.5570  0.00  0.00     0.000 O
BRANCH 34 38
ATOM     35  C1  GCT B   3       8.618  68.505  43.8790  0.00  0.00     0.000 C
ATOM     36  C2  GCT B   3       8.456  69.360  45.1170  0.00  0.00     0.000 C
ATOM     37  C3  GCT B   3       9.745  70.104  45.4340  0.00  0.00     0.000 C
ATOM     38  C4  GCT B   3      10.870  69.087  45.6640  0.00  0.00     0.000 C
ATOM     39  C5  GCT B   3      10.711  67.835  44.7720  0.00  0.00     0.000 C
ATOM     40  O5  GCT B   3       9.994  68.246  43.6210  0.00  0.00     0.000 O
ATOM     41   O  GCT B   3       7.412  70.281  44.8360  0.00  0.00     0.000 O
ATOM     43  HD  GCT B   3       6.550  70.193  44.8120  0.00  0.00     0.000 HD
ATOM     43   O  GCT B   3       9.516  70.955  46.5770  0.00  0.00     0.000 O
ATOM     45  HD  GCT B   3       8.655  70.867  46.5530  0.00  0.00     0.000 HD
BRANCH 39 45
ATOM     45   C  GCT B   3      10.048  66.610  45.3640  0.00  0.00     0.000 C
ATOM     46   O  GCT B   3       9.935  65.557  44.6610  0.00  0.00     0.000 OA
ATOM     47   O  GCT B   3       9.646  66.680  46.5370  0.00  0.00     0.000 OA
ENDBRANCH 39 45
BRANCH 35 48
ATOM     48  O3  ASG B   4       7.595  67.683  43.7810  0.00  0.00     0.000 O
BRANCH 48 51
ATOM     49  C1  ASG B   4       5.241  67.372  40.9440  0.00  0.00     0.000 C
ATOM     50  C2  ASG B   4       5.803  67.772  42.3190  0.00  0.00     0.000 C
ATOM     51  C3  ASG B   4       7.297  67.478  42.4110  0.00  0.00     0.000 C
ATOM     52  C4  ASG B   4       7.607  66.056  41.9750  0.00  0.00     0.000 C
ATOM     53  C5  ASG B   4       7.019  65.848  40.5820  0.00  0.00     0.000 C
ATOM     54  O5  ASG B   4       5.591  66.031  40.6400  0.00  0.00     0.000 O
BRANCH 50 57
ATOM     55   N  ASG B   4       5.428  69.167  42.3520  0.00  0.00     0.000 N
ATOM     57  HD  ASG B   4       4.576  69.054  42.4660  0.00  0.00     0.000 HD
ATOM     57   O  ASG B   4       3.605  68.846  43.6140  0.00  0.00     0.000 OA
ATOM     58   C  ASG B   4       4.407  69.614  43.0900  0.00  0.00     0.000 C
ATOM     59   C  ASG B   4       4.281  71.103  43.1870  0.00  0.00     0.000 C
ENDBRANCH 50 57
BRANCH 52 60
ATOM     60   O  ASG B   4       6.987  65.223  43.0380  0.00  0.00     0.000 O
ATOM     61   O  ASG B   4       8.559  63.324  42.6470  0.00  0.00     0.000 OA
ATOM     62   O  ASG B   4       7.009  63.228  44.4520  0.00  0.00     0.000 OA
ATOM     63   O  ASG B   4       6.185  63.246  42.2070  0.00  0.00     0.000 OA
ATOM     64   S  ASG B   4       7.256  63.645  43.1250  0.00  0.00     0.000 S
ENDBRANCH 52 60
ATOM     65   O  ASG B   4       7.020  64.484  38.5770  0.00  0.00     0.000 O
ATOM     67  HD  ASG B   4       6.154  64.480  38.5750  0.00  0.00     0.000 HD
ATOM     67   O  ASG B   4       7.020  64.484  38.5770  0.00  0.00     0.000 O
ATOM     69  HD  ASG B   4       6.154  64.480  38.5750  0.00  0.00     0.000 HD
ENDBRANCH 48 51
ENDBRANCH 35 48
ENDBRANCH 34 38
ENDBRANCH 15 34
ENDBRANCH 14 17
ENDBRANCH 1 14
TORSDOF 12
ENDMDL
MODEL 62
REMARK VINA RESULT:      -1.6     13.967     19.146
ROOT
ATOM      1  C1  GAD B   1      28.237  64.246  42.9860  0.00  0.00     0.000 C
ATOM      2  C2  GAD B   1      29.669  63.753  42.7520  0.00  0.00     0.000 C
ATOM      3  C3  GAD B   1      30.191  64.270  41.4060  0.00  0.00     0.000 C
ATOM      4  C4  GAD B   1      29.116  64.432  40.3280  0.00  0.00     0.000 C
ATOM      5  C5  GAD B   1      27.793  64.295  40.5480  0.00  0.00     0.000 C
ATOM      6  O5  GAD B   1      27.382  63.926  41.8780  0.00  0.00     0.000 O
ATOM      7   O  GAD B   1      30.550  64.106  43.8810  0.00  0.00     0.000 O
ATOM      9  HD  GAD B   1      29.781  64.240  44.2570  0.00  0.00     0.000 HD
ATOM      9   O  GAD B   1      31.188  63.386  40.8480  0.00  0.00     0.000 O
ATOM     11  HD  GAD B   1      30.419  63.521  41.2230  0.00  0.00     0.000 HD
ENDROOT
BRANCH 5 11
ATOM     11   C  GAD B   1      26.739  64.553  39.5390  0.00  0.00     0.000 C
ATOM     12   O  GAD B   1      25.949  65.521  39.7670  0.00  0.00     0.000 OA
ATOM     13   O  GAD B   1      26.603  63.766  38.5310  0.00  0.00     0.000 OA
ENDBRANCH 5 11
BRANCH 1 14
ATOM     14  O3  ASG B   2      27.369  63.659  43.8300  0.00  0.00     0.000 O
BRANCH 14 17
ATOM     15  C1  ASG B   2      25.777  60.424  44.9630  0.00  0.00     0.000 C
ATOM     16  C2  ASG B   2      25.821  61.896  44.5260  0.00  0.00     0.000 C
ATOM     17  C3  ASG B   2      27.274  62.291  44.2460  0.00  0.00     0.000 C
ATOM     18  C4  ASG B   2      28.119  62.076  45.4870  0.00  0.00     0.000 C
ATOM     19  C5  ASG B   2      27.950  60.636  45.9610  0.00  0.00     0.000 C
ATOM     20  O5  ASG B   2      26.552  60.339  46.1450  0.00  0.00     0.000 O
ATOM     21   C  ASG B   2      28.616  60.378  47.2750  0.00  0.00     0.000 C
ATOM     22   O  ASG B   2      28.240  59.106  47.7450  0.00  0.00     0.000 O
ATOM     24  HD  ASG B   2      28.099  58.355  48.1520  0.00  0.00     0.000 HD
BRANCH 16 26
ATOM     24   N  ASG B   2      24.959  62.216  43.4130  0.00  0.00     0.000 N
ATOM     26  HD  ASG B   2      24.800  61.551  43.9440  0.00  0.00     0.000 HD
ATOM     26   C  ASG B   2      24.317  63.391  43.2720  0.00  0.00     0.000 C
ATOM     27   C  ASG B   2      23.758  63.674  41.9190  0.00  0.00     0.000 C
ATOM     28   O  ASG B   2      24.201  64.177  44.2030  0.00  0.00     0.000 OA
ENDBRANCH 16 26
BRANCH 18 29
ATOM     29   O  ASG B   2      27.662  63.060  46.4780  0.00  0.00     0.000 O
ATOM     30   O  ASG B   2      29.865  63.313  47.5400  0.00  0.00     0.000 OA
ATOM     31   O  ASG B   2      29.001  65.073  46.1080  0.00  0.00     0.000 OA
ATOM     32   O  ASG B   2      27.984  64.657  48.2620  0.00  0.00     0.000 OA
ATOM     33   S  ASG B   2      28.712  64.090  47.1260  0.00  0.00     0.000 S
ENDBRANCH 18 29
BRANCH 15 34
ATOM     34  O4  ASG B   3      24.487  59.959  45.2400  0.00  0.00     0.000 O
BRANCH 34 38
ATOM     35  C1  GCT B   3      21.786  56.983  45.6960  0.00  0.00     0.000 C
ATOM     36  C2  GCT B   3      23.201  56.591  46.0610  0.00  0.00     0.000 C
ATOM     37  C3  GCT B   3      24.063  57.825  46.2890  0.00  0.00     0.000 C
ATOM     38  C4  GCT B   3      24.084  58.668  45.0090  0.00  0.00     0.000 C
ATOM     39  C5  GCT B   3      22.743  58.595  44.2440  0.00  0.00     0.000 C
ATOM     40  O5  GCT B   3      21.742  58.319  45.2080  0.00  0.00     0.000 O
ATOM     41   O  GCT B   3      23.112  55.825  47.2540  0.00  0.00     0.000 O
ATOM     43  HD  GCT B   3      22.872  55.006  47.4020  0.00  0.00     0.000 HD
ATOM     43   O  GCT B   3      25.378  57.398  46.7020  0.00  0.00     0.000 O
ATOM     45  HD  GCT B   3      25.138  56.579  46.8490  0.00  0.00     0.000 HD
BRANCH 39 45
ATOM     45   C  GCT B   3      22.621  57.613  43.0990  0.00  0.00     0.000 C
ATOM     46   O  GCT B   3      23.614  56.883  42.7900  0.00  0.00     0.000 OA
ATOM     47   O  GCT B   3      21.531  57.550  42.5060  0.00  0.00     0.000 OA
ENDBRANCH 39 45
BRANCH 35 48
ATOM     48  O3  ASG B   4      21.143  55.924  45.2510  0.00  0.00     0.000 O
BRANCH 48 51
ATOM     49  C1  ASG B   4      18.116  54.731  47.0140  0.00  0.00     0.000 C
ATOM     50  C2  ASG B   4      19.600  54.934  46.6660  0.00  0.00     0.000 C
ATOM     51  C3  ASG B   4      19.777  56.027  45.6160  0.00  0.00     0.000 C
ATOM     52  C4  ASG B   4      18.859  55.802  44.4260  0.00  0.00     0.000 C
ATOM     53  C5  ASG B   4      17.431  55.667  44.9470  0.00  0.00     0.000 C
ATOM     54  O5  ASG B   4      17.356  54.533  45.8330  0.00  0.00     0.000 O
BRANCH 50 57
ATOM     55   N  ASG B   4      20.414  53.813  46.2540  0.00  0.00     0.000 N
ATOM     57  HD  ASG B   4      20.920  53.774  46.9560  0.00  0.00     0.000 HD
ATOM     57   O  ASG B   4      20.893  53.147  48.3380  0.00  0.00     0.000 OA
ATOM     58   C  ASG B   4      20.917  52.936  47.1290  0.00  0.00     0.000 C
ATOM     59   C  ASG B   4      21.552  51.718  46.5340  0.00  0.00     0.000 C
ENDBRANCH 50 57
BRANCH 52 60
ATOM     60   O  ASG B   4      19.405  54.573  43.7950  0.00  0.00     0.000 O
ATOM     61   O  ASG B   4      18.722  55.292  41.5040  0.00  0.00     0.000 OA
ATOM     62   O  ASG B   4      20.001  53.304  41.7900  0.00  0.00     0.000 OA
ATOM     63   O  ASG B   4      17.783  53.401  42.6790  0.00  0.00     0.000 OA
ATOM     64   S  ASG B   4      18.990  54.146  42.3060  0.00  0.00     0.000 S
ENDBRANCH 52 60
ATOM     65   O  ASG B   4      15.070  55.716  44.3940  0.00  0.00     0.000 O
ATOM     67  HD  ASG B   4      14.946  54.989  44.8480  0.00  0.00     0.000 HD
ATOM     67   O  ASG B   4      15.070  55.716  44.3940  0.00  0.00     0.000 O
ATOM     69  HD  ASG B   4      14.946  54.989  44.8480  0.00  0.00     0.000 HD
ENDBRANCH 48 51
ENDBRANCH 35 48
ENDBRANCH 34 38
ENDBRANCH 15 34
ENDBRANCH 14 17
ENDBRANCH 1 14
TORSDOF 12
ENDMDL
MODEL 63
REMARK VINA RESULT:      -1.5     32.561     37.334
ROOT
ATOM      1  C1  GAD B   1      43.321  46.632  54.3130  0.00  0.00     0.000 C
ATOM      2  C2  GAD B   1      43.503  47.910  55.1360  0.00  0.00     0.000 C
ATOM      3  C3  GAD B   1      43.486  47.580  56.6330  0.00  0.00     0.000 C
ATOM      4  C4  GAD B   1      42.592  46.396  57.0120  0.00  0.00     0.000 C
ATOM      5  C5  GAD B   1      41.983  45.589  56.1200  0.00  0.00     0.000 C
ATOM      6  O5  GAD B   1      42.155  45.902  54.7250  0.00  0.00     0.000 O
ATOM      7   O  GAD B   1      44.716  48.645  54.7260  0.00  0.00     0.000 O
ATOM      9  HD  GAD B   1      44.640  48.111  54.0490  0.00  0.00     0.000 HD
ATOM      9   O  GAD B   1      43.021  48.700  57.4190  0.00  0.00     0.000 O
ATOM     11  HD  GAD B   1      42.945  48.166  56.7420  0.00  0.00     0.000 HD
ENDROOT
BRANCH 5 11
ATOM     11   C  GAD B   1      41.204  44.379  56.4730  0.00  0.00     0.000 C
ATOM     12   O  GAD B   1      40.782  43.666  55.5100  0.00  0.00     0.000 OA
ATOM     13   O  GAD B   1      40.914  44.132  57.7010  0.00  0.00     0.000 OA
ENDBRANCH 5 11
BRANCH 1 14
ATOM     14  O3  ASG B   2      42.885  46.613  53.0390  0.00  0.00     0.000 O
BRANCH 14 17
ATOM     15  C1  ASG B   2      40.068  45.183  50.9660  0.00  0.00     0.000 C
ATOM     16  C2  ASG B   2      41.508  45.324  51.4810  0.00  0.00     0.000 C
ATOM     17  C3  ASG B   2      41.559  46.444  52.5250  0.00  0.00     0.000 C
ATOM     18  C4  ASG B   2      41.079  47.746  51.9130  0.00  0.00     0.000 C
ATOM     19  C5  ASG B   2      39.698  47.530  51.3030  0.00  0.00     0.000 C
ATOM     20  O5  ASG B   2      39.734  46.426  50.3780  0.00  0.00     0.000 O
ATOM     21   C  ASG B   2      39.214  48.716  50.5310  0.00  0.00     0.000 C
ATOM     22   O  ASG B   2      38.046  48.370  49.8280  0.00  0.00     0.000 O
ATOM     24  HD  ASG B   2      37.329  48.300  49.3480  0.00  0.00     0.000 HD
BRANCH 16 26
ATOM     24   N  ASG B   2      42.828  44.809  51.2020  0.00  0.00     0.000 N
ATOM     26  HD  ASG B   2      42.695  45.627  51.4540  0.00  0.00     0.000 HD
ATOM     26   C  ASG B   2      43.387  43.776  51.8590  0.00  0.00     0.000 C
ATOM     27   C  ASG B   2      44.589  43.168  51.2220  0.00  0.00     0.000 C
ATOM     28   O  ASG B   2      42.931  43.363  52.9180  0.00  0.00     0.000 OA
ENDBRANCH 16 26
BRANCH 18 29
ATOM     29   O  ASG B   2      42.087  48.135  50.9180  0.00  0.00     0.000 O
ATOM     30   O  ASG B   2      41.750  50.551  51.2230  0.00  0.00     0.000 OA
ATOM     31   O  ASG B   2      43.741  49.484  52.1120  0.00  0.00     0.000 OA
ATOM     32   O  ASG B   2      43.461  49.724  49.7230  0.00  0.00     0.000 OA
ATOM     33   S  ASG B   2      42.801  49.572  51.0190  0.00  0.00     0.000 S
ENDBRANCH 18 29
BRANCH 15 34
ATOM     34  O4  ASG B   3      39.911  44.177  50.0060  0.00  0.00     0.000 O
BRANCH 34 38
ATOM     35  C1  GCT B   3      36.626  42.358  51.5100  0.00  0.00     0.000 C
ATOM     36  C2  GCT B   3      37.930  41.704  51.9110  0.00  0.00     0.000 C
ATOM     37  C3  GCT B   3      39.101  42.652  51.6950  0.00  0.00     0.000 C
ATOM     38  C4  GCT B   3      39.165  43.045  50.2140  0.00  0.00     0.000 C
ATOM     39  C5  GCT B   3      37.760  43.138  49.5780  0.00  0.00     0.000 C
ATOM     40  O5  GCT B   3      36.860  43.450  50.6270  0.00  0.00     0.000 O
ATOM     41   O  GCT B   3      37.810  41.375  53.2870  0.00  0.00     0.000 O
ATOM     43  HD  GCT B   3      37.390  40.738  53.6980  0.00  0.00     0.000 HD
ATOM     43   O  GCT B   3      40.306  42.007  52.1570  0.00  0.00     0.000 O
ATOM     45  HD  GCT B   3      39.887  41.370  52.5670  0.00  0.00     0.000 HD
BRANCH 39 45
ATOM     45   C  GCT B   3      37.238  41.944  48.8090  0.00  0.00     0.000 C
ATOM     46   O  GCT B   3      36.091  42.001  48.2640  0.00  0.00     0.000 OA
ATOM     47   O  GCT B   3      37.969  40.943  48.7300  0.00  0.00     0.000 OA
ENDBRANCH 39 45
BRANCH 35 48
ATOM     48  O3  ASG B   4      35.680  41.445  51.4540  0.00  0.00     0.000 O
BRANCH 48 51
ATOM     49  C1  ASG B   4      32.877  40.446  53.6540  0.00  0.00     0.000 C
ATOM     50  C2  ASG B   4      34.102  40.331  52.7310  0.00  0.00     0.000 C
ATOM     51  C3  ASG B   4      34.736  41.697  52.4810  0.00  0.00     0.000 C
ATOM     52  C4  ASG B   4      33.694  42.716  52.0480  0.00  0.00     0.000 C
ATOM     53  C5  ASG B   4      32.582  42.730  53.0930  0.00  0.00     0.000 C
ATOM     54  O5  ASG B   4      31.977  41.423  53.1570  0.00  0.00     0.000 O
BRANCH 50 57
ATOM     55   N  ASG B   4      35.146  39.454  53.2100  0.00  0.00     0.000 N
ATOM     57  HD  ASG B   4      34.684  38.722  53.2250  0.00  0.00     0.000 HD
ATOM     57   O  ASG B   4      34.294  37.609  52.2700  0.00  0.00     0.000 OA
ATOM     58   C  ASG B   4      35.218  38.168  52.8520  0.00  0.00     0.000 C
ATOM     59   C  ASG B   4      36.470  37.453  53.2550  0.00  0.00     0.000 C
ENDBRANCH 50 57
BRANCH 52 60
ATOM     60   O  ASG B   4      33.275  42.236  50.7060  0.00  0.00     0.000 O
ATOM     61   O  ASG B   4      33.527  44.496  49.6770  0.00  0.00     0.000 OA
ATOM     62   O  ASG B   4      32.999  42.622  48.3070  0.00  0.00     0.000 OA
ATOM     63   O  ASG B   4      31.420  43.346  49.9500  0.00  0.00     0.000 OA
ATOM     64   S  ASG B   4      32.829  43.260  49.5560  0.00  0.00     0.000 S
ENDBRANCH 52 60
ATOM     65   O  ASG B   4      30.683  43.935  53.9990  0.00  0.00     0.000 O
ATOM     67  HD  ASG B   4      30.217  43.205  54.0040  0.00  0.00     0.000 HD
ATOM     67   O  ASG B   4      30.683  43.935  53.9990  0.00  0.00     0.000 O
ATOM     69  HD  ASG B   4      30.217  43.205  54.0040  0.00  0.00     0.000 HD
ENDBRANCH 48 51
ENDBRANCH 35 48
ENDBRANCH 34 38
ENDBRANCH 15 34
ENDBRANCH 14 17
ENDBRANCH 1 14
TORSDOF 12
ENDMDL
MODEL 64
REMARK VINA RESULT:      -1.4     28.477     36.112
ROOT
ATOM      1  C1  GAD B   1      41.764  47.783  59.1230  0.00  0.00     0.000 C
ATOM      2  C2  GAD B   1      42.360  46.868  60.1980  0.00  0.00     0.000 C
ATOM      3  C3  GAD B   1      43.174  47.695  61.2010  0.00  0.00     0.000 C
ATOM      4  C4  GAD B   1      43.855  48.929  60.6020  0.00  0.00     0.000 C
ATOM      5  C5  GAD B   1      43.652  49.373  59.3460  0.00  0.00     0.000 C
ATOM      6  O5  GAD B   1      42.772  48.600  58.5080  0.00  0.00     0.000 O
ATOM      7   O  GAD B   1      41.318  46.048  60.8450  0.00  0.00     0.000 O
ATOM      9  HD  GAD B   1      40.875  46.315  60.1500  0.00  0.00     0.000 HD
ATOM      9   O  GAD B   1      44.227  46.911  61.8050  0.00  0.00     0.000 O
ATOM     11  HD  GAD B   1      43.784  47.178  61.1110  0.00  0.00     0.000 HD
ENDROOT
BRANCH 5 11
ATOM     11   C  GAD B   1      44.222  50.623  58.7910  0.00  0.00     0.000 C
ATOM     12   O  GAD B   1      43.727  51.047  57.7010  0.00  0.00     0.000 OA
ATOM     13   O  GAD B   1      45.226  51.186  59.3650  0.00  0.00     0.000 OA
ENDBRANCH 5 11
BRANCH 1 14
ATOM     14  O3  ASG B   2      41.366  47.356  57.9100  0.00  0.00     0.000 O
BRANCH 14 17
ATOM     15  C1  ASG B   2      38.408  47.947  55.6340  0.00  0.00     0.000 C
ATOM     16  C2  ASG B   2      39.255  47.210  56.6810  0.00  0.00     0.000 C
ATOM     17  C3  ASG B   2      40.540  48.003  56.9350  0.00  0.00     0.000 C
ATOM     18  C4  ASG B   2      41.313  48.167  55.6400  0.00  0.00     0.000 C
ATOM     19  C5  ASG B   2      40.399  48.788  54.5890  0.00  0.00     0.000 C
ATOM     20  O5  ASG B   2      39.195  48.007  54.4590  0.00  0.00     0.000 O
ATOM     21   C  ASG B   2      41.025  48.835  53.2320  0.00  0.00     0.000 C
ATOM     22   O  ASG B   2      40.057  49.217  52.2860  0.00  0.00     0.000 O
ATOM     24  HD  ASG B   2      39.574  49.441  51.6030  0.00  0.00     0.000 HD
BRANCH 16 26
ATOM     24   N  ASG B   2      39.212  45.948  57.3830  0.00  0.00     0.000 N
ATOM     26  HD  ASG B   2      39.951  46.286  57.0850  0.00  0.00     0.000 HD
ATOM     26   C  ASG B   2      38.768  45.804  58.6460  0.00  0.00     0.000 C
ATOM     27   C  ASG B   2      38.474  44.410  59.0830  0.00  0.00     0.000 C
ATOM     28   O  ASG B   2      38.615  46.766  59.3880  0.00  0.00     0.000 OA
ENDBRANCH 16 26
BRANCH 18 29
ATOM     29   O  ASG B   2      41.785  46.827  55.2650  0.00  0.00     0.000 O
ATOM     30   O  ASG B   2      43.880  47.627  54.2570  0.00  0.00     0.000 OA
ATOM     31   O  ASG B   2      43.921  46.510  56.4120  0.00  0.00     0.000 OA
ATOM     32   O  ASG B   2      43.410  45.256  54.4090  0.00  0.00     0.000 OA
ATOM     33   S  ASG B   2      43.359  46.554  55.0830  0.00  0.00     0.000 S
ENDBRANCH 18 29
BRANCH 15 34
ATOM     34  O4  ASG B   3      37.203  47.304  55.3320  0.00  0.00     0.000 O
BRANCH 34 38
ATOM     35  C1  GCT B   3      33.330  46.384  56.0530  0.00  0.00     0.000 C
ATOM     36  C2  GCT B   3      33.626  47.868  56.0780  0.00  0.00     0.000 C
ATOM     37  C3  GCT B   3      34.948  48.169  55.3870  0.00  0.00     0.000 C
ATOM     38  C4  GCT B   3      36.074  47.415  56.1040  0.00  0.00     0.000 C
ATOM     39  C5  GCT B   3      35.599  46.052  56.6580  0.00  0.00     0.000 C
ATOM     40  O5  GCT B   3      34.522  45.636  55.8370  0.00  0.00     0.000 O
ATOM     41   O  GCT B   3      32.556  48.504  55.3920  0.00  0.00     0.000 O
ATOM     43  HD  GCT B   3      31.742  48.686  55.6270  0.00  0.00     0.000 HD
ATOM     43   O  GCT B   3      35.147  49.598  55.3770  0.00  0.00     0.000 O
ATOM     45  HD  GCT B   3      34.333  49.780  55.6110  0.00  0.00     0.000 HD
BRANCH 39 45
ATOM     45   C  GCT B   3      35.183  45.971  58.1100  0.00  0.00     0.000 C
ATOM     46   O  GCT B   3      35.206  47.020  58.8290  0.00  0.00     0.000 OA
ATOM     47   O  GCT B   3      34.817  44.867  58.5450  0.00  0.00     0.000 OA
ENDBRANCH 39 45
BRANCH 35 48
ATOM     48  O3  ASG B   4      32.334  46.126  56.8730  0.00  0.00     0.000 O
BRANCH 48 51
ATOM     49  C1  ASG B   4      29.105  44.552  55.9860  0.00  0.00     0.000 C
ATOM     50  C2  ASG B   4      30.139  45.641  56.3200  0.00  0.00     0.000 C
ATOM     51  C3  ASG B   4      31.555  45.072  56.3350  0.00  0.00     0.000 C
ATOM     52  C4  ASG B   4      31.636  43.819  57.1910  0.00  0.00     0.000 C
ATOM     53  C5  ASG B   4      30.578  42.836  56.6960  0.00  0.00     0.000 C
ATOM     54  O5  ASG B   4      29.274  43.434  56.8410  0.00  0.00     0.000 O
BRANCH 50 57
ATOM     55   N  ASG B   4      29.775  46.546  55.2540  0.00  0.00     0.000 N
ATOM     57  HD  ASG B   4      29.038  46.842  55.6020  0.00  0.00     0.000 HD
ATOM     57   O  ASG B   4      28.597  47.925  56.5680  0.00  0.00     0.000 OA
ATOM     58   C  ASG B   4      29.113  47.685  55.4810  0.00  0.00     0.000 C
ATOM     59   C  ASG B   4      29.001  48.613  54.3110  0.00  0.00     0.000 C
ENDBRANCH 50 57
BRANCH 52 60
ATOM     60   O  ASG B   4      31.412  44.325  58.5700  0.00  0.00     0.000 O
ATOM     61   O  ASG B   4      32.800  42.522  59.5960  0.00  0.00     0.000 OA
ATOM     62   O  ASG B   4      31.928  44.268  60.9600  0.00  0.00     0.000 OA
ATOM     63   O  ASG B   4      30.414  42.750  59.9000  0.00  0.00     0.000 OA
ATOM     64   S  ASG B   4      31.720  43.415  59.8530  0.00  0.00     0.000 S
ENDBRANCH 52 60
ATOM     65   O  ASG B   4      29.806  40.537  56.6920  0.00  0.00     0.000 O
ATOM     67  HD  ASG B   4      28.999  40.805  56.8530  0.00  0.00     0.000 HD
ATOM     67   O  ASG B   4      29.806  40.537  56.6920  0.00  0.00     0.000 O
ATOM     69  HD  ASG B   4      28.999  40.805  56.8530  0.00  0.00     0.000 HD
ENDBRANCH 48 51
ENDBRANCH 35 48
ENDBRANCH 34 38
ENDBRANCH 15 34
ENDBRANCH 14 17
ENDBRANCH 1 14
TORSDOF 12
ENDMDL
MODEL 65
REMARK VINA RESULT:      -1.4     29.801     36.300
ROOT
ATOM      1  C1  GAD B   1      43.643  48.962  55.7310  0.00  0.00     0.000 C
ATOM      2  C2  GAD B   1      43.629  50.342  56.3960  0.00  0.00     0.000 C
ATOM      3  C3  GAD B   1      43.750  50.195  57.9170  0.00  0.00     0.000 C
ATOM      4  C4  GAD B   1      43.110  48.925  58.4850  0.00  0.00     0.000 C
ATOM      5  C5  GAD B   1      42.614  47.923  57.7320  0.00  0.00     0.000 C
ATOM      6  O5  GAD B   1      42.654  48.092  56.3020  0.00  0.00     0.000 O
ATOM      7   O  GAD B   1      44.663  51.225  55.8220  0.00  0.00     0.000 O
ATOM      9  HD  GAD B   1      44.652  50.609  55.2140  0.00  0.00     0.000 HD
ATOM      9   O  GAD B   1      43.128  51.301  58.6090  0.00  0.00     0.000 O
ATOM     11  HD  GAD B   1      43.117  50.685  58.0000  0.00  0.00     0.000 HD
ENDROOT
BRANCH 5 11
ATOM     11   C  GAD B   1      42.090  46.645  58.2680  0.00  0.00     0.000 C
ATOM     12   O  GAD B   1      41.904  45.705  57.4350  0.00  0.00     0.000 OA
ATOM     13   O  GAD B   1      41.770  46.549  59.5100  0.00  0.00     0.000 OA
ENDBRANCH 5 11
BRANCH 1 14
ATOM     14  O3  ASG B   2      43.153  48.716  54.5010  0.00  0.00     0.000 O
BRANCH 14 17
ATOM     15  C1  ASG B   2      40.210  47.070  52.7950  0.00  0.00     0.000 C
ATOM     16  C2  ASG B   2      41.675  47.245  53.2200  0.00  0.00     0.000 C
ATOM     17  C3  ASG B   2      41.801  48.509  54.0760  0.00  0.00     0.000 C
ATOM     18  C4  ASG B   2      41.323  49.716  53.2920  0.00  0.00     0.000 C
ATOM     19  C5  ASG B   2      39.909  49.452  52.7820  0.00  0.00     0.000 C
ATOM     20  O5  ASG B   2      39.877  48.218  52.0370  0.00  0.00     0.000 O
ATOM     21   C  ASG B   2      39.418  50.519  51.8580  0.00  0.00     0.000 C
ATOM     22   O  ASG B   2      38.210  50.105  51.2680  0.00  0.00     0.000 O
ATOM     24  HD  ASG B   2      37.470  49.984  50.8350  0.00  0.00     0.000 HD
BRANCH 16 26
ATOM     24   N  ASG B   2      42.241  46.079  53.8560  0.00  0.00     0.000 N
ATOM     26  HD  ASG B   2      41.596  46.024  53.2810  0.00  0.00     0.000 HD
ATOM     26   C  ASG B   2      43.534  45.717  53.7520  0.00  0.00     0.000 C
ATOM     27   C  ASG B   2      44.012  44.704  54.7340  0.00  0.00     0.000 C
ATOM     28   O  ASG B   2      44.270  46.196  52.8980  0.00  0.00     0.000 OA
ENDBRANCH 16 26
BRANCH 18 29
ATOM     29   O  ASG B   2      42.292  49.919  52.2070  0.00  0.00     0.000 O
ATOM     30   O  ASG B   2      42.042  52.364  52.1670  0.00  0.00     0.000 OA
ATOM     31   O  ASG B   2      44.042  51.366  53.1140  0.00  0.00     0.000 OA
ATOM     32   O  ASG B   2      43.652  51.264  50.7310  0.00  0.00     0.000 OA
ATOM     33   S  ASG B   2      43.052  51.327  52.0640  0.00  0.00     0.000 S
ENDBRANCH 18 29
BRANCH 15 34
ATOM     34  O4  ASG B   3      39.985  45.935  52.0090  0.00  0.00     0.000 O
BRANCH 34 38
ATOM     35  C1  GCT B   3      36.245  45.193  53.3600  0.00  0.00     0.000 C
ATOM     36  C2  GCT B   3      37.290  44.231  53.8810  0.00  0.00     0.000 C
ATOM     37  C3  GCT B   3      38.689  44.803  53.7050  0.00  0.00     0.000 C
ATOM     38  C4  GCT B   3      38.941  45.069  52.2160  0.00  0.00     0.000 C
ATOM     39  C5  GCT B   3      37.655  45.506  51.4790  0.00  0.00     0.000 C
ATOM     40  O5  GCT B   3      36.823  46.120  52.4470  0.00  0.00     0.000 O
ATOM     41   O  GCT B   3      37.007  44.036  55.2590  0.00  0.00     0.000 O
ATOM     43  HD  GCT B   3      36.405  43.567  55.6680  0.00  0.00     0.000 HD
ATOM     43   O  GCT B   3      39.639  43.881  54.2790  0.00  0.00     0.000 O
ATOM     45  HD  GCT B   3      39.037  43.411  54.6880  0.00  0.00     0.000 HD
BRANCH 39 45
ATOM     45   C  GCT B   3      36.862  44.456  50.7310  0.00  0.00     0.000 C
ATOM     46   O  GCT B   3      35.789  44.786  50.1360  0.00  0.00     0.000 OA
ATOM     47   O  GCT B   3      37.308  43.296  50.7170  0.00  0.00     0.000 OA
ENDBRANCH 39 45
BRANCH 35 48
ATOM     48  O3  ASG B   4      35.086  44.575  53.2800  0.00  0.00     0.000 O
BRANCH 48 51
ATOM     49  C1  ASG B   4      32.124  45.794  55.1330  0.00  0.00     0.000 C
ATOM     50  C2  ASG B   4      33.429  45.039  54.8300  0.00  0.00     0.000 C
ATOM     51  C3  ASG B   4      34.047  45.510  53.5170  0.00  0.00     0.000 C
ATOM     52  C4  ASG B   4      33.023  45.508  52.3940  0.00  0.00     0.000 C
ATOM     53  C5  ASG B   4      31.822  46.334  52.8460  0.00  0.00     0.000 C
ATOM     54  O5  ASG B   4      31.247  45.729  54.0200  0.00  0.00     0.000 O
BRANCH 50 57
ATOM     55   N  ASG B   4      33.586  43.603  54.8050  0.00  0.00     0.000 N
ATOM     57  HD  ASG B   4      34.025  43.522  55.5460  0.00  0.00     0.000 HD
ATOM     57   O  ASG B   4      33.730  43.386  57.0290  0.00  0.00     0.000 OA
ATOM     58   C  ASG B   4      33.620  42.869  55.9210  0.00  0.00     0.000 C
ATOM     59   C  ASG B   4      33.569  41.385  55.7230  0.00  0.00     0.000 C
ENDBRANCH 50 57
BRANCH 52 60
ATOM     60   O  ASG B   4      32.737  44.065  52.1870  0.00  0.00     0.000 O
ATOM     61   O  ASG B   4      32.487  44.336  49.7180  0.00  0.00     0.000 OA
ATOM     62   O  ASG B   4      32.409  42.162  50.6850  0.00  0.00     0.000 OA
ATOM     63   O  ASG B   4      30.689  43.736  51.2160  0.00  0.00     0.000 OA
ATOM     64   S  ASG B   4      32.086  43.531  50.8230  0.00  0.00     0.000 S
ENDBRANCH 52 60
ATOM     65   O  ASG B   4      29.819  47.519  52.1630  0.00  0.00     0.000 O
ATOM     67  HD  ASG B   4      29.374  47.142  52.8030  0.00  0.00     0.000 HD
ATOM     67   O  ASG B   4      29.819  47.519  52.1630  0.00  0.00     0.000 O
ATOM     69  HD  ASG B   4      29.374  47.142  52.8030  0.00  0.00     0.000 HD
ENDBRANCH 48 51
ENDBRANCH 35 48
ENDBRANCH 34 38
ENDBRANCH 15 34
ENDBRANCH 14 17
ENDBRANCH 1 14
TORSDOF 12
ENDMDL
MODEL 66
REMARK VINA RESULT:      -1.3     28.692     35.340
ROOT
ATOM      1  C1  GAD B   1      42.604  47.951  59.4450  0.00  0.00     0.000 C
ATOM      2  C2  GAD B   1      43.585  46.809  59.7270  0.00  0.00     0.000 C
ATOM      3  C3  GAD B   1      44.864  47.360  60.3700  0.00  0.00     0.000 C
ATOM      4  C4  GAD B   1      45.245  48.772  59.9170  0.00  0.00     0.000 C
ATOM      5  C5  GAD B   1      44.468  49.557  59.1450  0.00  0.00     0.000 C
ATOM      6  O5  GAD B   1      43.221  49.001  58.6850  0.00  0.00     0.000 O
ATOM      7   O  GAD B   1      42.954  45.744  60.5290  0.00  0.00     0.000 O
ATOM      9  HD  GAD B   1      42.243  46.169  60.2780  0.00  0.00     0.000 HD
ATOM      9   O  GAD B   1      46.006  46.524  60.0800  0.00  0.00     0.000 O
ATOM     11  HD  GAD B   1      45.295  46.950  59.8290  0.00  0.00     0.000 HD
ENDROOT
BRANCH 5 11
ATOM     11   C  GAD B   1      44.778  50.961  58.7880  0.00  0.00     0.000 C
ATOM     12   O  GAD B   1      43.832  51.653  58.2980  0.00  0.00     0.000 OA
ATOM     13   O  GAD B   1      45.979  51.407  58.9050  0.00  0.00     0.000 OA
ENDBRANCH 5 11
BRANCH 1 14
ATOM     14  O3  ASG B   2      41.607  47.880  58.5430  0.00  0.00     0.000 O
BRANCH 14 17
ATOM     15  C1  ASG B   2      37.940  48.771  58.3580  0.00  0.00     0.000 C
ATOM     16  C2  ASG B   2      39.161  47.853  58.5110  0.00  0.00     0.000 C
ATOM     17  C3  ASG B   2      40.437  48.693  58.4020  0.00  0.00     0.000 C
ATOM     18  C4  ASG B   2      40.472  49.411  57.0670  0.00  0.00     0.000 C
ATOM     19  C5  ASG B   2      39.185  50.214  56.8980  0.00  0.00     0.000 C
ATOM     20  O5  ASG B   2      38.042  49.354  57.0720  0.00  0.00     0.000 O
ATOM     21   C  ASG B   2      39.057  50.823  55.5390  0.00  0.00     0.000 C
ATOM     22   O  ASG B   2      37.765  51.359  55.3890  0.00  0.00     0.000 O
ATOM     24  HD  ASG B   2      37.018  51.731  55.1600  0.00  0.00     0.000 HD
BRANCH 16 26
ATOM     24   N  ASG B   2      39.424  46.436  58.6150  0.00  0.00     0.000 N
ATOM     26  HD  ASG B   2      39.934  46.970  58.1610  0.00  0.00     0.000 HD
ATOM     26   C  ASG B   2      39.650  45.796  59.7770  0.00  0.00     0.000 C
ATOM     27   C  ASG B   2      39.561  44.309  59.7340  0.00  0.00     0.000 C
ATOM     28   O  ASG B   2      39.913  46.404  60.8070  0.00  0.00     0.000 OA
ENDBRANCH 16 26
BRANCH 18 29
ATOM     29   O  ASG B   2      40.635  48.374  56.0400  0.00  0.00     0.000 O
ATOM     30   O  ASG B   2      41.970  49.788  54.5350  0.00  0.00     0.000 OA
ATOM     31   O  ASG B   2      43.043  48.019  55.8050  0.00  0.00     0.000 OA
ATOM     32   O  ASG B   2      41.542  47.467  53.9920  0.00  0.00     0.000 OA
ATOM     33   S  ASG B   2      41.890  48.429  55.0380  0.00  0.00     0.000 S
ENDBRANCH 18 29
BRANCH 15 34
ATOM     34  O4  ASG B   3      36.716  48.099  58.4480  0.00  0.00     0.000 O
BRANCH 34 38
ATOM     35  C1  GCT B   3      33.335  46.545  56.8610  0.00  0.00     0.000 C
ATOM     36  C2  GCT B   3      34.591  46.205  56.0880  0.00  0.00     0.000 C
ATOM     37  C3  GCT B   3      35.831  46.430  56.9420  0.00  0.00     0.000 C
ATOM     38  C4  GCT B   3      35.884  47.900  57.3750  0.00  0.00     0.000 C
ATOM     39  C5  GCT B   3      34.473  48.488  57.6050  0.00  0.00     0.000 C
ATOM     40  O5  GCT B   3      33.634  47.402  57.9570  0.00  0.00     0.000 O
ATOM     41   O  GCT B   3      34.484  44.835  55.7260  0.00  0.00     0.000 O
ATOM     43  HD  GCT B   3      34.025  44.430  55.1130  0.00  0.00     0.000 HD
ATOM     43   O  GCT B   3      36.991  46.026  56.1840  0.00  0.00     0.000 O
ATOM     45  HD  GCT B   3      36.532  45.621  55.5720  0.00  0.00     0.000 HD
BRANCH 39 45
ATOM     45   C  GCT B   3      33.830  49.274  56.4830  0.00  0.00     0.000 C
ATOM     46   O  GCT B   3      34.458  49.435  55.3900  0.00  0.00     0.000 OA
ATOM     47   O  GCT B   3      32.689  49.726  56.6740  0.00  0.00     0.000 OA
ENDBRANCH 39 45
BRANCH 35 48
ATOM     48  O3  ASG B   4      32.315  46.596  56.0310  0.00  0.00     0.000 O
BRANCH 48 51
ATOM     49  C1  ASG B   4      29.457  44.247  56.0020  0.00  0.00     0.000 C
ATOM     50  C2  ASG B   4      30.805  44.887  55.6310  0.00  0.00     0.000 C
ATOM     51  C3  ASG B   4      31.198  45.967  56.6350  0.00  0.00     0.000 C
ATOM     52  C4  ASG B   4      30.058  46.946  56.8650  0.00  0.00     0.000 C
ATOM     53  C5  ASG B   4      28.820  46.148  57.2650  0.00  0.00     0.000 C
ATOM     54  O5  ASG B   4      28.472  45.249  56.1940  0.00  0.00     0.000 O
BRANCH 50 57
ATOM     55   N  ASG B   4      31.329  43.541  55.6010  0.00  0.00     0.000 N
ATOM     57  HD  ASG B   4      31.072  43.336  54.8000  0.00  0.00     0.000 HD
ATOM     57   O  ASG B   4      31.577  43.480  53.3760  0.00  0.00     0.000 OA
ATOM     58   C  ASG B   4      31.776  42.974  54.4760  0.00  0.00     0.000 C
ATOM     59   C  ASG B   4      32.482  41.664  54.6470  0.00  0.00     0.000 C
ENDBRANCH 50 57
BRANCH 52 60
ATOM     60   O  ASG B   4      29.942  47.656  55.5640  0.00  0.00     0.000 O
ATOM     61   O  ASG B   4      29.508  49.857  56.6570  0.00  0.00     0.000 OA
ATOM     62   O  ASG B   4      29.761  49.737  54.2930  0.00  0.00     0.000 OA
ATOM     63   O  ASG B   4      27.895  48.653  55.3210  0.00  0.00     0.000 OA
ATOM     64   S  ASG B   4      29.280  49.112  55.4650  0.00  0.00     0.000 S
ENDBRANCH 52 60
ATOM     65   O  ASG B   4      26.613  46.219  58.2670  0.00  0.00     0.000 O
ATOM     67  HD  ASG B   4      26.300  45.738  57.6180  0.00  0.00     0.000 HD
ATOM     67   O  ASG B   4      26.613  46.219  58.2670  0.00  0.00     0.000 O
ATOM     69  HD  ASG B   4      26.300  45.738  57.6180  0.00  0.00     0.000 HD
ENDBRANCH 48 51
ENDBRANCH 35 48
ENDBRANCH 34 38
ENDBRANCH 15 34
ENDBRANCH 14 17
ENDBRANCH 1 14
TORSDOF 12
ENDMDL
MODEL 67
REMARK VINA RESULT:      -1.2     20.075     27.727
ROOT
ATOM      1  C1  GAD B   1      18.691  68.886  17.4600  0.00  0.00     0.000 C
ATOM      2  C2  GAD B   1      19.404  69.090  16.1200  0.00  0.00     0.000 C
ATOM      3  C3  GAD B   1      20.810  69.657  16.3520  0.00  0.00     0.000 C
ATOM      4  C4  GAD B   1      20.933  70.569  17.5760  0.00  0.00     0.000 C
ATOM      5  C5  GAD B   1      19.954  70.756  18.4840  0.00  0.00     0.000 C
ATOM      6  O5  GAD B   1      18.702  70.084  18.2510  0.00  0.00     0.000 O
ATOM      7   O  GAD B   1      19.412  67.850  15.3200  0.00  0.00     0.000 O
ATOM      9  HD  GAD B   1      18.806  67.638  15.9010  0.00  0.00     0.000 HD
ATOM      9   O  GAD B   1      21.261  70.438  15.2230  0.00  0.00     0.000 O
ATOM     11  HD  GAD B   1      20.655  70.226  15.8050  0.00  0.00     0.000 HD
ENDROOT
BRANCH 5 11
ATOM     11   C  GAD B   1      20.098  71.551  19.7260  0.00  0.00     0.000 C
ATOM     12   O  GAD B   1      20.881  72.550  19.6830  0.00  0.00     0.000 OA
ATOM     13   O  GAD B   1      19.509  71.174  20.8060  0.00  0.00     0.000 OA
ENDBRANCH 5 11
BRANCH 1 14
ATOM     14  O3  ASG B   2      17.354  68.806  17.5950  0.00  0.00     0.000 O
BRANCH 14 17
ATOM     15  C1  ASG B   2      15.100  66.792  19.8620  0.00  0.00     0.000 C
ATOM     16  C2  ASG B   2      15.929  67.093  18.6050  0.00  0.00     0.000 C
ATOM     17  C3  ASG B   2      16.565  68.479  18.7450  0.00  0.00     0.000 C
ATOM     18  C4  ASG B   2      15.486  69.528  18.9380  0.00  0.00     0.000 C
ATOM     19  C5  ASG B   2      14.608  69.127  20.1190  0.00  0.00     0.000 C
ATOM     20  O5  ASG B   2      14.101  67.792  19.9270  0.00  0.00     0.000 O
ATOM     21   C  ASG B   2      13.416  70.016  20.2820  0.00  0.00     0.000 C
ATOM     22   O  ASG B   2      12.552  69.464  21.2450  0.00  0.00     0.000 O
ATOM     24  HD  ASG B   2      11.935  69.246  21.8110  0.00  0.00     0.000 HD
BRANCH 16 26
ATOM     24   N  ASG B   2      16.817  66.004  18.2720  0.00  0.00     0.000 N
ATOM     26  HD  ASG B   2      16.040  65.873  18.6290  0.00  0.00     0.000 HD
ATOM     26   C  ASG B   2      17.257  65.746  17.0260  0.00  0.00     0.000 C
ATOM     27   C  ASG B   2      18.417  64.817  16.9200  0.00  0.00     0.000 C
ATOM     28   O  ASG B   2      16.732  66.249  16.0400  0.00  0.00     0.000 OA
ENDBRANCH 16 26
BRANCH 18 29
ATOM     29   O  ASG B   2      14.742  69.598  17.6730  0.00  0.00     0.000 O
ATOM     30   O  ASG B   2      14.346  72.020  17.8060  0.00  0.00     0.000 OA
ATOM     31   O  ASG B   2      15.979  71.144  16.2380  0.00  0.00     0.000 OA
ATOM     32   O  ASG B   2      13.621  70.756  15.8720  0.00  0.00     0.000 OA
ATOM     33   S  ASG B   2      14.683  70.979  16.8530  0.00  0.00     0.000 S
ENDBRANCH 18 29
BRANCH 15 34
ATOM     34  O4  ASG B   3      14.478  65.539  19.8380  0.00  0.00     0.000 O
BRANCH 34 38
ATOM     35  C1  GCT B   3      11.654  63.363  21.7500  0.00  0.00     0.000 C
ATOM     36  C2  GCT B   3      11.317  63.679  20.3090  0.00  0.00     0.000 C
ATOM     37  C3  GCT B   3      12.562  64.097  19.5400  0.00  0.00     0.000 C
ATOM     38  C4  GCT B   3      13.171  65.339  20.2040  0.00  0.00     0.000 C
ATOM     39  C5  GCT B   3      12.980  65.329  21.7370  0.00  0.00     0.000 C
ATOM     40  O5  GCT B   3      12.886  63.970  22.1250  0.00  0.00     0.000 O
ATOM     41   O  GCT B   3      10.770  62.492  19.7530  0.00  0.00     0.000 O
ATOM     43  HD  GCT B   3       9.992  62.120  19.8290  0.00  0.00     0.000 HD
ATOM     43   O  GCT B   3      12.199  64.319  18.1610  0.00  0.00     0.000 O
ATOM     45  HD  GCT B   3      11.421  63.947  18.2380  0.00  0.00     0.000 HD
BRANCH 39 45
ATOM     45   C  GCT B   3      11.816  66.098  22.3230  0.00  0.00     0.000 C
ATOM     46   O  GCT B   3      11.034  66.737  21.5500  0.00  0.00     0.000 OA
ATOM     47   O  GCT B   3      11.660  66.062  23.5540  0.00  0.00     0.000 OA
ENDBRANCH 39 45
BRANCH 35 48
ATOM     48  O3  ASG B   4      10.542  63.264  22.4450  0.00  0.00     0.000 O
BRANCH 48 51
ATOM     49  C1  ASG B   4       9.282  60.306  24.2760  0.00  0.00     0.000 C
ATOM     50  C2  ASG B   4       9.432  61.367  23.1730  0.00  0.00     0.000 C
ATOM     51  C3  ASG B   4      10.680  62.218  23.3910  0.00  0.00     0.000 C
ATOM     52  C4  ASG B   4      10.742  62.750  24.8130  0.00  0.00     0.000 C
ATOM     53  C5  ASG B   4      10.624  61.565  25.7680  0.00  0.00     0.000 C
ATOM     54  O5  ASG B   4       9.357  60.912  25.5560  0.00  0.00     0.000 O
BRANCH 50 57
ATOM     55   N  ASG B   4       9.427  60.484  22.0290  0.00  0.00     0.000 N
ATOM     57  HD  ASG B   4       8.583  60.288  22.0390  0.00  0.00     0.000 HD
ATOM     57   O  ASG B   4       7.281  60.858  21.5070  0.00  0.00     0.000 OA
ATOM     58   C  ASG B   4       8.372  60.377  21.2150  0.00  0.00     0.000 C
ATOM     59   C  ASG B   4       8.599  59.590  19.9610  0.00  0.00     0.000 C
ENDBRANCH 50 57
BRANCH 52 60
ATOM     60   O  ASG B   4       9.609  63.709  24.8750  0.00  0.00     0.000 O
ATOM     61   O  ASG B   4      10.747  65.142  26.5720  0.00  0.00     0.000 OA
ATOM     62   O  ASG B   4       8.668  65.834  25.6390  0.00  0.00     0.000 OA
ATOM     63   O  ASG B   4       8.741  63.861  26.9890  0.00  0.00     0.000 OA
ATOM     64   S  ASG B   4       9.467  64.755  26.0810  0.00  0.00     0.000 S
ENDBRANCH 52 60
ATOM     65   O  ASG B   4      10.948  60.763  28.0340  0.00  0.00     0.000 O
ATOM     67  HD  ASG B   4      10.163  60.398  28.0200  0.00  0.00     0.000 HD
ATOM     67   O  ASG B   4      10.948  60.763  28.0340  0.00  0.00     0.000 O
ATOM     69  HD  ASG B   4      10.163  60.398  28.0200  0.00  0.00     0.000 HD
ENDBRANCH 48 51
ENDBRANCH 35 48
ENDBRANCH 34 38
ENDBRANCH 15 34
ENDBRANCH 14 17
ENDBRANCH 1 14
TORSDOF 12
ENDMDL
MODEL 68
REMARK VINA RESULT:      -1.0     22.801     28.726
ROOT
ATOM      1  C1  GAD B   1      19.438  69.403  17.2070  0.00  0.00     0.000 C
ATOM      2  C2  GAD B   1      19.351  70.457  16.0990  0.00  0.00     0.000 C
ATOM      3  C3  GAD B   1      20.685  71.203  15.9760  0.00  0.00     0.000 C
ATOM      4  C4  GAD B   1      21.452  71.354  17.2920  0.00  0.00     0.000 C
ATOM      5  C5  GAD B   1      21.098  70.760  18.4490  0.00  0.00     0.000 C
ATOM      6  O5  GAD B   1      19.891  69.974  18.4430  0.00  0.00     0.000 O
ATOM      7   O  GAD B   1      18.908  69.862  14.8230  0.00  0.00     0.000 O
ATOM      9  HD  GAD B   1      18.690  69.219  15.3610  0.00  0.00     0.000 HD
ATOM      9   O  GAD B   1      20.499  72.542  15.4650  0.00  0.00     0.000 O
ATOM     11  HD  GAD B   1      20.281  71.899  16.0020  0.00  0.00     0.000 HD
ENDROOT
BRANCH 5 11
ATOM     11   C  GAD B   1      21.889  70.813  19.7010  0.00  0.00     0.000 C
ATOM     12   O  GAD B   1      22.376  71.940  20.0270  0.00  0.00     0.000 OA
ATOM     13   O  GAD B   1      22.125  69.735  20.3620  0.00  0.00     0.000 OA
ENDBRANCH 5 11
BRANCH 1 14
ATOM     14  O3  ASG B   2      18.367  68.884  17.8360  0.00  0.00     0.000 O
BRANCH 14 17
ATOM     15  C1  ASG B   2      14.725  68.155  17.1380  0.00  0.00     0.000 C
ATOM     16  C2  ASG B   2      15.922  68.902  17.7450  0.00  0.00     0.000 C
ATOM     17  C3  ASG B   2      17.218  68.220  17.2970  0.00  0.00     0.000 C
ATOM     18  C4  ASG B   2      17.217  66.767  17.7340  0.00  0.00     0.000 C
ATOM     19  C5  ASG B   2      15.951  66.092  17.2160  0.00  0.00     0.000 C
ATOM     20  O5  ASG B   2      14.789  66.832  17.6390  0.00  0.00     0.000 O
ATOM     21   C  ASG B   2      15.782  64.701  17.7370  0.00  0.00     0.000 C
ATOM     22   O  ASG B   2      14.503  64.227  17.3940  0.00  0.00     0.000 O
ATOM     24  HD  ASG B   2      13.758  63.808  17.2520  0.00  0.00     0.000 HD
BRANCH 16 26
ATOM     24   N  ASG B   2      15.983  70.316  17.4550  0.00  0.00     0.000 N
ATOM     26  HD  ASG B   2      15.242  69.869  17.4230  0.00  0.00     0.000 HD
ATOM     26   C  ASG B   2      16.400  71.247  18.3320  0.00  0.00     0.000 C
ATOM     27   C  ASG B   2      16.722  72.586  17.7630  0.00  0.00     0.000 C
ATOM     28   O  ASG B   2      16.509  71.003  19.5280  0.00  0.00     0.000 OA
ENDBRANCH 16 26
BRANCH 18 29
ATOM     29   O  ASG B   2      17.301  66.773  19.2000  0.00  0.00     0.000 O
ATOM     30   O  ASG B   2      18.655  64.725  19.3330  0.00  0.00     0.000 OA
ATOM     31   O  ASG B   2      19.681  66.885  19.7480  0.00  0.00     0.000 OA
ATOM     32   O  ASG B   2      18.103  65.971  21.3340  0.00  0.00     0.000 OA
ATOM     33   S  ASG B   2      18.527  66.039  19.9360  0.00  0.00     0.000 S
ENDBRANCH 18 29
BRANCH 15 34
ATOM     34  O4  ASG B   3      13.486  68.704  17.4830  0.00  0.00     0.000 O
BRANCH 34 38
ATOM     35  C1  GCT B   3      10.211  68.995  19.8390  0.00  0.00     0.000 C
ATOM     36  C2  GCT B   3      11.512  69.288  20.5550  0.00  0.00     0.000 C
ATOM     37  C3  GCT B   3      12.622  69.590  19.5580  0.00  0.00     0.000 C
ATOM     38  C4  GCT B   3      12.812  68.381  18.6340  0.00  0.00     0.000 C
ATOM     39  C5  GCT B   3      11.479  67.651  18.3520  0.00  0.00     0.000 C
ATOM     40  O5  GCT B   3      10.452  68.618  18.4880  0.00  0.00     0.000 O
ATOM     41   O  GCT B   3      11.272  70.417  21.3820  0.00  0.00     0.000 O
ATOM     43  HD  GCT B   3      10.862  70.505  22.1400  0.00  0.00     0.000 HD
ATOM     43   O  GCT B   3      13.818  69.929  20.2910  0.00  0.00     0.000 O
ATOM     45  HD  GCT B   3      13.408  70.017  21.0490  0.00  0.00     0.000 HD
BRANCH 39 45
ATOM     45   C  GCT B   3      11.135  66.435  19.1840  0.00  0.00     0.000 C
ATOM     46   O  GCT B   3      11.903  66.088  20.1360  0.00  0.00     0.000 OA
ATOM     47   O  GCT B   3      10.090  65.822  18.9090  0.00  0.00     0.000 OA
ENDBRANCH 39 45
BRANCH 35 48
ATOM     48  O3  ASG B   4       9.349  68.486  20.6940  0.00  0.00     0.000 O
BRANCH 48 51
ATOM     49  C1  ASG B   4       6.835  70.134  22.8510  0.00  0.00     0.000 C
ATOM     50  C2  ASG B   4       8.090  69.348  22.4350  0.00  0.00     0.000 C
ATOM     51  C3  ASG B   4       8.319  69.430  20.9280  0.00  0.00     0.000 C
ATOM     52  C4  ASG B   4       7.054  69.083  20.1590  0.00  0.00     0.000 C
ATOM     53  C5  ASG B   4       5.930  69.983  20.6660  0.00  0.00     0.000 C
ATOM     54  O5  ASG B   4       5.721  69.733  22.0700  0.00  0.00     0.000 O
BRANCH 50 57
ATOM     55   N  ASG B   4       8.650  68.038  22.6770  0.00  0.00     0.000 N
ATOM     57  HD  ASG B   4       9.167  68.254  23.3370  0.00  0.00     0.000 HD
ATOM     57   O  ASG B   4       9.077  68.408  24.8440  0.00  0.00     0.000 OA
ATOM     58   C  ASG B   4       9.007  67.629  23.8980  0.00  0.00     0.000 C
ATOM     59   C  ASG B   4       9.366  66.180  24.0160  0.00  0.00     0.000 C
ENDBRANCH 50 57
BRANCH 52 60
ATOM     60   O  ASG B   4       6.862  67.637  20.4400  0.00  0.00     0.000 O
ATOM     61   O  ASG B   4       7.130  67.005  18.0400  0.00  0.00     0.000 OA
ATOM     62   O  ASG B   4       6.916  65.307  19.6960  0.00  0.00     0.000 OA
ATOM     63   O  ASG B   4       5.076  66.780  19.2910  0.00  0.00     0.000 OA
ATOM     64   S  ASG B   4       6.530  66.597  19.2660  0.00  0.00     0.000 S
ENDBRANCH 52 60
ATOM     65   O  ASG B   4       3.719  70.882  20.2360  0.00  0.00     0.000 O
ATOM     67  HD  ASG B   4       3.483  70.698  21.0480  0.00  0.00     0.000 HD
ATOM     67   O  ASG B   4       3.719  70.882  20.2360  0.00  0.00     0.000 O
ATOM     69  HD  ASG B   4       3.483  70.698  21.0480  0.00  0.00     0.000 HD
ENDBRANCH 48 51
ENDBRANCH 35 48
ENDBRANCH 34 38
ENDBRANCH 15 34
ENDBRANCH 14 17
ENDBRANCH 1 14
TORSDOF 12
ENDMDL
MODEL 69
REMARK VINA RESULT:      -0.9     32.548     39.021
ROOT
ATOM      1  C1  GAD B   1      44.727  48.085  59.8620  0.00  0.00     0.000 C
ATOM      2  C2  GAD B   1      45.326  47.636  61.1990  0.00  0.00     0.000 C
ATOM      3  C3  GAD B   1      46.325  48.682  61.7070  0.00  0.00     0.000 C
ATOM      4  C4  GAD B   1      47.073  49.434  60.6020  0.00  0.00     0.000 C
ATOM      5  C5  GAD B   1      46.793  49.328  59.2880  0.00  0.00     0.000 C
ATOM      6  O5  GAD B   1      45.751  48.409  58.9090  0.00  0.00     0.000 O
ATOM      7   O  GAD B   1      44.271  47.328  62.1840  0.00  0.00     0.000 O
ATOM      9  HD  GAD B   1      43.791  47.336  61.4630  0.00  0.00     0.000 HD
ATOM      9   O  GAD B   1      47.340  48.085  62.5430  0.00  0.00     0.000 O
ATOM     11  HD  GAD B   1      46.861  48.093  61.8220  0.00  0.00     0.000 HD
ENDROOT
BRANCH 5 11
ATOM     11   C  GAD B   1      47.438  50.128  58.2210  0.00  0.00     0.000 C
ATOM     12   O  GAD B   1      46.869  50.138  57.0860  0.00  0.00     0.000 OA
ATOM     13   O  GAD B   1      48.565  50.708  58.4400  0.00  0.00     0.000 OA
ENDBRANCH 5 11
BRANCH 1 14
ATOM     14  O3  ASG B   2      44.161  47.247  58.9730  0.00  0.00     0.000 O
BRANCH 14 17
ATOM     15  C1  ASG B   2      41.062  47.221  56.8120  0.00  0.00     0.000 C
ATOM     16  C2  ASG B   2      41.933  46.883  58.0300  0.00  0.00     0.000 C
ATOM     17  C3  ASG B   2      43.309  47.532  57.8570  0.00  0.00     0.000 C
ATOM     18  C4  ASG B   2      43.960  47.035  56.5800  0.00  0.00     0.000 C
ATOM     19  C5  ASG B   2      43.010  47.277  55.4110  0.00  0.00     0.000 C
ATOM     20  O5  ASG B   2      41.728  46.680  55.6860  0.00  0.00     0.000 O
ATOM     21   C  ASG B   2      43.497  46.669  54.1350  0.00  0.00     0.000 C
ATOM     22   O  ASG B   2      42.481  46.746  53.1650  0.00  0.00     0.000 O
ATOM     24  HD  ASG B   2      41.956  46.727  52.4760  0.00  0.00     0.000 HD
BRANCH 16 26
ATOM     24   N  ASG B   2      41.823  46.046  59.2020  0.00  0.00     0.000 N
ATOM     26  HD  ASG B   2      42.559  46.114  58.7500  0.00  0.00     0.000 HD
ATOM     26   C  ASG B   2      41.510  46.505  60.4280  0.00  0.00     0.000 C
ATOM     27   C  ASG B   2      41.108  45.477  61.4300  0.00  0.00     0.000 C
ATOM     28   O  ASG B   2      41.553  47.698  60.7000  0.00  0.00     0.000 OA
ENDBRANCH 16 26
BRANCH 18 29
ATOM     29   O  ASG B   2      44.256  45.612  56.7890  0.00  0.00     0.000 O
ATOM     30   O  ASG B   2      46.299  45.628  55.4220  0.00  0.00     0.000 OA
ATOM     31   O  ASG B   2      46.461  45.520  57.8420  0.00  0.00     0.000 OA
ATOM     32   O  ASG B   2      45.618  43.625  56.6010  0.00  0.00     0.000 OA
ATOM     33   S  ASG B   2      45.767  45.079  56.6550  0.00  0.00     0.000 S
ENDBRANCH 18 29
BRANCH 15 34
ATOM     34  O4  ASG B   3      39.774  46.678  56.8740  0.00  0.00     0.000 O
BRANCH 34 38
ATOM     35  C1  GCT B   3      36.984  43.933  55.8510  0.00  0.00     0.000 C
ATOM     36  C2  GCT B   3      38.375  43.362  56.0250  0.00  0.00     0.000 C
ATOM     37  C3  GCT B   3      39.259  44.318  56.8130  0.00  0.00     0.000 C
ATOM     38  C4  GCT B   3      39.348  45.654  56.0650  0.00  0.00     0.000 C
ATOM     39  C5  GCT B   3      38.034  45.993  55.3250  0.00  0.00     0.000 C
ATOM     40  O5  GCT B   3      36.992  45.344  56.0330  0.00  0.00     0.000 O
ATOM     41   O  GCT B   3      38.224  42.138  56.7290  0.00  0.00     0.000 O
ATOM     43  HD  GCT B   3      37.958  41.352  56.4780  0.00  0.00     0.000 HD
ATOM     43   O  GCT B   3      40.547  43.698  57.0100  0.00  0.00     0.000 O
ATOM     45  HD  GCT B   3      40.281  42.913  56.7590  0.00  0.00     0.000 HD
BRANCH 39 45
ATOM     45   C  GCT B   3      37.929  45.653  53.8550  0.00  0.00     0.000 C
ATOM     46   O  GCT B   3      38.896  45.065  53.2760  0.00  0.00     0.000 OA
ATOM     47   O  GCT B   3      36.877  45.954  53.2660  0.00  0.00     0.000 OA
ENDBRANCH 39 45
BRANCH 35 48
ATOM     48  O3  ASG B   4      36.331  43.222  54.9570  0.00  0.00     0.000 O
BRANCH 48 51
ATOM     49  C1  ASG B   4      33.204  41.296  55.4030  0.00  0.00     0.000 C
ATOM     50  C2  ASG B   4      34.701  41.601  55.2290  0.00  0.00     0.000 C
ATOM     51  C3  ASG B   4      34.980  43.095  55.3650  0.00  0.00     0.000 C
ATOM     52  C4  ASG B   4      34.048  43.912  54.4860  0.00  0.00     0.000 C
ATOM     53  C5  ASG B   4      32.612  43.516  54.8200  0.00  0.00     0.000 C
ATOM     54  O5  ASG B   4      32.432  42.114  54.5390  0.00  0.00     0.000 O
BRANCH 50 57
ATOM     55   N  ASG B   4      35.230  40.744  56.2650  0.00  0.00     0.000 N
ATOM     57  HD  ASG B   4      35.101  39.987  55.8640  0.00  0.00     0.000 HD
ATOM     57   O  ASG B   4      35.821  39.095  54.8690  0.00  0.00     0.000 OA
ATOM     58   C  ASG B   4      35.848  39.591  55.9910  0.00  0.00     0.000 C
ATOM     59   C  ASG B   4      36.526  38.928  57.1510  0.00  0.00     0.000 C
ENDBRANCH 50 57
BRANCH 52 60
ATOM     60   O  ASG B   4      34.479  43.566  53.1070  0.00  0.00     0.000 O
ATOM     61   O  ASG B   4      33.745  45.767  52.1870  0.00  0.00     0.000 OA
ATOM     62   O  ASG B   4      34.897  44.223  50.7880  0.00  0.00     0.000 OA
ATOM     63   O  ASG B   4      32.733  43.646  51.6270  0.00  0.00     0.000 OA
ATOM     64   S  ASG B   4      33.970  44.404  51.8390  0.00  0.00     0.000 S
ENDBRANCH 52 60
ATOM     65   O  ASG B   4      30.268  44.113  54.6600  0.00  0.00     0.000 O
ATOM     67  HD  ASG B   4      30.076  43.306  54.4120  0.00  0.00     0.000 HD
ATOM     67   O  ASG B   4      30.268  44.113  54.6600  0.00  0.00     0.000 O
ATOM     69  HD  ASG B   4      30.076  43.306  54.4120  0.00  0.00     0.000 HD
ENDBRANCH 48 51
ENDBRANCH 35 48
ENDBRANCH 34 38
ENDBRANCH 15 34
ENDBRANCH 14 17
ENDBRANCH 1 14
TORSDOF 12
ENDMDL
MODEL 70
REMARK VINA RESULT:      -0.8     88.583     91.939
ROOT
ATOM      1  C1  GAD B   1      88.823  96.893  61.5920  0.00  0.00     0.000 C
ATOM      2  C2  GAD B   1      88.456  97.920  62.6670  0.00  0.00     0.000 C
ATOM      3  C3  GAD B   1      87.837  99.163  62.0180  0.00  0.00     0.000 C
ATOM      4  C4  GAD B   1      88.378  99.487  60.6230  0.00  0.00     0.000 C
ATOM      5  C5  GAD B   1      89.208  98.687  59.9260  0.00  0.00     0.000 C
ATOM      6  O5  GAD B   1      89.644  97.473  60.5670  0.00  0.00     0.000 O
ATOM      7   O  GAD B   1      87.592  97.326  63.7060  0.00  0.00     0.000 O
ATOM      9  HD  GAD B   1      87.879  96.600  63.3300  0.00  0.00     0.000 HD
ATOM      9   O  GAD B   1      88.058 100.346  62.8180  0.00  0.00     0.000 O
ATOM     11  HD  GAD B   1      88.345  99.620  62.4430  0.00  0.00     0.000 HD
ENDROOT
BRANCH 5 11
ATOM     11   C  GAD B   1      89.653  98.939  58.5350  0.00  0.00     0.000 C
ATOM     12   O  GAD B   1      88.769  99.328  57.7100  0.00  0.00     0.000 OA
ATOM     13   O  GAD B   1      90.865  98.686  58.1890  0.00  0.00     0.000 OA
ENDBRANCH 5 11
BRANCH 1 14
ATOM     14  O3  ASG B   2      89.730  95.913  61.7670  0.00  0.00     0.000 O
BRANCH 14 17
ATOM     15  C1  ASG B   2      93.257  95.013  60.7530  0.00  0.00     0.000 C
ATOM     16  C2  ASG B   2      91.725  94.909  60.7670  0.00  0.00     0.000 C
ATOM     17  C3  ASG B   2      91.160  95.966  61.7210  0.00  0.00     0.000 C
ATOM     18  C4  ASG B   2      91.723  95.761  63.1140  0.00  0.00     0.000 C
ATOM     19  C5  ASG B   2      93.247  95.746  63.0390  0.00  0.00     0.000 C
ATOM     20  O5  ASG B   2      93.683  94.763  62.0790  0.00  0.00     0.000 O
ATOM     21   C  ASG B   2      93.888  95.383  64.3400  0.00  0.00     0.000 C
ATOM     22   O  ASG B   2      95.265  95.181  64.1410  0.00  0.00     0.000 O
ATOM     24  HD  ASG B   2      96.117  95.030  64.1670  0.00  0.00     0.000 HD
BRANCH 16 26
ATOM     24   N  ASG B   2      90.647  94.084  60.2740  0.00  0.00     0.000 N
ATOM     26  HD  ASG B   2      90.599  94.503  61.0300  0.00  0.00     0.000 HD
ATOM     26   C  ASG B   2      90.000  94.304  59.1140  0.00  0.00     0.000 C
ATOM     27   C  ASG B   2      89.168  93.179  58.6030  0.00  0.00     0.000 C
ATOM     28   O  ASG B   2      90.093  95.370  58.5170  0.00  0.00     0.000 OA
ENDBRANCH 16 26
BRANCH 18 29
ATOM     29   O  ASG B   2      91.164  94.495  63.6070  0.00  0.00     0.000 O
ATOM     30   O  ASG B   2      91.063  95.221  65.9540  0.00  0.00     0.000 OA
ATOM     31   O  ASG B   2      89.023  95.054  64.6480  0.00  0.00     0.000 OA
ATOM     32   O  ASG B   2      90.213  93.051  65.2950  0.00  0.00     0.000 OA
ATOM     33   S  ASG B   2      90.307  94.474  64.9660  0.00  0.00     0.000 S
ENDBRANCH 18 29
BRANCH 15 34
ATOM     34  O4  ASG B   3      93.874  94.088  59.9030  0.00  0.00     0.000 O
BRANCH 34 38
ATOM     35  C1  GCT B   3      92.944  95.881  56.3980  0.00  0.00     0.000 C
ATOM     36  C2  GCT B   3      93.207  94.396  56.2790  0.00  0.00     0.000 C
ATOM     37  C3  GCT B   3      93.116  93.719  57.6400  0.00  0.00     0.000 C
ATOM     38  C4  GCT B   3      94.150  94.343  58.5840  0.00  0.00     0.000 C
ATOM     39  C5  GCT B   3      94.357  95.849  58.3030  0.00  0.00     0.000 C
ATOM     40  O5  GCT B   3      93.149  96.324  57.7360  0.00  0.00     0.000 O
ATOM     41   O  GCT B   3      92.215  93.879  55.4040  0.00  0.00     0.000 O
ATOM     43  HD  GCT B   3      92.127  93.909  54.5430  0.00  0.00     0.000 HD
ATOM     43   O  GCT B   3      93.305  92.299  57.4600  0.00  0.00     0.000 O
ATOM     45  HD  GCT B   3      93.218  92.329  56.5990  0.00  0.00     0.000 HD
BRANCH 39 45
ATOM     45   C  GCT B   3      95.519  96.265  57.4280  0.00  0.00     0.000 C
ATOM     46   O  GCT B   3      95.748  97.501  57.2350  0.00  0.00     0.000 OA
ATOM     47   O  GCT B   3      96.222  95.368  56.9360  0.00  0.00     0.000 OA
ENDBRANCH 39 45
BRANCH 35 48
ATOM     48  O3  ASG B   4      93.285  96.475  55.2750  0.00  0.00     0.000 O
BRANCH 48 51
ATOM     49  C1  ASG B   4      90.910  99.175  54.4060  0.00  0.00     0.000 C
ATOM     50  C2  ASG B   4      91.458  97.764  54.6730  0.00  0.00     0.000 C
ATOM     51  C3  ASG B   4      92.843  97.821  55.3120  0.00  0.00     0.000 C
ATOM     52  C4  ASG B   4      93.771  98.739  54.5320  0.00  0.00     0.000 C
ATOM     53  C5  ASG B   4      93.092 100.099  54.4010  0.00  0.00     0.000 C
ATOM     54  O5  ASG B   4      91.855  99.941  53.6780  0.00  0.00     0.000 O
BRANCH 50 57
ATOM     55   N  ASG B   4      90.205  97.547  55.3580  0.00  0.00     0.000 N
ATOM     57  HD  ASG B   4      89.728  97.344  54.6650  0.00  0.00     0.000 HD
ATOM     57   O  ASG B   4      89.398  96.115  53.8380  0.00  0.00     0.000 OA
ATOM     58   C  ASG B   4      89.307  96.652  54.9370  0.00  0.00     0.000 C
ATOM     59   C  ASG B   4      88.163  96.393  55.8700  0.00  0.00     0.000 C
ENDBRANCH 50 57
BRANCH 52 60
ATOM     60   O  ASG B   4      93.971  98.021  53.2470  0.00  0.00     0.000 O
ATOM     61   O  ASG B   4      96.324  97.406  53.8090  0.00  0.00     0.000 OA
ATOM     62   O  ASG B   4      95.322  96.566  51.8190  0.00  0.00     0.000 OA
ATOM     63   O  ASG B   4      95.693  98.918  52.0330  0.00  0.00     0.000 OA
ATOM     64   S  ASG B   4      95.438  97.648  52.7200  0.00  0.00     0.000 S
ENDBRANCH 52 60
ATOM     65   O  ASG B   4      93.379 102.455  53.9050  0.00  0.00     0.000 O
ATOM     67  HD  ASG B   4      92.684 102.435  53.3890  0.00  0.00     0.000 HD
ATOM     67   O  ASG B   4      93.379 102.455  53.9050  0.00  0.00     0.000 O
ATOM     69  HD  ASG B   4      92.684 102.435  53.3890  0.00  0.00     0.000 HD
ENDBRANCH 48 51
ENDBRANCH 35 48
ENDBRANCH 34 38
ENDBRANCH 15 34
ENDBRANCH 14 17
ENDBRANCH 1 14
TORSDOF 12
ENDMDL
MODEL 71
REMARK VINA RESULT:      -0.8     79.367     82.323
ROOT
ATOM      1  C1  GAD B   1      86.669  87.191  32.3560  0.00  0.00     0.000 C
ATOM      2  C2  GAD B   1      88.118  87.200  32.8540  0.00  0.00     0.000 C
ATOM      3  C3  GAD B   1      88.157  87.514  34.3540  0.00  0.00     0.000 C
ATOM      4  C4  GAD B   1      87.042  88.445  34.8370  0.00  0.00     0.000 C
ATOM      5  C5  GAD B   1      86.005  88.848  34.0750  0.00  0.00     0.000 C
ATOM      6  O5  GAD B   1      85.984  88.402  32.7060  0.00  0.00     0.000 O
ATOM      7   O  GAD B   1      88.812  85.943  32.5140  0.00  0.00     0.000 O
ATOM      9  HD  GAD B   1      88.127  85.871  31.9900  0.00  0.00     0.000 HD
ATOM      9   O  GAD B   1      89.400  88.148  34.7320  0.00  0.00     0.000 O
ATOM     11  HD  GAD B   1      88.715  88.076  34.2070  0.00  0.00     0.000 HD
ENDROOT
BRANCH 5 11
ATOM     11   C  GAD B   1      84.866  89.661  34.5620  0.00  0.00     0.000 C
ATOM     12   O  GAD B   1      84.374  89.344  35.6900  0.00  0.00     0.000 OA
ATOM     13   O  GAD B   1      84.368  90.584  33.8190  0.00  0.00     0.000 OA
ENDBRANCH 5 11
BRANCH 1 14
ATOM     14  O3  ASG B   2      86.316  87.359  31.0680  0.00  0.00     0.000 O
BRANCH 14 17
ATOM     15  C1  ASG B   2      84.806  89.970  28.7920  0.00  0.00     0.000 C
ATOM     16  C2  ASG B   2      84.856  88.669  29.6050  0.00  0.00     0.000 C
ATOM     17  C3  ASG B   2      86.221  88.559  30.2920  0.00  0.00     0.000 C
ATOM     18  C4  ASG B   2      87.327  88.584  29.2540  0.00  0.00     0.000 C
ATOM     19  C5  ASG B   2      87.168  89.829  28.3860  0.00  0.00     0.000 C
ATOM     20  O5  ASG B   2      85.840  89.876  27.8290  0.00  0.00     0.000 O
ATOM     21   C  ASG B   2      88.115  89.853  27.2300  0.00  0.00     0.000 C
ATOM     22   O  ASG B   2      87.769  90.908  26.3660  0.00  0.00     0.000 O
ATOM     24  HD  ASG B   2      87.675  91.512  25.7530  0.00  0.00     0.000 HD
BRANCH 16 26
ATOM     24   N  ASG B   2      84.093  87.467  29.8480  0.00  0.00     0.000 N
ATOM     26  HD  ASG B   2      84.959  87.475  29.8600  0.00  0.00     0.000 HD
ATOM     26   C  ASG B   2      83.210  87.326  30.8540  0.00  0.00     0.000 C
ATOM     27   C  ASG B   2      82.277  86.169  30.7500  0.00  0.00     0.000 C
ATOM     28   O  ASG B   2      83.178  88.107  31.7970  0.00  0.00     0.000 OA
ENDBRANCH 16 26
BRANCH 18 29
ATOM     29   O  ASG B   2      87.207  87.336  28.4870  0.00  0.00     0.000 O
ATOM     30   O  ASG B   2      89.624  87.103  28.1040  0.00  0.00     0.000 OA
ATOM     31   O  ASG B   2      88.507  85.660  29.7040  0.00  0.00     0.000 OA
ATOM     32   O  ASG B   2      88.083  85.399  27.3390  0.00  0.00     0.000 OA
ATOM     33   S  ASG B   2      88.447  86.316  28.4190  0.00  0.00     0.000 S
ENDBRANCH 18 29
BRANCH 15 34
ATOM     34  O4  ASG B   3      83.592  90.170  28.1260  0.00  0.00     0.000 O
BRANCH 34 38
ATOM     35  C1  GCT B   3      81.370  91.173  31.3540  0.00  0.00     0.000 C
ATOM     36  C2  GCT B   3      80.564  90.619  30.1990  0.00  0.00     0.000 C
ATOM     37  C3  GCT B   3      81.460  89.872  29.2210  0.00  0.00     0.000 C
ATOM     38  C4  GCT B   3      82.527  90.832  28.6810  0.00  0.00     0.000 C
ATOM     39  C5  GCT B   3      82.963  91.870  29.7410  0.00  0.00     0.000 C
ATOM     40  O5  GCT B   3      82.747  91.271  31.0060  0.00  0.00     0.000 O
ATOM     41   O  GCT B   3      79.606  89.735  30.7630  0.00  0.00     0.000 O
ATOM     43  HD  GCT B   3      78.862  89.876  31.1840  0.00  0.00     0.000 HD
ATOM     43   O  GCT B   3      80.635  89.308  28.1810  0.00  0.00     0.000 O
ATOM     45  HD  GCT B   3      79.891  89.449  28.6020  0.00  0.00     0.000 HD
BRANCH 39 45
ATOM     45   C  GCT B   3      82.316  93.237  29.7170  0.00  0.00     0.000 C
ATOM     46   O  GCT B   3      81.373  93.471  28.8970  0.00  0.00     0.000 OA
ATOM     47   O  GCT B   3      82.730  94.087  30.5230  0.00  0.00     0.000 OA
ENDBRANCH 39 45
BRANCH 35 48
ATOM     48  O3  ASG B   4      80.631  92.024  32.0320  0.00  0.00     0.000 O
BRANCH 48 51
ATOM     49  C1  ASG B   4      81.244  91.734  35.6690  0.00  0.00     0.000 C
ATOM     50  C2  ASG B   4      80.798  91.364  34.2450  0.00  0.00     0.000 C
ATOM     51  C3  ASG B   4      81.310  92.377  33.2250  0.00  0.00     0.000 C
ATOM     52  C4  ASG B   4      80.992  93.800  33.6530  0.00  0.00     0.000 C
ATOM     53  C5  ASG B   4      81.542  94.006  35.0620  0.00  0.00     0.000 C
ATOM     54  O5  ASG B   4      80.900  93.079  35.9600  0.00  0.00     0.000 O
BRANCH 50 57
ATOM     55   N  ASG B   4      81.374  90.077  34.5600  0.00  0.00     0.000 N
ATOM     57  HD  ASG B   4      80.688  89.740  34.9660  0.00  0.00     0.000 HD
ATOM     57   O  ASG B   4      79.414  88.995  34.6100  0.00  0.00     0.000 OA
ATOM     58   C  ASG B   4      80.641  88.961  34.6160  0.00  0.00     0.000 C
ATOM     59   C  ASG B   4      81.413  87.684  34.7390  0.00  0.00     0.000 C
ENDBRANCH 50 57
BRANCH 52 60
ATOM     60   O  ASG B   4      79.511  93.870  33.5520  0.00  0.00     0.000 O
ATOM     61   O  ASG B   4      79.590  95.248  31.4720  0.00  0.00     0.000 OA
ATOM     62   O  ASG B   4      77.497  94.472  32.3010  0.00  0.00     0.000 OA
ATOM     63   O  ASG B   4      78.759  96.033  33.6010  0.00  0.00     0.000 OA
ATOM     64   S  ASG B   4      78.790  94.950  32.6130  0.00  0.00     0.000 S
ENDBRANCH 52 60
ATOM     65   O  ASG B   4      82.175  95.613  36.7630  0.00  0.00     0.000 O
ATOM     67  HD  ASG B   4      81.748  95.154  37.3610  0.00  0.00     0.000 HD
ATOM     67   O  ASG B   4      82.175  95.613  36.7630  0.00  0.00     0.000 O
ATOM     69  HD  ASG B   4      81.748  95.154  37.3610  0.00  0.00     0.000 HD
ENDBRANCH 48 51
ENDBRANCH 35 48
ENDBRANCH 34 38
ENDBRANCH 15 34
ENDBRANCH 14 17
ENDBRANCH 1 14
TORSDOF 12
ENDMDL
MODEL 72
REMARK VINA RESULT:      -0.8     40.618     44.617
ROOT
ATOM      1  C1  GAD B   1      50.683  69.536  52.8190  0.00  0.00     0.000 C
ATOM      2  C2  GAD B   1      51.876  70.185  53.5280  0.00  0.00     0.000 C
ATOM      3  C3  GAD B   1      52.948  70.575  52.5040  0.00  0.00     0.000 C
ATOM      4  C4  GAD B   1      53.031  69.651  51.2870  0.00  0.00     0.000 C
ATOM      5  C5  GAD B   1      52.151  68.664  51.0230  0.00  0.00     0.000 C
ATOM      6  O5  GAD B   1      51.098  68.447  51.9810  0.00  0.00     0.000 O
ATOM      7   O  GAD B   1      51.448  71.319  54.3700  0.00  0.00     0.000 O
ATOM      9  HD  GAD B   1      50.678  70.945  54.2370  0.00  0.00     0.000 HD
ATOM      9   O  GAD B   1      54.268  70.580  53.0940  0.00  0.00     0.000 O
ATOM     11  HD  GAD B   1      53.498  70.206  52.9610  0.00  0.00     0.000 HD
ENDROOT
BRANCH 5 11
ATOM     11   C  GAD B   1      52.159  67.834  49.7950  0.00  0.00     0.000 C
ATOM     12   O  GAD B   1      51.089  67.808  49.1110  0.00  0.00     0.000 OA
ATOM     13   O  GAD B   1      53.188  67.119  49.5060  0.00  0.00     0.000 OA
ENDBRANCH 5 11
BRANCH 1 14
ATOM     14  O3  ASG B   2      49.794  68.730  53.4290  0.00  0.00     0.000 O
BRANCH 14 17
ATOM     15  C1  ASG B   2      49.332  65.482  55.3030  0.00  0.00     0.000 C
ATOM     16  C2  ASG B   2      49.069  66.528  54.2110  0.00  0.00     0.000 C
ATOM     17  C3  ASG B   2      49.999  67.725  54.4280  0.00  0.00     0.000 C
ATOM     18  C4  ASG B   2      49.768  68.318  55.8040  0.00  0.00     0.000 C
ATOM     19  C5  ASG B   2      49.916  67.220  56.8520  0.00  0.00     0.000 C
ATOM     20  O5  ASG B   2      49.046  66.115  56.5360  0.00  0.00     0.000 O
ATOM     21   C  ASG B   2      49.543  67.676  58.2260  0.00  0.00     0.000 C
ATOM     22   O  ASG B   2      49.499  66.566  59.0900  0.00  0.00     0.000 O
ATOM     24  HD  ASG B   2      49.437  65.984  59.7280  0.00  0.00     0.000 HD
BRANCH 16 26
ATOM     24   N  ASG B   2      48.167  66.814  53.1190  0.00  0.00     0.000 N
ATOM     26  HD  ASG B   2      48.532  67.440  53.5930  0.00  0.00     0.000 HD
ATOM     26   C  ASG B   2      48.390  66.447  51.8430  0.00  0.00     0.000 C
ATOM     27   C  ASG B   2      47.218  66.518  50.9260  0.00  0.00     0.000 C
ATOM     28   O  ASG B   2      49.494  66.076  51.4630  0.00  0.00     0.000 OA
ENDBRANCH 16 26
BRANCH 18 29
ATOM     29   O  ASG B   2      48.422  68.908  55.7830  0.00  0.00     0.000 O
ATOM     30   O  ASG B   2      48.971  70.719  57.3520  0.00  0.00     0.000 OA
ATOM     31   O  ASG B   2      48.695  71.205  54.9900  0.00  0.00     0.000 OA
ATOM     32   O  ASG B   2      46.779  70.592  56.3310  0.00  0.00     0.000 OA
ATOM     33   S  ASG B   2      48.223  70.463  56.1360  0.00  0.00     0.000 S
ENDBRANCH 18 29
BRANCH 15 34
ATOM     34  O4  ASG B   3      48.532  64.339  55.1920  0.00  0.00     0.000 O
BRANCH 34 38
ATOM     35  C1  GCT B   3      50.311  62.720  51.9400  0.00  0.00     0.000 C
ATOM     36  C2  GCT B   3      48.890  62.251  52.1620  0.00  0.00     0.000 C
ATOM     37  C3  GCT B   3      48.149  63.192  53.1010  0.00  0.00     0.000 C
ATOM     38  C4  GCT B   3      48.883  63.242  54.4460  0.00  0.00     0.000 C
ATOM     39  C5  GCT B   3      50.413  63.107  54.2780  0.00  0.00     0.000 C
ATOM     40  O5  GCT B   3      50.722  63.595  52.9840  0.00  0.00     0.000 O
ATOM     41   O  GCT B   3      48.266  62.236  50.8860  0.00  0.00     0.000 O
ATOM     43  HD  GCT B   3      48.319  61.685  50.2190  0.00  0.00     0.000 HD
ATOM     43   O  GCT B   3      46.784  62.740  53.2230  0.00  0.00     0.000 O
ATOM     45  HD  GCT B   3      46.837  62.189  52.5570  0.00  0.00     0.000 HD
BRANCH 39 45
ATOM     45   C  GCT B   3      51.039  61.741  54.4590  0.00  0.00     0.000 C
ATOM     46   O  GCT B   3      52.295  61.603  54.3230  0.00  0.00     0.000 OA
ATOM     47   O  GCT B   3      50.288  60.796  54.7530  0.00  0.00     0.000 OA
ENDBRANCH 39 45
BRANCH 35 48
ATOM     48  O3  ASG B   4      50.998  61.765  51.3500  0.00  0.00     0.000 O
BRANCH 48 51
ATOM     49  C1  ASG B   4      52.802  61.351  48.1470  0.00  0.00     0.000 C
ATOM     50  C2  ASG B   4      52.084  60.990  49.4580  0.00  0.00     0.000 C
ATOM     51  C3  ASG B   4      51.400  62.211  50.0660  0.00  0.00     0.000 C
ATOM     52  C4  ASG B   4      52.355  63.390  50.1550  0.00  0.00     0.000 C
ATOM     53  C5  ASG B   4      52.938  63.634  48.7660  0.00  0.00     0.000 C
ATOM     54  O5  ASG B   4      53.662  62.461  48.3450  0.00  0.00     0.000 O
BRANCH 50 57
ATOM     55   N  ASG B   4      51.072  59.975  49.6350  0.00  0.00     0.000 N
ATOM     57  HD  ASG B   4      51.505  59.316  49.2760  0.00  0.00     0.000 HD
ATOM     57   O  ASG B   4      52.519  58.267  49.6910  0.00  0.00     0.000 OA
ATOM     58   C  ASG B   4      51.378  58.691  49.8440  0.00  0.00     0.000 C
ATOM     59   C  ASG B   4      50.231  57.804  50.2220  0.00  0.00     0.000 C
ENDBRANCH 50 57
BRANCH 52 60
ATOM     60   O  ASG B   4      53.346  62.959  51.1740  0.00  0.00     0.000 O
ATOM     61   O  ASG B   4      53.493  65.237  52.1830  0.00  0.00     0.000 OA
ATOM     62   O  ASG B   4      54.647  63.416  53.1950  0.00  0.00     0.000 OA
ATOM     63   O  ASG B   4      55.300  64.143  51.0120  0.00  0.00     0.000 OA
ATOM     64   S  ASG B   4      54.218  64.026  51.9940  0.00  0.00     0.000 S
ENDBRANCH 52 60
ATOM     65   O  ASG B   4      54.103  65.188  47.3130  0.00  0.00     0.000 O
ATOM     67  HD  ASG B   4      54.634  64.554  47.0560  0.00  0.00     0.000 HD
ATOM     67   O  ASG B   4      54.103  65.188  47.3130  0.00  0.00     0.000 O
ATOM     69  HD  ASG B   4      54.634  64.554  47.0560  0.00  0.00     0.000 HD
ENDBRANCH 48 51
ENDBRANCH 35 48
ENDBRANCH 34 38
ENDBRANCH 15 34
ENDBRANCH 14 17
ENDBRANCH 1 14
TORSDOF 12
ENDMDL
MODEL 73
REMARK VINA RESULT:      -0.8     57.746     63.004
ROOT
ATOM      1  C1  GAD B   1      52.585 100.136  14.7780  0.00  0.00     0.000 C
ATOM      2  C2  GAD B   1      51.510 101.160  14.3980  0.00  0.00     0.000 C
ATOM      3  C3  GAD B   1      51.448 102.273  15.4510  0.00  0.00     0.000 C
ATOM      4  C4  GAD B   1      51.786 101.820  16.8740  0.00  0.00     0.000 C
ATOM      5  C5  GAD B   1      52.256 100.597  17.1900  0.00  0.00     0.000 C
ATOM      6  O5  GAD B   1      52.400  99.649  16.1150  0.00  0.00     0.000 O
ATOM      7   O  GAD B   1      51.718 101.676  13.0320  0.00  0.00     0.000 O
ATOM      9  HD  GAD B   1      52.237 100.983  13.0000  0.00  0.00     0.000 HD
ATOM      9   O  GAD B   1      50.132 102.865  15.5210  0.00  0.00     0.000 O
ATOM     11  HD  GAD B   1      50.651 102.172  15.4890  0.00  0.00     0.000 HD
ENDROOT
BRANCH 5 11
ATOM     11   C  GAD B   1      52.686 100.183  18.5470  0.00  0.00     0.000 C
ATOM     12   O  GAD B   1      53.861  99.716  18.6600  0.00  0.00     0.000 OA
ATOM     13   O  GAD B   1      51.857 100.229  19.5290  0.00  0.00     0.000 OA
ENDBRANCH 5 11
BRANCH 1 14
ATOM     14  O3  ASG B   2      52.613  98.871  14.3180  0.00  0.00     0.000 O
BRANCH 14 17
ATOM     15  C1  ASG B   2      50.763  95.578  14.2010  0.00  0.00     0.000 C
ATOM     16  C2  ASG B   2      51.949  96.520  14.4540  0.00  0.00     0.000 C
ATOM     17  C3  ASG B   2      51.538  97.951  14.0950  0.00  0.00     0.000 C
ATOM     18  C4  ASG B   2      51.104  98.017  12.6430  0.00  0.00     0.000 C
ATOM     19  C5  ASG B   2      50.011  96.980  12.4030  0.00  0.00     0.000 C
ATOM     20  O5  ASG B   2      50.466  95.678  12.8200  0.00  0.00     0.000 O
ATOM     21   C  ASG B   2      49.636  96.857  10.9600  0.00  0.00     0.000 C
ATOM     22   O  ASG B   2      48.790  95.747  10.7920  0.00  0.00     0.000 O
ATOM     24  HD  ASG B   2      48.267  95.103  10.5420  0.00  0.00     0.000 HD
BRANCH 16 26
ATOM     24   N  ASG B   2      53.349  96.502  14.8090  0.00  0.00     0.000 N
ATOM     26  HD  ASG B   2      53.011  97.109  14.2920  0.00  0.00     0.000 HD
ATOM     26   C  ASG B   2      53.807  96.591  16.0710  0.00  0.00     0.000 C
ATOM     27   C  ASG B   2      55.234  96.214  16.2790  0.00  0.00     0.000 C
ATOM     28   O  ASG B   2      53.089  96.960  16.9920  0.00  0.00     0.000 OA
ENDBRANCH 16 26
BRANCH 18 29
ATOM     29   O  ASG B   2      52.307  97.774  11.8370  0.00  0.00     0.000 O
ATOM     30   O  ASG B   2      51.598  99.219   9.9780  0.00  0.00     0.000 OA
ATOM     31   O  ASG B   2      53.348  99.959  11.4890  0.00  0.00     0.000 OA
ATOM     32   O  ASG B   2      53.768  98.145   9.9480  0.00  0.00     0.000 OA
ATOM     33   S  ASG B   2      52.775  98.861  10.7480  0.00  0.00     0.000 S
ENDBRANCH 18 29
BRANCH 15 34
ATOM     34  O4  ASG B   3      51.034  94.240  14.5040  0.00  0.00     0.000 O
BRANCH 34 38
ATOM     35  C1  GCT B   3      51.077  94.574  18.5350  0.00  0.00     0.000 C
ATOM     36  C2  GCT B   3      51.839  93.377  18.0080  0.00  0.00     0.000 C
ATOM     37  C3  GCT B   3      52.153  93.544  16.5280  0.00  0.00     0.000 C
ATOM     38  C4  GCT B   3      50.842  93.694  15.7480  0.00  0.00     0.000 C
ATOM     39  C5  GCT B   3      49.765  94.445  16.5630  0.00  0.00     0.000 C
ATOM     40  O5  GCT B   3      50.457  95.286  17.4700  0.00  0.00     0.000 O
ATOM     41   O  GCT B   3      53.040  93.300  18.7620  0.00  0.00     0.000 O
ATOM     43  HD  GCT B   3      53.205  93.022  19.5650  0.00  0.00     0.000 HD
ATOM     43   O  GCT B   3      52.937  92.412  16.0950  0.00  0.00     0.000 O
ATOM     45  HD  GCT B   3      53.102  92.134  16.8980  0.00  0.00     0.000 HD
BRANCH 39 45
ATOM     45   C  GCT B   3      48.738  93.632  17.3200  0.00  0.00     0.000 C
ATOM     46   O  GCT B   3      47.845  94.227  18.0020  0.00  0.00     0.000 OA
ATOM     47   O  GCT B   3      48.801  92.395  17.2310  0.00  0.00     0.000 OA
ENDBRANCH 39 45
BRANCH 35 48
ATOM     48  O3  ASG B   4      50.594  94.291  19.7260  0.00  0.00     0.000 O
BRANCH 48 51
ATOM     49  C1  ASG B   4      51.002  95.604  23.1610  0.00  0.00     0.000 C
ATOM     50  C2  ASG B   4      50.640  94.646  22.0140  0.00  0.00     0.000 C
ATOM     51  C3  ASG B   4      51.201  95.142  20.6830  0.00  0.00     0.000 C
ATOM     52  C4  ASG B   4      50.845  96.600  20.4450  0.00  0.00     0.000 C
ATOM     53  C5  ASG B   4      51.312  97.406  21.6540  0.00  0.00     0.000 C
ATOM     54  O5  ASG B   4      50.629  96.932  22.8310  0.00  0.00     0.000 O
BRANCH 50 57
ATOM     55   N  ASG B   4      50.923  93.232  21.9240  0.00  0.00     0.000 N
ATOM     57  HD  ASG B   4      50.601  93.002  22.6950  0.00  0.00     0.000 HD
ATOM     57   O  ASG B   4      49.261  92.616  23.2930  0.00  0.00     0.000 OA
ATOM     58   C  ASG B   4      50.140  92.311  22.4930  0.00  0.00     0.000 C
ATOM     59   C  ASG B   4      50.444  90.889  22.1310  0.00  0.00     0.000 C
ENDBRANCH 50 57
BRANCH 52 60
ATOM     60   O  ASG B   4      49.372  96.572  20.2540  0.00  0.00     0.000 O
ATOM     61   O  ASG B   4      49.445  98.289  18.4440  0.00  0.00     0.000 OA
ATOM     62   O  ASG B   4      47.386  97.222  18.9820  0.00  0.00     0.000 OA
ATOM     63   O  ASG B   4      48.430  98.629  20.6100  0.00  0.00     0.000 OA
ATOM     64   S  ASG B   4      48.612  97.738  19.4590  0.00  0.00     0.000 S
ENDBRANCH 52 60
ATOM     65   O  ASG B   4      51.833  99.607  22.5310  0.00  0.00     0.000 O
ATOM     67  HD  ASG B   4      51.377  99.433  23.2460  0.00  0.00     0.000 HD
ATOM     67   O  ASG B   4      51.833  99.607  22.5310  0.00  0.00     0.000 O
ATOM     69  HD  ASG B   4      51.377  99.433  23.2460  0.00  0.00     0.000 HD
ENDBRANCH 48 51
ENDBRANCH 35 48
ENDBRANCH 34 38
ENDBRANCH 15 34
ENDBRANCH 14 17
ENDBRANCH 1 14
TORSDOF 12
ENDMDL
MODEL 74
REMARK VINA RESULT:      -0.8     72.452     76.431
ROOT
ATOM      1  C1  GAD B   1      74.390  89.253  13.4580  0.00  0.00     0.000 C
ATOM      2  C2  GAD B   1      74.106  89.688  12.0170  0.00  0.00     0.000 C
ATOM      3  C3  GAD B   1      74.467  91.166  11.8320  0.00  0.00     0.000 C
ATOM      4  C4  GAD B   1      74.265  92.030  13.0800  0.00  0.00     0.000 C
ATOM      5  C5  GAD B   1      73.952  91.543  14.2970  0.00  0.00     0.000 C
ATOM      6  O5  GAD B   1      73.751  90.121  14.4060  0.00  0.00     0.000 O
ATOM      7   O  GAD B   1      74.785  88.808  11.0460  0.00  0.00     0.000 O
ATOM      9  HD  GAD B   1      74.853  88.314  11.7540  0.00  0.00     0.000 HD
ATOM      9   O  GAD B   1      73.677  91.779  10.7890  0.00  0.00     0.000 O
ATOM     11  HD  GAD B   1      73.745  91.286  11.4970  0.00  0.00     0.000 HD
ENDROOT
BRANCH 5 11
ATOM     11   C  GAD B   1      73.859  92.357  15.5320  0.00  0.00     0.000 C
ATOM     12   O  GAD B   1      74.760  93.233  15.7130  0.00  0.00     0.000 OA
ATOM     13   O  GAD B   1      72.945  92.108  16.4020  0.00  0.00     0.000 OA
ENDBRANCH 5 11
BRANCH 1 14
ATOM     14  O3  ASG B   2      73.820  88.185  14.0470  0.00  0.00     0.000 O
BRANCH 14 17
ATOM     15  C1  ASG B   2      71.181  87.364  16.6240  0.00  0.00     0.000 C
ATOM     16  C2  ASG B   2      72.600  87.493  16.0520  0.00  0.00     0.000 C
ATOM     17  C3  ASG B   2      72.517  88.043  14.6250  0.00  0.00     0.000 C
ATOM     18  C4  ASG B   2      71.675  87.121  13.7630  0.00  0.00     0.000 C
ATOM     19  C5  ASG B   2      70.318  86.919  14.4290  0.00  0.00     0.000 C
ATOM     20  O5  ASG B   2      70.496  86.455  15.7820  0.00  0.00     0.000 O
ATOM     21   C  ASG B   2      69.480  85.893  13.7350  0.00  0.00     0.000 C
ATOM     22   O  ASG B   2      68.347  85.609  14.5190  0.00  0.00     0.000 O
ATOM     24  HD  ASG B   2      67.612  85.340  14.8900  0.00  0.00     0.000 HD
BRANCH 16 26
ATOM     24   N  ASG B   2      73.970  87.164  16.3740  0.00  0.00     0.000 N
ATOM     26  HD  ASG B   2      73.673  87.165  15.5600  0.00  0.00     0.000 HD
ATOM     26   C  ASG B   2      74.821  88.005  16.9900  0.00  0.00     0.000 C
ATOM     27   C  ASG B   2      76.062  87.393  17.5430  0.00  0.00     0.000 C
ATOM     28   O  ASG B   2      74.585  89.203  17.0890  0.00  0.00     0.000 OA
ENDBRANCH 16 26
BRANCH 18 29
ATOM     29   O  ASG B   2      72.434  85.871  13.6240  0.00  0.00     0.000 O
ATOM     30   O  ASG B   2      71.636  85.403  11.3470  0.00  0.00     0.000 OA
ATOM     31   O  ASG B   2      73.909  86.178  11.6980  0.00  0.00     0.000 OA
ATOM     32   O  ASG B   2      73.266  83.958  12.4050  0.00  0.00     0.000 OA
ATOM     33   S  ASG B   2      72.833  85.335  12.1630  0.00  0.00     0.000 S
ENDBRANCH 18 29
BRANCH 15 34
ATOM     34  O4  ASG B   3      71.146  86.872  17.9330  0.00  0.00     0.000 O
BRANCH 34 38
ATOM     35  C1  GCT B   3      72.441  90.225  19.7890  0.00  0.00     0.000 C
ATOM     36  C2  GCT B   3      72.699  88.952  20.5670  0.00  0.00     0.000 C
ATOM     37  C3  GCT B   3      72.600  87.734  19.6590  0.00  0.00     0.000 C
ATOM     38  C4  GCT B   3      71.197  87.677  19.0430  0.00  0.00     0.000 C
ATOM     39  C5  GCT B   3      70.623  89.087  18.7770  0.00  0.00     0.000 C
ATOM     40  O5  GCT B   3      71.733  89.947  18.5870  0.00  0.00     0.000 O
ATOM     41   O  GCT B   3      74.011  89.064  21.1000  0.00  0.00     0.000 O
ATOM     43  HD  GCT B   3      74.329  89.511  21.7710  0.00  0.00     0.000 HD
ATOM     43   O  GCT B   3      72.922  86.558  20.4320  0.00  0.00     0.000 O
ATOM     45  HD  GCT B   3      73.240  87.005  21.1020  0.00  0.00     0.000 HD
BRANCH 39 45
ATOM     45   C  GCT B   3      69.693  89.691  19.8070  0.00  0.00     0.000 C
ATOM     46   O  GCT B   3      69.475  89.071  20.8950  0.00  0.00     0.000 OA
ATOM     47   O  GCT B   3      69.184  90.794  19.5500  0.00  0.00     0.000 OA
ENDBRANCH 39 45
BRANCH 35 48
ATOM     48  O3  ASG B   4      72.272  91.222  20.6310  0.00  0.00     0.000 O
BRANCH 48 51
ATOM     49  C1  ASG B   4      73.832  94.334  19.3790  0.00  0.00     0.000 C
ATOM     50  C2  ASG B   4      73.698  92.901  19.9180  0.00  0.00     0.000 C
ATOM     51  C3  ASG B   4      72.244  92.439  19.9050  0.00  0.00     0.000 C
ATOM     52  C4  ASG B   4      71.335  93.464  20.5630  0.00  0.00     0.000 C
ATOM     53  C5  ASG B   4      71.565  94.809  19.8790  0.00  0.00     0.000 C
ATOM     54  O5  ASG B   4      72.940  95.202  20.0600  0.00  0.00     0.000 O
BRANCH 50 57
ATOM     55   N  ASG B   4      74.710  92.575  18.9400  0.00  0.00     0.000 N
ATOM     57  HD  ASG B   4      75.401  92.799  19.4100  0.00  0.00     0.000 HD
ATOM     57   O  ASG B   4      76.316  92.176  20.4480  0.00  0.00     0.000 OA
ATOM     58   C  ASG B   4      75.923  92.133  19.2870  0.00  0.00     0.000 C
ATOM     59   C  ASG B   4      76.778  91.636  18.1620  0.00  0.00     0.000 C
ENDBRANCH 50 57
BRANCH 52 60
ATOM     60   O  ASG B   4      71.738  93.421  21.9920  0.00  0.00     0.000 O
ATOM     61   O  ASG B   4      69.657  92.225  22.6760  0.00  0.00     0.000 OA
ATOM     62   O  ASG B   4      71.379  92.613  24.2730  0.00  0.00     0.000 OA
ATOM     63   O  ASG B   4      70.216  94.480  23.3360  0.00  0.00     0.000 OA
ATOM     64   S  ASG B   4      70.675  93.101  23.1490  0.00  0.00     0.000 S
ENDBRANCH 52 60
ATOM     65   O  ASG B   4      70.710  97.045  19.4910  0.00  0.00     0.000 O
ATOM     67  HD  ASG B   4      71.492  97.377  19.6580  0.00  0.00     0.000 HD
ATOM     67   O  ASG B   4      70.710  97.045  19.4910  0.00  0.00     0.000 O
ATOM     69  HD  ASG B   4      71.492  97.377  19.6580  0.00  0.00     0.000 HD
ENDBRANCH 48 51
ENDBRANCH 35 48
ENDBRANCH 34 38
ENDBRANCH 15 34
ENDBRANCH 14 17
ENDBRANCH 1 14
TORSDOF 12
ENDMDL
MODEL 75
REMARK VINA RESULT:      -0.8     49.997     53.920
ROOT
ATOM      1  C1  GAD B   1      39.966 107.277  33.6010  0.00  0.00     0.000 C
ATOM      2  C2  GAD B   1      39.572 108.714  33.9570  0.00  0.00     0.000 C
ATOM      3  C3  GAD B   1      40.618 109.329  34.8960  0.00  0.00     0.000 C
ATOM      4  C4  GAD B   1      41.291 108.328  35.8390  0.00  0.00     0.000 C
ATOM      5  C5  GAD B   1      41.123 106.992  35.7730  0.00  0.00     0.000 C
ATOM      6  O5  GAD B   1      40.213 106.491  34.7760  0.00  0.00     0.000 O
ATOM      7   O  GAD B   1      39.343 109.525  32.7460  0.00  0.00     0.000 O
ATOM      9  HD  GAD B   1      39.326 108.735  32.3910  0.00  0.00     0.000 HD
ATOM      9   O  GAD B   1      40.039 110.348  35.7400  0.00  0.00     0.000 O
ATOM     11  HD  GAD B   1      40.022 109.559  35.3850  0.00  0.00     0.000 HD
ENDROOT
BRANCH 5 11
ATOM     11   C  GAD B   1      41.850 106.009  36.6100  0.00  0.00     0.000 C
ATOM     12   O  GAD B   1      43.104 106.172  36.7310  0.00  0.00     0.000 OA
ATOM     13   O  GAD B   1      41.228 105.001  37.1110  0.00  0.00     0.000 OA
ENDBRANCH 5 11
BRANCH 1 14
ATOM     14  O3  ASG B   2      39.097 106.348  33.1590  0.00  0.00     0.000 O
BRANCH 14 17
ATOM     15  C1  ASG B   2      37.253 103.284  34.3800  0.00  0.00     0.000 C
ATOM     16  C2  ASG B   2      38.296 104.074  33.5760  0.00  0.00     0.000 C
ATOM     17  C3  ASG B   2      38.141 105.566  33.8840  0.00  0.00     0.000 C
ATOM     18  C4  ASG B   2      36.738 106.024  33.5340  0.00  0.00     0.000 C
ATOM     19  C5  ASG B   2      35.730 105.135  34.2550  0.00  0.00     0.000 C
ATOM     20  O5  ASG B   2      35.987 103.750  33.9510  0.00  0.00     0.000 O
ATOM     21   C  ASG B   2      34.319 105.406  33.8410  0.00  0.00     0.000 C
ATOM     22   O  ASG B   2      33.477 104.416  34.3790  0.00  0.00     0.000 O
ATOM     24  HD  ASG B   2      32.847 103.883  34.6430  0.00  0.00     0.000 HD
BRANCH 16 26
ATOM     24   N  ASG B   2      39.297 103.898  32.5490  0.00  0.00     0.000 N
ATOM     26  HD  ASG B   2      38.845 104.633  32.6340  0.00  0.00     0.000 HD
ATOM     26   C  ASG B   2      40.594 103.641  32.7980  0.00  0.00     0.000 C
ATOM     27   C  ASG B   2      41.399 103.156  31.6410  0.00  0.00     0.000 C
ATOM     28   O  ASG B   2      41.080 103.797  33.9110  0.00  0.00     0.000 OA
ENDBRANCH 16 26
BRANCH 18 29
ATOM     29   O  ASG B   2      36.626 105.944  32.0720  0.00  0.00     0.000 O
ATOM     30   O  ASG B   2      35.119 107.877  31.8800  0.00  0.00     0.000 OA
ATOM     31   O  ASG B   2      37.443 108.080  31.2060  0.00  0.00     0.000 OA
ATOM     32   O  ASG B   2      35.918 106.733  29.9010  0.00  0.00     0.000 OA
ATOM     33   S  ASG B   2      36.256 107.258  31.2240  0.00  0.00     0.000 S
ENDBRANCH 18 29
BRANCH 15 34
ATOM     34  O4  ASG B   3      37.314 101.902  34.1730  0.00  0.00     0.000 O
BRANCH 34 38
ATOM     35  C1  GCT B   3      40.659 101.186  36.3320  0.00  0.00     0.000 C
ATOM     36  C2  GCT B   3      40.381 100.149  35.2660  0.00  0.00     0.000 C
ATOM     37  C3  GCT B   3      39.400 100.684  34.2330  0.00  0.00     0.000 C
ATOM     38  C4  GCT B   3      38.087 101.059  34.9310  0.00  0.00     0.000 C
ATOM     39  C5  GCT B   3      38.324 101.598  36.3600  0.00  0.00     0.000 C
ATOM     40  O5  GCT B   3      39.623 102.162  36.3690  0.00  0.00     0.000 O
ATOM     41   O  GCT B   3      41.629  99.855  34.6540  0.00  0.00     0.000 O
ATOM     43  HD  GCT B   3      42.303  99.376  34.9110  0.00  0.00     0.000 HD
ATOM     43   O  GCT B   3      39.224  99.686  33.2050  0.00  0.00     0.000 O
ATOM     45  HD  GCT B   3      39.898  99.207  33.4620  0.00  0.00     0.000 HD
BRANCH 39 45
ATOM     45   C  GCT B   3      38.185 100.640  37.5230  0.00  0.00     0.000 C
ATOM     46   O  GCT B   3      38.330 101.070  38.7100  0.00  0.00     0.000 OA
ATOM     47   O  GCT B   3      37.917  99.455  37.2660  0.00  0.00     0.000 OA
ENDBRANCH 39 45
BRANCH 35 48
ATOM     48  O3  ASG B   4      41.289 100.618  37.3380  0.00  0.00     0.000 O
BRANCH 48 51
ATOM     49  C1  ASG B   4      43.939 102.830  38.6700  0.00  0.00     0.000 C
ATOM     50  C2  ASG B   4      43.167 101.923  37.6970  0.00  0.00     0.000 C
ATOM     51  C3  ASG B   4      41.763 101.626  38.2140  0.00  0.00     0.000 C
ATOM     52  C4  ASG B   4      41.798 101.146  39.6560  0.00  0.00     0.000 C
ATOM     53  C5  ASG B   4      42.557 102.180  40.4820  0.00  0.00     0.000 C
ATOM     54  O5  ASG B   4      43.903 102.289  39.9800  0.00  0.00     0.000 O
BRANCH 50 57
ATOM     55   N  ASG B   4      43.539 102.912  36.7110  0.00  0.00     0.000 N
ATOM     57  HD  ASG B   4      44.327 102.603  36.5290  0.00  0.00     0.000 HD
ATOM     57   O  ASG B   4      44.952 101.568  35.6120  0.00  0.00     0.000 OA
ATOM     58   C  ASG B   4      44.331 102.624  35.6740  0.00  0.00     0.000 C
ATOM     59   C  ASG B   4      44.446 103.693  34.6310  0.00  0.00     0.000 C
ENDBRANCH 50 57
BRANCH 52 60
ATOM     60   O  ASG B   4      42.461  99.820  39.5650  0.00  0.00     0.000 O
ATOM     61   O  ASG B   4      40.333  98.582  39.9800  0.00  0.00     0.000 OA
ATOM     62   O  ASG B   4      42.319  97.380  39.4500  0.00  0.00     0.000 OA
ATOM     63   O  ASG B   4      42.214  98.613  41.4960  0.00  0.00     0.000 OA
ATOM     64   S  ASG B   4      41.749  98.491  40.1110  0.00  0.00     0.000 S
ENDBRANCH 52 60
ATOM     65   O  ASG B   4      43.043 103.023  42.7040  0.00  0.00     0.000 O
ATOM     67  HD  ASG B   4      43.887 103.052  42.5110  0.00  0.00     0.000 HD
ATOM     67   O  ASG B   4      43.043 103.023  42.7040  0.00  0.00     0.000 O
ATOM     69  HD  ASG B   4      43.887 103.052  42.5110  0.00  0.00     0.000 HD
ENDBRANCH 48 51
ENDBRANCH 35 48
ENDBRANCH 34 38
ENDBRANCH 15 34
ENDBRANCH 14 17
ENDBRANCH 1 14
TORSDOF 12
ENDMDL
MODEL 76
REMARK VINA RESULT:      -0.8     89.285     94.404
ROOT
ATOM      1  C1  GAD B   1      89.139  31.928  23.2210  0.00  0.00     0.000 C
ATOM      2  C2  GAD B   1      88.010  32.461  22.3350  0.00  0.00     0.000 C
ATOM      3  C3  GAD B   1      87.838  31.563  21.1040  0.00  0.00     0.000 C
ATOM      4  C4  GAD B   1      89.132  30.914  20.6060  0.00  0.00     0.000 C
ATOM      5  C5  GAD B   1      90.311  30.974  21.2570  0.00  0.00     0.000 C
ATOM      6  O5  GAD B   1      90.351  31.741  22.4750  0.00  0.00     0.000 O
ATOM      7   O  GAD B   1      86.759  32.629  23.1000  0.00  0.00     0.000 O
ATOM      9  HD  GAD B   1      87.317  32.551  23.7580  0.00  0.00     0.000 HD
ATOM      9   O  GAD B   1      87.300  32.297  19.9820  0.00  0.00     0.000 O
ATOM     11  HD  GAD B   1      87.857  32.220  20.6400  0.00  0.00     0.000 HD
ENDROOT
BRANCH 5 11
ATOM     11   C  GAD B   1      91.541  30.263  20.8390  0.00  0.00     0.000 C
ATOM     12   O  GAD B   1      91.416  29.043  20.5080  0.00  0.00     0.000 OA
ATOM     13   O  GAD B   1      92.681  30.855  20.8980  0.00  0.00     0.000 OA
ENDBRANCH 5 11
BRANCH 1 14
ATOM     14  O3  ASG B   2      89.806  32.676  24.1210  0.00  0.00     0.000 O
BRANCH 14 17
ATOM     15  C1  ASG B   2      93.141  34.396  24.5640  0.00  0.00     0.000 C
ATOM     16  C2  ASG B   2      92.055  33.341  24.8180  0.00  0.00     0.000 C
ATOM     17  C3  ASG B   2      90.848  33.638  23.9230  0.00  0.00     0.000 C
ATOM     18  C4  ASG B   2      90.319  35.030  24.2110  0.00  0.00     0.000 C
ATOM     19  C5  ASG B   2      91.457  36.035  24.0700  0.00  0.00     0.000 C
ATOM     20  O5  ASG B   2      92.566  35.645  24.9030  0.00  0.00     0.000 O
ATOM     21   C  ASG B   2      91.069  37.414  24.4970  0.00  0.00     0.000 C
ATOM     22   O  ASG B   2      92.214  38.229  24.5410  0.00  0.00     0.000 O
ATOM     24  HD  ASG B   2      92.825  38.839  24.6100  0.00  0.00     0.000 HD
BRANCH 16 26
ATOM     24   N  ASG B   2      91.742  32.233  25.6900  0.00  0.00     0.000 N
ATOM     26  HD  ASG B   2      91.129  32.744  25.3550  0.00  0.00     0.000 HD
ATOM     26   C  ASG B   2      92.050  30.951  25.4190  0.00  0.00     0.000 C
ATOM     27   C  ASG B   2      91.965  30.001  26.5640  0.00  0.00     0.000 C
ATOM     28   O  ASG B   2      92.381  30.592  24.2960  0.00  0.00     0.000 OA
ENDBRANCH 16 26
BRANCH 18 29
ATOM     29   O  ASG B   2      89.759  34.990  25.5690  0.00  0.00     0.000 O
ATOM     30   O  ASG B   2      87.969  36.607  25.0970  0.00  0.00     0.000 OA
ATOM     31   O  ASG B   2      87.441  34.249  25.3310  0.00  0.00     0.000 OA
ATOM     32   O  ASG B   2      88.123  35.534  27.2620  0.00  0.00     0.000 OA
ATOM     33   S  ASG B   2      88.216  35.369  25.8110  0.00  0.00     0.000 S
ENDBRANCH 18 29
BRANCH 15 34
ATOM     34  O4  ASG B   3      94.295  34.212  25.3330  0.00  0.00     0.000 O
BRANCH 34 38
ATOM     35  C1  GCT B   3      95.793  31.056  23.2930  0.00  0.00     0.000 C
ATOM     36  C2  GCT B   3      96.270  31.146  24.7270  0.00  0.00     0.000 C
ATOM     37  C3  GCT B   3      95.364  32.056  25.5430  0.00  0.00     0.000 C
ATOM     38  C4  GCT B   3      95.363  33.457  24.9200  0.00  0.00     0.000 C
ATOM     39  C5  GCT B   3      95.493  33.407  23.3810  0.00  0.00     0.000 C
ATOM     40  O5  GCT B   3      94.957  32.162  22.9700  0.00  0.00     0.000 O
ATOM     41   O  GCT B   3      96.238  29.824  25.2460  0.00  0.00     0.000 O
ATOM     43  HD  GCT B   3      96.764  29.144  25.1370  0.00  0.00     0.000 HD
ATOM     43   O  GCT B   3      95.821  32.051  26.9120  0.00  0.00     0.000 O
ATOM     45  HD  GCT B   3      96.347  31.371  26.8040  0.00  0.00     0.000 HD
BRANCH 39 45
ATOM     45   C  GCT B   3      96.864  33.588  22.7680  0.00  0.00     0.000 C
ATOM     46   O  GCT B   3      96.991  33.591  21.5030  0.00  0.00     0.000 OA
ATOM     47   O  GCT B   3      97.826  33.744  23.5390  0.00  0.00     0.000 OA
ENDBRANCH 39 45
BRANCH 35 48
ATOM     48  O3  ASG B   4      96.726  30.489  22.5590  0.00  0.00     0.000 O
BRANCH 48 51
ATOM     49  C1  ASG B   4      95.253  28.160  20.0900  0.00  0.00     0.000 C
ATOM     50  C2  ASG B   4      95.665  28.758  21.4450  0.00  0.00     0.000 C
ATOM     51  C3  ASG B   4      96.187  30.183  21.2840  0.00  0.00     0.000 C
ATOM     52  C4  ASG B   4      97.243  30.262  20.1940  0.00  0.00     0.000 C
ATOM     53  C5  ASG B   4      96.653  29.670  18.9180  0.00  0.00     0.000 C
ATOM     54  O5  ASG B   4      96.309  28.290  19.1530  0.00  0.00     0.000 O
BRANCH 50 57
ATOM     55   N  ASG B   4      94.339  28.365  21.8640  0.00  0.00     0.000 N
ATOM     57  HD  ASG B   4      94.520  27.541  22.0600  0.00  0.00     0.000 HD
ATOM     57   O  ASG B   4      95.044  26.746  23.2420  0.00  0.00     0.000 OA
ATOM     58   C  ASG B   4      94.133  27.451  22.8170  0.00  0.00     0.000 C
ATOM     59   C  ASG B   4      92.718  27.313  23.2870  0.00  0.00     0.000 C
ENDBRANCH 50 57
BRANCH 52 60
ATOM     60   O  ASG B   4      98.385  29.498  20.7600  0.00  0.00     0.000 O
ATOM     61   O  ASG B   4      99.725  31.561  21.1810  0.00  0.00     0.000 OA
ATOM     62   O  ASG B   4     100.536  29.449  21.9230  0.00  0.00     0.000 OA
ATOM     63   O  ASG B   4     100.313  29.853  19.5760  0.00  0.00     0.000 OA
ATOM     64   S  ASG B   4      99.834  30.163  20.9260  0.00  0.00     0.000 S
ENDBRANCH 52 60
ATOM     65   O  ASG B   4      96.845  29.479  16.5080  0.00  0.00     0.000 O
ATOM     67  HD  ASG B   4      96.718  28.624  16.5620  0.00  0.00     0.000 HD
ATOM     67   O  ASG B   4      96.845  29.479  16.5080  0.00  0.00     0.000 O
ATOM     69  HD  ASG B   4      96.718  28.624  16.5620  0.00  0.00     0.000 HD
ENDBRANCH 48 51
ENDBRANCH 35 48
ENDBRANCH 34 38
ENDBRANCH 15 34
ENDBRANCH 14 17
ENDBRANCH 1 14
TORSDOF 12
ENDMDL
MODEL 77
REMARK VINA RESULT:      -0.8     96.168     99.268
ROOT
ATOM      1  C1  GAD B   1      95.795  89.247  22.0260  0.00  0.00     0.000 C
ATOM      2  C2  GAD B   1      94.770  90.146  21.3290  0.00  0.00     0.000 C
ATOM      3  C3  GAD B   1      94.739  89.844  19.8260  0.00  0.00     0.000 C
ATOM      4  C4  GAD B   1      96.083  89.404  19.2390  0.00  0.00     0.000 C
ATOM      5  C5  GAD B   1      97.182  89.139  19.9740  0.00  0.00     0.000 C
ATOM      6  O5  GAD B   1      97.083  89.332  21.3980  0.00  0.00     0.000 O
ATOM      7   O  GAD B   1      93.441  90.037  21.9610  0.00  0.00     0.000 O
ATOM      9  HD  GAD B   1      93.921  89.671  22.5810  0.00  0.00     0.000 HD
ATOM      9   O  GAD B   1      94.328  90.999  19.0600  0.00  0.00     0.000 O
ATOM     11  HD  GAD B   1      94.808  90.633  19.6810  0.00  0.00     0.000 HD
ENDROOT
BRANCH 5 11
ATOM     11   C  GAD B   1      98.454  88.611  19.4290  0.00  0.00     0.000 C
ATOM     12   O  GAD B   1      98.900  87.539  19.9440  0.00  0.00     0.000 OA
ATOM     13   O  GAD B   1      99.097  89.272  18.5320  0.00  0.00     0.000 OA
ENDBRANCH 5 11
BRANCH 1 14
ATOM     14  O3  ASG B   2      96.354  89.527  23.2180  0.00  0.00     0.000 O
BRANCH 14 17
ATOM     15  C1  ASG B   2      98.501  91.976  25.1340  0.00  0.00     0.000 C
ATOM     16  C2  ASG B   2      98.067  90.607  24.5910  0.00  0.00     0.000 C
ATOM     17  C3  ASG B   2      96.798  90.780  23.7510  0.00  0.00     0.000 C
ATOM     18  C4  ASG B   2      95.698  91.394  24.5950  0.00  0.00     0.000 C
ATOM     19  C5  ASG B   2      96.210  92.689  25.2170  0.00  0.00     0.000 C
ATOM     20  O5  ASG B   2      97.433  92.440  25.9390  0.00  0.00     0.000 O
ATOM     21   C  ASG B   2      95.250  93.280  26.1990  0.00  0.00     0.000 C
ATOM     22   O  ASG B   2      95.873  94.340  26.8810  0.00  0.00     0.000 O
ATOM     24  HD  ASG B   2      96.125  95.007  27.3720  0.00  0.00     0.000 HD
BRANCH 16 26
ATOM     24   N  ASG B   2      98.391  89.203  24.7000  0.00  0.00     0.000 N
ATOM     26  HD  ASG B   2      97.582  89.482  24.5630  0.00  0.00     0.000 HD
ATOM     26   C  ASG B   2      99.240  88.561  23.8770  0.00  0.00     0.000 C
ATOM     27   C  ASG B   2      99.714  87.225  24.3370  0.00  0.00     0.000 C
ATOM     28   O  ASG B   2      99.600  89.050  22.8130  0.00  0.00     0.000 OA
ENDBRANCH 16 26
BRANCH 18 29
ATOM     29   O  ASG B   2      95.330  90.386  25.5990  0.00  0.00     0.000 O
ATOM     30   O  ASG B   2      92.969  91.059  25.7060  0.00  0.00     0.000 OA
ATOM     31   O  ASG B   2      93.592  89.004  24.5740  0.00  0.00     0.000 OA
ATOM     32   O  ASG B   2      93.771  89.162  26.9800  0.00  0.00     0.000 OA
ATOM     33   S  ASG B   2      93.810  89.877  25.7040  0.00  0.00     0.000 S
ENDBRANCH 18 29
BRANCH 15 34
ATOM     34  O4  ASG B   3      99.661  91.929  25.9150  0.00  0.00     0.000 O
BRANCH 34 38
ATOM     35  C1  GCT B   3     102.313  91.239  22.9400  0.00  0.00     0.000 C
ATOM     36  C2  GCT B   3     102.795  90.805  24.3070  0.00  0.00     0.000 C
ATOM     37  C3  GCT B   3     101.629  90.682  25.2780  0.00  0.00     0.000 C
ATOM     38  C4  GCT B   3     100.925  92.040  25.3960  0.00  0.00     0.000 C
ATOM     39  C5  GCT B   3     100.951  92.823  24.0640  0.00  0.00     0.000 C
ATOM     40  O5  GCT B   3     101.034  91.859  23.0290  0.00  0.00     0.000 O
ATOM     41   O  GCT B   3     103.425  89.545  24.1310  0.00  0.00     0.000 O
ATOM     43  HD  GCT B   3     104.199  89.321  23.8130  0.00  0.00     0.000 HD
ATOM     43   O  GCT B   3     102.133  90.201  26.5420  0.00  0.00     0.000 O
ATOM     45  HD  GCT B   3     102.907  89.977  26.2240  0.00  0.00     0.000 HD
BRANCH 39 45
ATOM     45   C  GCT B   3     102.028  93.867  23.8630  0.00  0.00     0.000 C
ATOM     46   O  GCT B   3     102.073  94.521  22.7740  0.00  0.00     0.000 OA
ATOM     47   O  GCT B   3     102.830  94.055  24.7920  0.00  0.00     0.000 OA
ENDBRANCH 39 45
BRANCH 35 48
ATOM     48  O3  ASG B   4     103.347  91.590  22.2050  0.00  0.00     0.000 O
BRANCH 48 51
ATOM     49  C1  ASG B   4     104.899  90.448  19.0470  0.00  0.00     0.000 C
ATOM     50  C2  ASG B   4     104.736  91.146  20.4080  0.00  0.00     0.000 C
ATOM     51  C3  ASG B   4     103.454  90.702  21.1060  0.00  0.00     0.000 C
ATOM     52  C4  ASG B   4     102.256  90.809  20.1780  0.00  0.00     0.000 C
ATOM     53  C5  ASG B   4     102.571  90.028  18.9050  0.00  0.00     0.000 C
ATOM     54  O5  ASG B   4     103.725  90.610  18.2680  0.00  0.00     0.000 O
BRANCH 50 57
ATOM     55   N  ASG B   4     105.679  91.134  21.5030  0.00  0.00     0.000 N
ATOM     57  HD  ASG B   4     106.377  91.385  21.0560  0.00  0.00     0.000 HD
ATOM     57   O  ASG B   4     107.031  92.680  20.6110  0.00  0.00     0.000 OA
ATOM     58   C  ASG B   4     106.707  91.985  21.5690  0.00  0.00     0.000 C
ATOM     59   C  ASG B   4     107.461  91.990  22.8630  0.00  0.00     0.000 C
ENDBRANCH 50 57
BRANCH 52 60
ATOM     60   O  ASG B   4     102.098  92.273  19.9810  0.00  0.00     0.000 O
ATOM     61   O  ASG B   4      99.606  92.143  20.0490  0.00  0.00     0.000 OA
ATOM     62   O  ASG B   4     100.680  94.265  19.9330  0.00  0.00     0.000 OA
ATOM     63   O  ASG B   4     100.890  92.750  18.0950  0.00  0.00     0.000 OA
ATOM     64   S  ASG B   4     100.694  92.908  19.5390  0.00  0.00     0.000 S
ENDBRANCH 52 60
ATOM     65   O  ASG B   4     101.676  88.982  16.9080  0.00  0.00     0.000 O
ATOM     67  HD  ASG B   4     102.297  89.353  16.4320  0.00  0.00     0.000 HD
ATOM     67   O  ASG B   4     101.676  88.982  16.9080  0.00  0.00     0.000 O
ATOM     69  HD  ASG B   4     102.297  89.353  16.4320  0.00  0.00     0.000 HD
ENDBRANCH 48 51
ENDBRANCH 35 48
ENDBRANCH 34 38
ENDBRANCH 15 34
ENDBRANCH 14 17
ENDBRANCH 1 14
TORSDOF 12
ENDMDL
MODEL 78
REMARK VINA RESULT:      -0.8     75.536     79.045
ROOT
ATOM      1  C1  GAD B   1      71.031  99.015  23.3470  0.00  0.00     0.000 C
ATOM      2  C2  GAD B   1      70.405  97.696  23.8090  0.00  0.00     0.000 C
ATOM      3  C3  GAD B   1      68.966  97.934  24.2840  0.00  0.00     0.000 C
ATOM      4  C4  GAD B   1      68.727  99.306  24.9200  0.00  0.00     0.000 C
ATOM      5  C5  GAD B   1      69.633 100.304  24.9350  0.00  0.00     0.000 C
ATOM      6  O5  GAD B   1      70.922 100.032  24.3540  0.00  0.00     0.000 O
ATOM      7   O  GAD B   1      70.497  96.660  22.7620  0.00  0.00     0.000 O
ATOM      9  HD  GAD B   1      71.069  97.229  22.4470  0.00  0.00     0.000 HD
ATOM      9   O  GAD B   1      68.566  96.959  25.2730  0.00  0.00     0.000 O
ATOM     11  HD  GAD B   1      69.137  97.528  24.9580  0.00  0.00     0.000 HD
ENDROOT
BRANCH 5 11
ATOM     11   C  GAD B   1      69.375 101.669  25.4520  0.00  0.00     0.000 C
ATOM     12   O  GAD B   1      68.262 102.199  25.1450  0.00  0.00     0.000 OA
ATOM     13   O  GAD B   1      70.287 102.294  26.1090  0.00  0.00     0.000 OA
ENDBRANCH 5 11
BRANCH 1 14
ATOM     14  O3  ASG B   2      72.358  99.230  23.2690  0.00  0.00     0.000 O
BRANCH 14 17
ATOM     15  C1  ASG B   2      75.091 101.112  25.0770  0.00  0.00     0.000 C
ATOM     16  C2  ASG B   2      74.106 100.806  23.9400  0.00  0.00     0.000 C
ATOM     17  C3  ASG B   2      73.297  99.556  24.3010  0.00  0.00     0.000 C
ATOM     18  C4  ASG B   2      74.230  98.383  24.5300  0.00  0.00     0.000 C
ATOM     19  C5  ASG B   2      75.270  98.770  25.5760  0.00  0.00     0.000 C
ATOM     20  O5  ASG B   2      75.940  99.983  25.1800  0.00  0.00     0.000 O
ATOM     21   C  ASG B   2      76.334  97.733  25.7470  0.00  0.00     0.000 C
ATOM     22   O  ASG B   2      77.360  98.248  26.5590  0.00  0.00     0.000 O
ATOM     24  HD  ASG B   2      78.056  98.430  27.0410  0.00  0.00     0.000 HD
BRANCH 16 26
ATOM     24   N  ASG B   2      73.758 101.225  22.6020  0.00  0.00     0.000 N
ATOM     26  HD  ASG B   2      73.666 100.407  22.8690  0.00  0.00     0.000 HD
ATOM     26   C  ASG B   2      72.830 102.160  22.3240  0.00  0.00     0.000 C
ATOM     27   C  ASG B   2      72.846 102.706  20.9380  0.00  0.00     0.000 C
ATOM     28   O  ASG B   2      72.022 102.536  23.1640  0.00  0.00     0.000 OA
ENDBRANCH 16 26
BRANCH 18 29
ATOM     29   O  ASG B   2      74.825  98.062  23.2250  0.00  0.00     0.000 O
ATOM     30   O  ASG B   2      74.969  95.647  23.6580  0.00  0.00     0.000 OA
ATOM     31   O  ASG B   2      73.285  96.507  22.1350  0.00  0.00     0.000 OA
ATOM     32   O  ASG B   2      75.620  96.558  21.5100  0.00  0.00     0.000 OA
ATOM     33   S  ASG B   2      74.649  96.591  22.6040  0.00  0.00     0.000 S
ENDBRANCH 18 29
BRANCH 15 34
ATOM     34  O4  ASG B   3      75.880 102.244  24.8480  0.00  0.00     0.000 O
BRANCH 34 38
ATOM     35  C1  GCT B   3      73.037 105.034  25.5560  0.00  0.00     0.000 C
ATOM     36  C2  GCT B   3      74.167 105.516  24.6720  0.00  0.00     0.000 C
ATOM     37  C3  GCT B   3      74.944 104.341  24.0970  0.00  0.00     0.000 C
ATOM     38  C4  GCT B   3      75.521 103.507  25.2470  0.00  0.00     0.000 C
ATOM     39  C5  GCT B   3      74.588 103.494  26.4790  0.00  0.00     0.000 C
ATOM     40  O5  GCT B   3      73.273 103.700  25.9930  0.00  0.00     0.000 O
ATOM     41   O  GCT B   3      73.568 106.270  23.6280  0.00  0.00     0.000 O
ATOM     43  HD  GCT B   3      73.238 107.070  23.6040  0.00  0.00     0.000 HD
ATOM     43   O  GCT B   3      75.962 104.853  23.2100  0.00  0.00     0.000 O
ATOM     45  HD  GCT B   3      75.632 105.653  23.1870  0.00  0.00     0.000 HD
BRANCH 39 45
ATOM     45   C  GCT B   3      74.864 104.471  27.6010  0.00  0.00     0.000 C
ATOM     46   O  GCT B   3      74.153 104.434  28.6540  0.00  0.00     0.000 OA
ATOM     47   O  GCT B   3      75.800 105.274  27.4510  0.00  0.00     0.000 OA
ENDBRANCH 39 45
BRANCH 35 48
ATOM     48  O3  ASG B   4      72.556 106.050  26.2400  0.00  0.00     0.000 O
BRANCH 48 51
ATOM     49  C1  ASG B   4      68.876 105.830  26.5490  0.00  0.00     0.000 C
ATOM     50  C2  ASG B   4      70.266 105.985  25.9090  0.00  0.00     0.000 C
ATOM     51  C3  ASG B   4      71.372 105.640  26.9020  0.00  0.00     0.000 C
ATOM     52  C4  ASG B   4      71.180 106.377  28.2180  0.00  0.00     0.000 C
ATOM     53  C5  ASG B   4      69.773 106.078  28.7280  0.00  0.00     0.000 C
ATOM     54  O5  ASG B   4      68.811 106.555  27.7670  0.00  0.00     0.000 O
BRANCH 50 57
ATOM     55   N  ASG B   4      69.726 105.127  24.8790  0.00  0.00     0.000 N
ATOM     57  HD  ASG B   4      69.335 105.742  24.4110  0.00  0.00     0.000 HD
ATOM     57   O  ASG B   4      69.687 106.719  23.3040  0.00  0.00     0.000 OA
ATOM     58   C  ASG B   4      69.575 105.537  23.6160  0.00  0.00     0.000 C
ATOM     59   C  ASG B   4      69.209 104.473  22.6280  0.00  0.00     0.000 C
ENDBRANCH 50 57
BRANCH 52 60
ATOM     60   O  ASG B   4      71.418 107.799  27.8580  0.00  0.00     0.000 O
ATOM     61   O  ASG B   4      73.632 107.854  29.0090  0.00  0.00     0.000 OA
ATOM     62   O  ASG B   4      72.902 109.740  27.7510  0.00  0.00     0.000 OA
ATOM     63   O  ASG B   4      71.693 109.110  29.7150  0.00  0.00     0.000 OA
ATOM     64   S  ASG B   4      72.538 108.671  28.6010  0.00  0.00     0.000 S
ENDBRANCH 52 60
ATOM     65   O  ASG B   4      68.270 106.110  30.6310  0.00  0.00     0.000 O
ATOM     67  HD  ASG B   4      67.652 106.468  30.1410  0.00  0.00     0.000 HD
ATOM     67   O  ASG B   4      68.270 106.110  30.6310  0.00  0.00     0.000 O
ATOM     69  HD  ASG B   4      67.652 106.468  30.1410  0.00  0.00     0.000 HD
ENDBRANCH 48 51
ENDBRANCH 35 48
ENDBRANCH 34 38
ENDBRANCH 15 34
ENDBRANCH 14 17
ENDBRANCH 1 14
TORSDOF 12
ENDMDL
MODEL 79
REMARK VINA RESULT:      -0.8     80.813     84.443
ROOT
ATOM      1  C1  GAD B   1      83.486  53.736  83.7040  0.00  0.00     0.000 C
ATOM      2  C2  GAD B   1      84.991  53.784  83.9840  0.00  0.00     0.000 C
ATOM      3  C3  GAD B   1      85.757  54.113  82.6970  0.00  0.00     0.000 C
ATOM      4  C4  GAD B   1      85.105  53.583  81.4170  0.00  0.00     0.000 C
ATOM      5  C5  GAD B   1      83.885  53.011  81.3680  0.00  0.00     0.000 C
ATOM      6  O5  GAD B   1      83.181  52.852  82.6140  0.00  0.00     0.000 O
ATOM      7   O  GAD B   1      85.303  54.712  85.0880  0.00  0.00     0.000 O
ATOM      9  HD  GAD B   1      84.450  54.631  85.2100  0.00  0.00     0.000 HD
ATOM      9   O  GAD B   1      87.095  53.568  82.7200  0.00  0.00     0.000 O
ATOM     11  HD  GAD B   1      86.241  53.487  82.8420  0.00  0.00     0.000 HD
ENDROOT
BRANCH 5 11
ATOM     11   C  GAD B   1      83.201  52.591  80.1220  0.00  0.00     0.000 C
ATOM     12   O  GAD B   1      82.038  53.061  79.9190  0.00  0.00     0.000 OA
ATOM     13   O  GAD B   1      83.748  51.726  79.3440  0.00  0.00     0.000 OA
ENDBRANCH 5 11
BRANCH 1 14
ATOM     14  O3  ASG B   2      82.597  53.089  84.4810  0.00  0.00     0.000 O
BRANCH 14 17
ATOM     15  C1  ASG B   2      81.564  49.728  85.8650  0.00  0.00     0.000 C
ATOM     16  C2  ASG B   2      81.385  51.066  85.1340  0.00  0.00     0.000 C
ATOM     17  C3  ASG B   2      82.712  51.830  85.1550  0.00  0.00     0.000 C
ATOM     18  C4  ASG B   2      83.157  52.058  86.5870  0.00  0.00     0.000 C
ATOM     19  C5  ASG B   2      83.202  50.717  87.3140  0.00  0.00     0.000 C
ATOM     20  O5  ASG B   2      81.931  50.048  87.1940  0.00  0.00     0.000 O
ATOM     21   C  ASG B   2      83.470  50.861  88.7780  0.00  0.00     0.000 C
ATOM     22   O  ASG B   2      83.286  49.618  89.4090  0.00  0.00     0.000 O
ATOM     24  HD  ASG B   2      83.212  48.926  89.9240  0.00  0.00     0.000 HD
BRANCH 16 26
ATOM     24   N  ASG B   2      80.366  51.896  84.5330  0.00  0.00     0.000 N
ATOM     26  HD  ASG B   2      81.066  52.230  84.9190  0.00  0.00     0.000 HD
ATOM     26   C  ASG B   2      80.028  51.849  83.2320  0.00  0.00     0.000 C
ATOM     27   C  ASG B   2      78.746  52.513  82.8630  0.00  0.00     0.000 C
ATOM     28   O  ASG B   2      80.736  51.292  82.4020  0.00  0.00     0.000 OA
ENDBRANCH 16 26
BRANCH 18 29
ATOM     29   O  ASG B   2      82.192  52.995  87.1790  0.00  0.00     0.000 O
ATOM     30   O  ASG B   2      83.835  54.062  88.6640  0.00  0.00     0.000 OA
ATOM     31   O  ASG B   2      83.036  55.239  86.6970  0.00  0.00     0.000 OA
ATOM     32   O  ASG B   2      81.552  54.865  88.5680  0.00  0.00     0.000 OA
ATOM     33   S  ASG B   2      82.706  54.381  87.8100  0.00  0.00     0.000 S
ENDBRANCH 18 29
BRANCH 15 34
ATOM     34  O4  ASG B   3      80.404  48.946  85.8980  0.00  0.00     0.000 O
BRANCH 34 38
ATOM     35  C1  GCT B   3      80.346  47.857  82.0030  0.00  0.00     0.000 C
ATOM     36  C2  GCT B   3      78.997  47.778  82.6840  0.00  0.00     0.000 C
ATOM     37  C3  GCT B   3      78.992  48.593  83.9700  0.00  0.00     0.000 C
ATOM     38  C4  GCT B   3      80.070  48.049  84.9150  0.00  0.00     0.000 C
ATOM     39  C5  GCT B   3      81.306  47.527  84.1470  0.00  0.00     0.000 C
ATOM     40  O5  GCT B   3      81.356  48.246  82.9270  0.00  0.00     0.000 O
ATOM     41   O  GCT B   3      78.050  48.303  81.7650  0.00  0.00     0.000 O
ATOM     43  HD  GCT B   3      77.685  47.970  81.0540  0.00  0.00     0.000 HD
ATOM     43   O  GCT B   3      77.668  48.541  84.5410  0.00  0.00     0.000 O
ATOM     45  HD  GCT B   3      77.302  48.208  83.8300  0.00  0.00     0.000 HD
BRANCH 39 45
ATOM     45   C  GCT B   3      81.400  46.045  83.8580  0.00  0.00     0.000 C
ATOM     46   O  GCT B   3      82.404  45.592  83.2230  0.00  0.00     0.000 OA
ATOM     47   O  GCT B   3      80.484  45.316  84.2730  0.00  0.00     0.000 OA
ENDBRANCH 39 45
BRANCH 35 48
ATOM     48  O3  ASG B   4      80.408  46.948  81.0530  0.00  0.00     0.000 O
BRANCH 48 51
ATOM     49  C1  ASG B   4      80.828  46.940  77.3770  0.00  0.00     0.000 C
ATOM     50  C2  ASG B   4      80.476  46.452  78.7930  0.00  0.00     0.000 C
ATOM     51  C3  ASG B   4      80.524  47.598  79.7990  0.00  0.00     0.000 C
ATOM     52  C4  ASG B   4      81.825  48.375  79.6870  0.00  0.00     0.000 C
ATOM     53  C5  ASG B   4      81.991  48.817  78.2360  0.00  0.00     0.000 C
ATOM     54  O5  ASG B   4      82.054  47.651  77.3920  0.00  0.00     0.000 O
BRANCH 50 57
ATOM     55   N  ASG B   4      79.262  45.770  79.1790  0.00  0.00     0.000 N
ATOM     57  HD  ASG B   4      79.290  45.141  78.5850  0.00  0.00     0.000 HD
ATOM     57   O  ASG B   4      79.915  43.768  78.4170  0.00  0.00     0.000 OA
ATOM     58   C  ASG B   4      79.116  44.448  79.0540  0.00  0.00     0.000 C
ATOM     59   C  ASG B   4      77.893  43.868  79.6950  0.00  0.00     0.000 C
ENDBRANCH 50 57
BRANCH 52 60
ATOM     60   O  ASG B   4      82.849  47.408  80.1600  0.00  0.00     0.000 O
ATOM     61   O  ASG B   4      84.136  49.167  81.3760  0.00  0.00     0.000 OA
ATOM     62   O  ASG B   4      84.785  46.884  81.5600  0.00  0.00     0.000 OA
ATOM     63   O  ASG B   4      84.948  47.975  79.4380  0.00  0.00     0.000 OA
ATOM     64   S  ASG B   4      84.262  47.903  80.7320  0.00  0.00     0.000 S
ENDBRANCH 52 60
ATOM     65   O  ASG B   4      83.132  50.307  76.7010  0.00  0.00     0.000 O
ATOM     67  HD  ASG B   4      83.280  49.645  76.1630  0.00  0.00     0.000 HD
ATOM     67   O  ASG B   4      83.132  50.307  76.7010  0.00  0.00     0.000 O
ATOM     69  HD  ASG B   4      83.280  49.645  76.1630  0.00  0.00     0.000 HD
ENDBRANCH 48 51
ENDBRANCH 35 48
ENDBRANCH 34 38
ENDBRANCH 15 34
ENDBRANCH 14 17
ENDBRANCH 1 14
TORSDOF 12
ENDMDL
MODEL 80
REMARK VINA RESULT:      -0.8     57.351     62.994
ROOT
ATOM      1  C1  GAD B   1      63.156  54.819  81.3400  0.00  0.00     0.000 C
ATOM      2  C2  GAD B   1      64.308  53.834  81.1220  0.00  0.00     0.000 C
ATOM      3  C3  GAD B   1      65.610  54.597  80.8540  0.00  0.00     0.000 C
ATOM      4  C4  GAD B   1      65.426  55.929  80.1220  0.00  0.00     0.000 C
ATOM      5  C5  GAD B   1      64.230  56.493  79.8610  0.00  0.00     0.000 C
ATOM      6  O5  GAD B   1      63.056  55.760  80.2610  0.00  0.00     0.000 O
ATOM      7   O  GAD B   1      64.423  52.884  82.2460  0.00  0.00     0.000 O
ATOM      9  HD  GAD B   1      63.631  53.195  82.4060  0.00  0.00     0.000 HD
ATOM      9   O  GAD B   1      66.524  53.821  80.0480  0.00  0.00     0.000 O
ATOM     11  HD  GAD B   1      65.733  54.132  80.2090  0.00  0.00     0.000 HD
ENDROOT
BRANCH 5 11
ATOM     11   C  GAD B   1      64.043  57.830  79.2500  0.00  0.00     0.000 C
ATOM     12   O  GAD B   1      63.330  58.662  79.8930  0.00  0.00     0.000 OA
ATOM     13   O  GAD B   1      64.522  58.079  78.0830  0.00  0.00     0.000 OA
ENDBRANCH 5 11
BRANCH 1 14
ATOM     14  O3  ASG B   2      61.856  54.502  81.1870  0.00  0.00     0.000 O
BRANCH 14 17
ATOM     15  C1  ASG B   2      59.222  53.315  78.7530  0.00  0.00     0.000 C
ATOM     16  C2  ASG B   2      59.853  54.234  79.8070  0.00  0.00     0.000 C
ATOM     17  C3  ASG B   2      61.222  53.675  80.2050  0.00  0.00     0.000 C
ATOM     18  C4  ASG B   2      61.069  52.266  80.7470  0.00  0.00     0.000 C
ATOM     19  C5  ASG B   2      60.326  51.416  79.7210  0.00  0.00     0.000 C
ATOM     20  O5  ASG B   2      59.080  52.047  79.3670  0.00  0.00     0.000 O
ATOM     21   C  ASG B   2      59.983  50.055  80.2370  0.00  0.00     0.000 C
ATOM     22   O  ASG B   2      59.123  49.415  79.3260  0.00  0.00     0.000 O
ATOM     24  HD  ASG B   2      58.599  48.905  78.8620  0.00  0.00     0.000 HD
BRANCH 16 26
ATOM     24   N  ASG B   2      59.542  55.383  80.6260  0.00  0.00     0.000 N
ATOM     26  HD  ASG B   2      60.076  54.756  80.8930  0.00  0.00     0.000 HD
ATOM     26   C  ASG B   2      59.802  56.655  80.2700  0.00  0.00     0.000 C
ATOM     27   C  ASG B   2      59.113  57.711  81.0630  0.00  0.00     0.000 C
ATOM     28   O  ASG B   2      60.560  56.922  79.3460  0.00  0.00     0.000 OA
ENDBRANCH 16 26
BRANCH 18 29
ATOM     29   O  ASG B   2      60.345  52.386  82.0190  0.00  0.00     0.000 O
ATOM     30   O  ASG B   2      61.463  50.464  83.0680  0.00  0.00     0.000 OA
ATOM     31   O  ASG B   2      62.046  52.721  83.7440  0.00  0.00     0.000 OA
ATOM     32   O  ASG B   2      59.884  51.807  84.3200  0.00  0.00     0.000 OA
ATOM     33   S  ASG B   2      60.996  51.804  83.3690  0.00  0.00     0.000 S
ENDBRANCH 18 29
BRANCH 15 34
ATOM     34  O4  ASG B   3      57.963  53.742  78.3160  0.00  0.00     0.000 O
BRANCH 34 38
ATOM     35  C1  GCT B   3      59.179  56.930  76.1430  0.00  0.00     0.000 C
ATOM     36  C2  GCT B   3      57.738  57.009  76.5990  0.00  0.00     0.000 C
ATOM     37  C3  GCT B   3      57.478  56.038  77.7420  0.00  0.00     0.000 C
ATOM     38  C4  GCT B   3      57.783  54.611  77.2700  0.00  0.00     0.000 C
ATOM     39  C5  GCT B   3      58.953  54.572  76.2600  0.00  0.00     0.000 C
ATOM     40  O5  GCT B   3      59.767  55.697  76.5410  0.00  0.00     0.000 O
ATOM     41   O  GCT B   3      57.525  58.346  77.0300  0.00  0.00     0.000 O
ATOM     43  HD  GCT B   3      57.403  59.084  76.5940  0.00  0.00     0.000 HD
ATOM     43   O  GCT B   3      56.114  56.203  78.1830  0.00  0.00     0.000 O
ATOM     45  HD  GCT B   3      55.992  56.942  77.7480  0.00  0.00     0.000 HD
BRANCH 39 45
ATOM     45   C  GCT B   3      58.628  54.546  74.7830  0.00  0.00     0.000 C
ATOM     46   O  GCT B   3      59.573  54.519  73.9330  0.00  0.00     0.000 OA
ATOM     47   O  GCT B   3      57.430  54.539  74.4550  0.00  0.00     0.000 OA
ENDBRANCH 39 45
BRANCH 35 48
ATOM     48  O3  ASG B   4      59.310  57.572  75.0020  0.00  0.00     0.000 O
BRANCH 48 51
ATOM     49  C1  ASG B   4      61.217  60.498  73.7780  0.00  0.00     0.000 C
ATOM     50  C2  ASG B   4      60.149  59.392  73.8420  0.00  0.00     0.000 C
ATOM     51  C3  ASG B   4      60.170  58.682  75.1930  0.00  0.00     0.000 C
ATOM     52  C4  ASG B   4      61.578  58.244  75.5630  0.00  0.00     0.000 C
ATOM     53  C5  ASG B   4      62.489  59.466  75.4910  0.00  0.00     0.000 C
ATOM     54  O5  ASG B   4      62.485  59.979  74.1440  0.00  0.00     0.000 O
BRANCH 50 57
ATOM     55   N  ASG B   4      58.730  59.550  73.6220  0.00  0.00     0.000 N
ATOM     57  HD  ASG B   4      58.777  59.953  72.8570  0.00  0.00     0.000 HD
ATOM     57   O  ASG B   4      58.885  59.588  71.3880  0.00  0.00     0.000 OA
ATOM     58   C  ASG B   4      58.191  59.531  72.3990  0.00  0.00     0.000 C
ATOM     59   C  ASG B   4      56.695  59.490  72.3510  0.00  0.00     0.000 C
ENDBRANCH 50 57
BRANCH 52 60
ATOM     60   O  ASG B   4      61.885  57.184  74.5680  0.00  0.00     0.000 O
ATOM     61   O  ASG B   4      63.070  55.770  76.2500  0.00  0.00     0.000 OA
ATOM     62   O  ASG B   4      62.717  54.945  74.0440  0.00  0.00     0.000 OA
ATOM     63   O  ASG B   4      64.140  56.839  74.3660  0.00  0.00     0.000 OA
ATOM     64   S  ASG B   4      62.996  56.066  74.8580  0.00  0.00     0.000 S
ENDBRANCH 52 60
ATOM     65   O  ASG B   4      64.622  60.430  76.1240  0.00  0.00     0.000 O
ATOM     67  HD  ASG B   4      64.738  60.715  75.3150  0.00  0.00     0.000 HD
ATOM     67   O  ASG B   4      64.622  60.430  76.1240  0.00  0.00     0.000 O
ATOM     69  HD  ASG B   4      64.738  60.715  75.3150  0.00  0.00     0.000 HD
ENDBRANCH 48 51
ENDBRANCH 35 48
ENDBRANCH 34 38
ENDBRANCH 15 34
ENDBRANCH 14 17
ENDBRANCH 1 14
TORSDOF 12
ENDMDL
MODEL 81
REMARK VINA RESULT:      -0.8     85.273     88.651
ROOT
ATOM      1  C1  GAD B   1      90.009  71.384  25.8020  0.00  0.00     0.000 C
ATOM      2  C2  GAD B   1      90.702  70.054  26.1170  0.00  0.00     0.000 C
ATOM      3  C3  GAD B   1      91.126  70.017  27.5900  0.00  0.00     0.000 C
ATOM      4  C4  GAD B   1      91.504  71.380  28.1760  0.00  0.00     0.000 C
ATOM      5  C5  GAD B   1      91.339  72.554  27.5340  0.00  0.00     0.000 C
ATOM      6  O5  GAD B   1      90.817  72.504  26.1930  0.00  0.00     0.000 O
ATOM      7   O  GAD B   1      89.858  68.905  25.7350  0.00  0.00     0.000 O
ATOM      9  HD  GAD B   1      89.446  69.531  25.3020  0.00  0.00     0.000 HD
ATOM      9   O  GAD B   1      92.274  69.163  27.7900  0.00  0.00     0.000 O
ATOM     11  HD  GAD B   1      91.861  69.789  27.3570  0.00  0.00     0.000 HD
ENDROOT
BRANCH 5 11
ATOM     11   C  GAD B   1      91.602  73.885  28.1310  0.00  0.00     0.000 C
ATOM     12   O  GAD B   1      90.647  74.722  28.1110  0.00  0.00     0.000 OA
ATOM     13   O  GAD B   1      92.776  74.178  28.5660  0.00  0.00     0.000 OA
ENDBRANCH 5 11
BRANCH 1 14
ATOM     14  O3  ASG B   2      89.895  71.896  24.5620  0.00  0.00     0.000 O
BRANCH 14 17
ATOM     15  C1  ASG B   2      91.785  73.170  21.5480  0.00  0.00     0.000 C
ATOM     16  C2  ASG B   2      90.758  73.213  22.6880  0.00  0.00     0.000 C
ATOM     17  C3  ASG B   2      90.835  71.905  23.4810  0.00  0.00     0.000 C
ATOM     18  C4  ASG B   2      90.568  70.726  22.5650  0.00  0.00     0.000 C
ATOM     19  C5  ASG B   2      91.527  70.790  21.3800  0.00  0.00     0.000 C
ATOM     20  O5  ASG B   2      91.425  72.073  20.7310  0.00  0.00     0.000 O
ATOM     21   C  ASG B   2      91.228  69.761  20.3370  0.00  0.00     0.000 C
ATOM     22   O  ASG B   2      92.006  70.016  19.1930  0.00  0.00     0.000 O
ATOM     24  HD  ASG B   2      92.419  70.051  18.4330  0.00  0.00     0.000 HD
BRANCH 16 26
ATOM     24   N  ASG B   2      89.672  74.022  23.1920  0.00  0.00     0.000 N
ATOM     26  HD  ASG B   2      89.679  73.160  23.2670  0.00  0.00     0.000 HD
ATOM     26   C  ASG B   2      89.818  74.979  24.1270  0.00  0.00     0.000 C
ATOM     27   C  ASG B   2      88.681  75.931  24.2730  0.00  0.00     0.000 C
ATOM     28   O  ASG B   2      90.827  75.058  24.8160  0.00  0.00     0.000 OA
ENDBRANCH 16 26
BRANCH 18 29
ATOM     29   O  ASG B   2      89.158  70.821  22.1630  0.00  0.00     0.000 O
ATOM     30   O  ASG B   2      88.832  68.390  21.9970  0.00  0.00     0.000 OA
ATOM     31   O  ASG B   2      87.881  69.616  23.8640  0.00  0.00     0.000 OA
ATOM     32   O  ASG B   2      86.982  69.911  21.6390  0.00  0.00     0.000 OA
ATOM     33   S  ASG B   2      88.160  69.595  22.4470  0.00  0.00     0.000 S
ENDBRANCH 18 29
BRANCH 15 34
ATOM     34  O4  ASG B   3      91.799  74.327  20.7620  0.00  0.00     0.000 O
BRANCH 34 38
ATOM     35  C1  GCT B   3      93.516  76.812  23.4530  0.00  0.00     0.000 C
ATOM     36  C2  GCT B   3      92.709  77.522  22.3870  0.00  0.00     0.000 C
ATOM     37  C3  GCT B   3      91.758  76.555  21.6950  0.00  0.00     0.000 C
ATOM     38  C4  GCT B   3      92.570  75.425  21.0490  0.00  0.00     0.000 C
ATOM     39  C5  GCT B   3      93.825  75.067  21.8770  0.00  0.00     0.000 C
ATOM     40  O5  GCT B   3      93.534  75.408  23.2210  0.00  0.00     0.000 O
ATOM     41   O  GCT B   3      91.978  78.544  23.0480  0.00  0.00     0.000 O
ATOM     43  HD  GCT B   3      92.211  79.319  23.3550  0.00  0.00     0.000 HD
ATOM     43   O  GCT B   3      90.967  77.294  20.7400  0.00  0.00     0.000 O
ATOM     45  HD  GCT B   3      91.201  78.069  21.0470  0.00  0.00     0.000 HD
BRANCH 39 45
ATOM     45   C  GCT B   3      95.149  75.683  21.4800  0.00  0.00     0.000 C
ATOM     46   O  GCT B   3      96.195  75.407  22.1480  0.00  0.00     0.000 OA
ATOM     47   O  GCT B   3      95.163  76.435  20.4910  0.00  0.00     0.000 OA
ENDBRANCH 39 45
BRANCH 35 48
ATOM     48  O3  ASG B   4      94.500  77.593  23.8460  0.00  0.00     0.000 O
BRANCH 48 51
ATOM     49  C1  ASG B   4      95.542  79.201  27.0110  0.00  0.00     0.000 C
ATOM     50  C2  ASG B   4      95.439  78.907  25.5050  0.00  0.00     0.000 C
ATOM     51  C3  ASG B   4      94.308  77.925  25.2100  0.00  0.00     0.000 C
ATOM     52  C4  ASG B   4      94.397  76.699  26.1040  0.00  0.00     0.000 C
ATOM     53  C5  ASG B   4      94.445  77.172  27.5550  0.00  0.00     0.000 C
ATOM     54  O5  ASG B   4      95.616  77.990  27.7450  0.00  0.00     0.000 O
BRANCH 50 57
ATOM     55   N  ASG B   4      95.263  79.875  24.4470  0.00  0.00     0.000 N
ATOM     57  HD  ASG B   4      95.917  80.400  24.6610  0.00  0.00     0.000 HD
ATOM     57   O  ASG B   4      97.409  80.512  24.4090  0.00  0.00     0.000 OA
ATOM     58   C  ASG B   4      96.291  80.534  23.9040  0.00  0.00     0.000 C
ATOM     59   C  ASG B   4      95.972  81.337  22.6800  0.00  0.00     0.000 C
ENDBRANCH 50 57
BRANCH 52 60
ATOM     60   O  ASG B   4      95.630  76.015  25.6360  0.00  0.00     0.000 O
ATOM     61   O  ASG B   4      94.618  73.746  25.8790  0.00  0.00     0.000 OA
ATOM     62   O  ASG B   4      96.786  73.982  24.9220  0.00  0.00     0.000 OA
ATOM     63   O  ASG B   4      96.453  74.575  27.2150  0.00  0.00     0.000 OA
ATOM     64   S  ASG B   4      95.858  74.448  25.8810  0.00  0.00     0.000 S
ENDBRANCH 52 60
ATOM     65   O  ASG B   4      94.181  76.557  29.8850  0.00  0.00     0.000 O
ATOM     67  HD  ASG B   4      94.919  76.966  30.0800  0.00  0.00     0.000 HD
ATOM     67   O  ASG B   4      94.181  76.557  29.8850  0.00  0.00     0.000 O
ATOM     69  HD  ASG B   4      94.919  76.966  30.0800  0.00  0.00     0.000 HD
ENDBRANCH 48 51
ENDBRANCH 35 48
ENDBRANCH 34 38
ENDBRANCH 15 34
ENDBRANCH 14 17
ENDBRANCH 1 14
TORSDOF 12
ENDMDL
MODEL 82
REMARK VINA RESULT:      -0.8     65.126     69.759
ROOT
ATOM      1  C1  GAD B   1      75.388  82.479  61.8050  0.00  0.00     0.000 C
ATOM      2  C2  GAD B   1      74.999  83.667  62.6890  0.00  0.00     0.000 C
ATOM      3  C3  GAD B   1      75.723  83.580  64.0380  0.00  0.00     0.000 C
ATOM      4  C4  GAD B   1      75.984  82.152  64.5270  0.00  0.00     0.000 C
ATOM      5  C5  GAD B   1      75.756  81.045  63.7930  0.00  0.00     0.000 C
ATOM      6  O5  GAD B   1      75.187  81.229  62.4830  0.00  0.00     0.000 O
ATOM      7   O  GAD B   1      75.231  84.950  61.9980  0.00  0.00     0.000 O
ATOM      9  HD  GAD B   1      75.276  84.415  61.3190  0.00  0.00     0.000 HD
ATOM      9   O  GAD B   1      74.972  84.231  65.0870  0.00  0.00     0.000 O
ATOM     11  HD  GAD B   1      75.018  83.696  64.4080  0.00  0.00     0.000 HD
ENDROOT
BRANCH 5 11
ATOM     11   C  GAD B   1      76.104  79.668  64.2140  0.00  0.00     0.000 C
ATOM     12   O  GAD B   1      76.843  78.995  63.4300  0.00  0.00     0.000 OA
ATOM     13   O  GAD B   1      75.598  79.174  65.2890  0.00  0.00     0.000 OA
ENDBRANCH 5 11
BRANCH 1 14
ATOM     14  O3  ASG B   2      74.649  82.039  60.7690  0.00  0.00     0.000 O
BRANCH 14 17
ATOM     15  C1  ASG B   2      71.314  80.596  59.7340  0.00  0.00     0.000 C
ATOM     16  C2  ASG B   2      72.843  80.674  59.8390  0.00  0.00     0.000 C
ATOM     17  C3  ASG B   2      73.227  81.922  60.6400  0.00  0.00     0.000 C
ATOM     18  C4  ASG B   2      72.673  83.162  59.9650  0.00  0.00     0.000 C
ATOM     19  C5  ASG B   2      71.170  82.992  59.7660  0.00  0.00     0.000 C
ATOM     20  O5  ASG B   2      70.903  81.768  59.0540  0.00  0.00     0.000 O
ATOM     21   C  ASG B   2      70.565  84.095  58.9580  0.00  0.00     0.000 C
ATOM     22   O  ASG B   2      69.236  83.762  58.6380  0.00  0.00     0.000 O
ATOM     24  HD  ASG B   2      68.415  83.692  58.3720  0.00  0.00     0.000 HD
BRANCH 16 26
ATOM     24   N  ASG B   2      74.037  80.029  59.3420  0.00  0.00     0.000 N
ATOM     26  HD  ASG B   2      74.009  80.876  59.5200  0.00  0.00     0.000 HD
ATOM     26   C  ASG B   2      74.671  79.027  59.9790  0.00  0.00     0.000 C
ATOM     27   C  ASG B   2      75.664  78.263  59.1720  0.00  0.00     0.000 C
ATOM     28   O  ASG B   2      74.441  78.762  61.1520  0.00  0.00     0.000 OA
ENDBRANCH 16 26
BRANCH 18 29
ATOM     29   O  ASG B   2      73.403  83.309  58.6980  0.00  0.00     0.000 O
ATOM     30   O  ASG B   2      73.307  85.765  58.6940  0.00  0.00     0.000 OA
ATOM     31   O  ASG B   2      75.393  84.635  59.2060  0.00  0.00     0.000 OA
ATOM     32   O  ASG B   2      74.505  84.573  56.9590  0.00  0.00     0.000 OA
ATOM     33   S  ASG B   2      74.204  84.667  58.3880  0.00  0.00     0.000 S
ENDBRANCH 18 29
BRANCH 15 34
ATOM     34  O4  ASG B   3      70.856  79.482  59.0210  0.00  0.00     0.000 O
BRANCH 34 38
ATOM     35  C1  GCT B   3      71.734  76.654  61.7760  0.00  0.00     0.000 C
ATOM     36  C2  GCT B   3      71.625  76.124  60.3630  0.00  0.00     0.000 C
ATOM     37  C3  GCT B   3      71.732  77.255  59.3510  0.00  0.00     0.000 C
ATOM     38  C4  GCT B   3      70.606  78.265  59.6020  0.00  0.00     0.000 C
ATOM     39  C5  GCT B   3      70.260  78.387  61.1040  0.00  0.00     0.000 C
ATOM     40  O5  GCT B   3      71.435  78.045  61.8180  0.00  0.00     0.000 O
ATOM     41   O  GCT B   3      72.696  75.207  60.1930  0.00  0.00     0.000 O
ATOM     43  HD  GCT B   3      72.812  74.393  60.4640  0.00  0.00     0.000 HD
ATOM     43   O  GCT B   3      71.692  76.690  58.0230  0.00  0.00     0.000 O
ATOM     45  HD  GCT B   3      71.809  75.876  58.2950  0.00  0.00     0.000 HD
BRANCH 39 45
ATOM     45   C  GCT B   3      69.096  77.583  61.6410  0.00  0.00     0.000 C
ATOM     46   O  GCT B   3      68.796  77.663  62.8740  0.00  0.00     0.000 OA
ATOM     47   O  GCT B   3      68.462  76.877  60.8410  0.00  0.00     0.000 OA
ENDBRANCH 39 45
BRANCH 35 48
ATOM     48  O3  ASG B   4      71.377  75.712  62.6230  0.00  0.00     0.000 O
BRANCH 48 51
ATOM     49  C1  ASG B   4      72.988  73.837  65.3770  0.00  0.00     0.000 C
ATOM     50  C2  ASG B   4      71.984  74.202  64.2710  0.00  0.00     0.000 C
ATOM     51  C3  ASG B   4      72.495  75.362  63.4210  0.00  0.00     0.000 C
ATOM     52  C4  ASG B   4      72.949  76.523  64.2910  0.00  0.00     0.000 C
ATOM     53  C5  ASG B   4      73.969  75.993  65.2960  0.00  0.00     0.000 C
ATOM     54  O5  ASG B   4      73.342  74.992  66.1210  0.00  0.00     0.000 O
BRANCH 50 57
ATOM     55   N  ASG B   4      71.455  73.317  63.2590  0.00  0.00     0.000 N
ATOM     57  HD  ASG B   4      71.186  72.686  63.7870  0.00  0.00     0.000 HD
ATOM     57   O  ASG B   4      69.960  72.346  64.6140  0.00  0.00     0.000 OA
ATOM     58   C  ASG B   4      70.403  72.523  63.4840  0.00  0.00     0.000 C
ATOM     59   C  ASG B   4      69.845  71.830  62.2790  0.00  0.00     0.000 C
ENDBRANCH 50 57
BRANCH 52 60
ATOM     60   O  ASG B   4      71.686  77.019  64.8960  0.00  0.00     0.000 O
ATOM     61   O  ASG B   4      72.375  79.409  64.6910  0.00  0.00     0.000 OA
ATOM     62   O  ASG B   4      70.187  78.868  65.4600  0.00  0.00     0.000 OA
ATOM     63   O  ASG B   4      72.077  78.248  66.7880  0.00  0.00     0.000 OA
ATOM     64   S  ASG B   4      71.557  78.520  65.4450  0.00  0.00     0.000 S
ENDBRANCH 52 60
ATOM     65   O  ASG B   4      75.730  76.553  66.8660  0.00  0.00     0.000 O
ATOM     67  HD  ASG B   4      75.377  76.024  67.4540  0.00  0.00     0.000 HD
ATOM     67   O  ASG B   4      75.730  76.553  66.8660  0.00  0.00     0.000 O
ATOM     69  HD  ASG B   4      75.377  76.024  67.4540  0.00  0.00     0.000 HD
ENDBRANCH 48 51
ENDBRANCH 35 48
ENDBRANCH 34 38
ENDBRANCH 15 34
ENDBRANCH 14 17
ENDBRANCH 1 14
TORSDOF 12
ENDMDL
MODEL 83
REMARK VINA RESULT:      -0.8     57.636     63.236
ROOT
ATOM      1  C1  GAD B   1      60.235  40.543  72.6650  0.00  0.00     0.000 C
ATOM      2  C2  GAD B   1      61.126  41.098  71.5510  0.00  0.00     0.000 C
ATOM      3  C3  GAD B   1      62.604  40.905  71.9130  0.00  0.00     0.000 C
ATOM      4  C4  GAD B   1      62.904  40.974  73.4120  0.00  0.00     0.000 C
ATOM      5  C5  GAD B   1      61.961  41.038  74.3730  0.00  0.00     0.000 C
ATOM      6  O5  GAD B   1      60.587  41.091  73.9450  0.00  0.00     0.000 O
ATOM      7   O  GAD B   1      60.777  40.514  70.2410  0.00  0.00     0.000 O
ATOM      9  HD  GAD B   1      60.071  40.287  70.6890  0.00  0.00     0.000 HD
ATOM      9   O  GAD B   1      63.438  41.908  71.2910  0.00  0.00     0.000 O
ATOM     11  HD  GAD B   1      62.732  41.681  71.7380  0.00  0.00     0.000 HD
ENDROOT
BRANCH 5 11
ATOM     11   C  GAD B   1      62.236  40.997  75.8290  0.00  0.00     0.000 C
ATOM     12   O  GAD B   1      61.639  40.100  76.5020  0.00  0.00     0.000 OA
ATOM     13   O  GAD B   1      62.984  41.892  76.3700  0.00  0.00     0.000 OA
ENDBRANCH 5 11
BRANCH 1 14
ATOM     14  O3  ASG B   2      58.954  40.912  72.8570  0.00  0.00     0.000 O
BRANCH 14 17
ATOM     15  C1  ASG B   2      56.644  43.796  73.6450  0.00  0.00     0.000 C
ATOM     16  C2  ASG B   2      57.262  42.401  73.8100  0.00  0.00     0.000 C
ATOM     17  C3  ASG B   2      58.343  42.202  72.7430  0.00  0.00     0.000 C
ATOM     18  C4  ASG B   2      57.741  42.360  71.3600  0.00  0.00     0.000 C
ATOM     19  C5  ASG B   2      57.029  43.707  71.2770  0.00  0.00     0.000 C
ATOM     20  O5  ASG B   2      56.074  43.827  72.3500  0.00  0.00     0.000 O
ATOM     21   C  ASG B   2      56.264  43.880  70.0050  0.00  0.00     0.000 C
ATOM     22   O  ASG B   2      55.471  45.039  70.0920  0.00  0.00     0.000 O
ATOM     24  HD  ASG B   2      54.940  45.717  70.0050  0.00  0.00     0.000 HD
BRANCH 16 26
ATOM     24   N  ASG B   2      57.089  41.178  74.5600  0.00  0.00     0.000 N
ATOM     26  HD  ASG B   2      57.387  41.184  73.7470  0.00  0.00     0.000 HD
ATOM     26   C  ASG B   2      57.721  40.909  75.7170  0.00  0.00     0.000 C
ATOM     27   C  ASG B   2      57.172  39.776  76.5150  0.00  0.00     0.000 C
ATOM     28   O  ASG B   2      58.689  41.560  76.0890  0.00  0.00     0.000 OA
ENDBRANCH 16 26
BRANCH 18 29
ATOM     29   O  ASG B   2      56.832  41.222  71.1680  0.00  0.00     0.000 O
ATOM     30   O  ASG B   2      57.208  41.071  68.7440  0.00  0.00     0.000 OA
ATOM     31   O  ASG B   2      58.186  39.417  70.2270  0.00  0.00     0.000 OA
ATOM     32   O  ASG B   2      55.795  39.463  69.8770  0.00  0.00     0.000 OA
ATOM     33   S  ASG B   2      57.037  40.235  69.9170  0.00  0.00     0.000 S
ENDBRANCH 18 29
BRANCH 15 34
ATOM     34  O4  ASG B   3      55.643  44.082  74.5800  0.00  0.00     0.000 O
BRANCH 34 38
ATOM     35  C1  GCT B   3      58.017  44.507  77.8280  0.00  0.00     0.000 C
ATOM     36  C2  GCT B   3      56.580  44.165  78.1560  0.00  0.00     0.000 C
ATOM     37  C3  GCT B   3      55.866  43.600  76.9370  0.00  0.00     0.000 C
ATOM     38  C4  GCT B   3      55.895  44.638  75.8090  0.00  0.00     0.000 C
ATOM     39  C5  GCT B   3      57.195  45.474  75.8240  0.00  0.00     0.000 C
ATOM     40  O5  GCT B   3      58.190  44.663  76.4240  0.00  0.00     0.000 O
ATOM     41   O  GCT B   3      56.623  43.197  79.1950  0.00  0.00     0.000 O
ATOM     43  HD  GCT B   3      56.777  43.264  80.0450  0.00  0.00     0.000 HD
ATOM     43   O  GCT B   3      54.526  43.227  77.3210  0.00  0.00     0.000 O
ATOM     45  HD  GCT B   3      54.679  43.293  78.1710  0.00  0.00     0.000 HD
BRANCH 39 45
ATOM     45   C  GCT B   3      57.174  46.825  76.5050  0.00  0.00     0.000 C
ATOM     46   O  GCT B   3      58.231  47.530  76.5340  0.00  0.00     0.000 OA
ATOM     47   O  GCT B   3      56.101  47.204  77.0030  0.00  0.00     0.000 OA
ENDBRANCH 39 45
BRANCH 35 48
ATOM     48  O3  ASG B   4      58.526  45.228  78.8040  0.00  0.00     0.000 O
BRANCH 48 51
ATOM     49  C1  ASG B   4      61.302  44.877  81.2250  0.00  0.00     0.000 C
ATOM     50  C2  ASG B   4      60.003  45.388  80.5800  0.00  0.00     0.000 C
ATOM     51  C3  ASG B   4      59.580  44.501  79.4130  0.00  0.00     0.000 C
ATOM     52  C4  ASG B   4      60.733  44.269  78.4500  0.00  0.00     0.000 C
ATOM     53  C5  ASG B   4      61.914  43.723  79.2480  0.00  0.00     0.000 C
ATOM     54  O5  ASG B   4      62.304  44.695  80.2380  0.00  0.00     0.000 O
BRANCH 50 57
ATOM     55   N  ASG B   4      58.740  45.613  81.2440  0.00  0.00     0.000 N
ATOM     57  HD  ASG B   4      59.036  46.111  81.8880  0.00  0.00     0.000 HD
ATOM     57   O  ASG B   4      59.339  47.576  82.1400  0.00  0.00     0.000 OA
ATOM     58   C  ASG B   4      58.467  46.749  81.8930  0.00  0.00     0.000 C
ATOM     59   C  ASG B   4      57.047  46.914  82.3410  0.00  0.00     0.000 C
ENDBRANCH 50 57
BRANCH 52 60
ATOM     60   O  ASG B   4      60.959  45.609  77.8500  0.00  0.00     0.000 O
ATOM     61   O  ASG B   4      61.398  44.662  75.5830  0.00  0.00     0.000 OA
ATOM     62   O  ASG B   4      61.296  47.022  75.8820  0.00  0.00     0.000 OA
ATOM     63   O  ASG B   4      63.052  45.788  76.9380  0.00  0.00     0.000 OA
ATOM     64   S  ASG B   4      61.678  45.775  76.4270  0.00  0.00     0.000 S
ENDBRANCH 52 60
ATOM     65   O  ASG B   4      64.050  42.579  79.1570  0.00  0.00     0.000 O
ATOM     67  HD  ASG B   4      64.390  43.165  79.6960  0.00  0.00     0.000 HD
ATOM     67   O  ASG B   4      64.050  42.579  79.1570  0.00  0.00     0.000 O
ATOM     69  HD  ASG B   4      64.390  43.165  79.6960  0.00  0.00     0.000 HD
ENDBRANCH 48 51
ENDBRANCH 35 48
ENDBRANCH 34 38
ENDBRANCH 15 34
ENDBRANCH 14 17
ENDBRANCH 1 14
TORSDOF 12
ENDMDL
MODEL 84
REMARK VINA RESULT:      -0.8     34.519     39.676
ROOT
ATOM      1  C1  GAD B   1      46.894  64.393  43.6620  0.00  0.00     0.000 C
ATOM      2  C2  GAD B   1      47.235  64.877  45.0750  0.00  0.00     0.000 C
ATOM      3  C3  GAD B   1      48.755  64.908  45.2700  0.00  0.00     0.000 C
ATOM      4  C4  GAD B   1      49.517  63.835  44.4870  0.00  0.00     0.000 C
ATOM      5  C5  GAD B   1      48.955  63.019  43.5730  0.00  0.00     0.000 C
ATOM      6  O5  GAD B   1      47.535  63.144  43.3640  0.00  0.00     0.000 O
ATOM      7   O  GAD B   1      46.594  66.173  45.3690  0.00  0.00     0.000 O
ATOM      9  HD  GAD B   1      46.138  65.947  44.6680  0.00  0.00     0.000 HD
ATOM      9   O  GAD B   1      49.117  64.724  46.6570  0.00  0.00     0.000 O
ATOM     11  HD  GAD B   1      48.661  64.498  45.9560  0.00  0.00     0.000 HD
ENDROOT
BRANCH 5 11
ATOM     11   C  GAD B   1      49.701  62.052  42.7340  0.00  0.00     0.000 C
ATOM     12   O  GAD B   1      49.553  62.149  41.4760  0.00  0.00     0.000 OA
ATOM     13   O  GAD B   1      50.392  61.117  43.2850  0.00  0.00     0.000 OA
ENDBRANCH 5 11
BRANCH 1 14
ATOM     14  O3  ASG B   2      45.705  63.869  43.3140  0.00  0.00     0.000 O
BRANCH 14 17
ATOM     15  C1  ASG B   2      43.262  61.051  43.9220  0.00  0.00     0.000 C
ATOM     16  C2  ASG B   2      44.165  61.980  43.0980  0.00  0.00     0.000 C
ATOM     17  C3  ASG B   2      44.846  62.979  44.0370  0.00  0.00     0.000 C
ATOM     18  C4  ASG B   2      43.799  63.780  44.7880  0.00  0.00     0.000 C
ATOM     19  C5  ASG B   2      42.847  62.818  45.4920  0.00  0.00     0.000 C
ATOM     20  O5  ASG B   2      42.299  61.883  44.5430  0.00  0.00     0.000 O
ATOM     21   C  ASG B   2      41.684  63.514  46.1240  0.00  0.00     0.000 C
ATOM     22   O  ASG B   2      40.751  62.557  46.5620  0.00  0.00     0.000 O
ATOM     24  HD  ASG B   2      40.097  62.087  46.8800  0.00  0.00     0.000 HD
BRANCH 16 26
ATOM     24   N  ASG B   2      44.498  62.295  41.7280  0.00  0.00     0.000 N
ATOM     26  HD  ASG B   2      44.502  62.893  42.3540  0.00  0.00     0.000 HD
ATOM     26   C  ASG B   2      45.520  61.735  41.0540  0.00  0.00     0.000 C
ATOM     27   C  ASG B   2      45.506  61.915  39.5740  0.00  0.00     0.000 C
ATOM     28   O  ASG B   2      46.406  61.113  41.6270  0.00  0.00     0.000 OA
ENDBRANCH 16 26
BRANCH 18 29
ATOM     29   O  ASG B   2      43.125  64.623  43.7920  0.00  0.00     0.000 O
ATOM     30   O  ASG B   2      42.695  66.473  45.3530  0.00  0.00     0.000 OA
ATOM     31   O  ASG B   2      44.420  66.693  43.6600  0.00  0.00     0.000 OA
ATOM     32   O  ASG B   2      42.090  66.664  43.0160  0.00  0.00     0.000 OA
ATOM     33   S  ASG B   2      43.095  66.219  43.9820  0.00  0.00     0.000 S
ENDBRANCH 18 29
BRANCH 15 34
ATOM     34  O4  ASG B   3      42.593  60.091  43.1540  0.00  0.00     0.000 O
BRANCH 34 38
ATOM     35  C1  GCT B   3      45.777  57.748  42.2930  0.00  0.00     0.000 C
ATOM     36  C2  GCT B   3      44.629  57.612  41.3150  0.00  0.00     0.000 C
ATOM     37  C3  GCT B   3      43.678  58.795  41.4280  0.00  0.00     0.000 C
ATOM     38  C4  GCT B   3      43.123  58.861  42.8560  0.00  0.00     0.000 C
ATOM     39  C5  GCT B   3      44.160  58.394  43.9030  0.00  0.00     0.000 C
ATOM     40  O5  GCT B   3      45.438  58.643  43.3460  0.00  0.00     0.000 O
ATOM     41   O  GCT B   3      45.208  57.567  40.0180  0.00  0.00     0.000 O
ATOM     43  HD  GCT B   3      45.619  56.938  39.5870  0.00  0.00     0.000 HD
ATOM     43   O  GCT B   3      42.645  58.651  40.4300  0.00  0.00     0.000 O
ATOM     45  HD  GCT B   3      43.057  58.023  40.0000  0.00  0.00     0.000 HD
BRANCH 39 45
ATOM     45   C  GCT B   3      44.096  56.962  44.3890  0.00  0.00     0.000 C
ATOM     46   O  GCT B   3      44.941  56.553  45.2470  0.00  0.00     0.000 OA
ATOM     47   O  GCT B   3      43.198  56.236  43.9330  0.00  0.00     0.000 OA
ENDBRANCH 39 45
BRANCH 35 48
ATOM     48  O3  ASG B   4      46.427  56.606  42.3610  0.00  0.00     0.000 O
BRANCH 48 51
ATOM     49  C1  ASG B   4      49.861  55.432  41.6400  0.00  0.00     0.000 C
ATOM     50  C2  ASG B   4      48.347  55.394  41.9080  0.00  0.00     0.000 C
ATOM     51  C3  ASG B   4      47.745  56.796  41.8770  0.00  0.00     0.000 C
ATOM     52  C4  ASG B   4      48.534  57.753  42.7560  0.00  0.00     0.000 C
ATOM     53  C5  ASG B   4      49.997  57.697  42.3250  0.00  0.00     0.000 C
ATOM     54  O5  ASG B   4      50.492  56.356  42.5110  0.00  0.00     0.000 O
BRANCH 50 57
ATOM     55   N  ASG B   4      47.359  54.641  41.1710  0.00  0.00     0.000 N
ATOM     57  HD  ASG B   4      47.746  53.868  41.2170  0.00  0.00     0.000 HD
ATOM     57   O  ASG B   4      47.817  52.690  42.1720  0.00  0.00     0.000 OA
ATOM     58   C  ASG B   4      47.096  53.357  41.4360  0.00  0.00     0.000 C
ATOM     59   C  ASG B   4      45.903  52.782  40.7360  0.00  0.00     0.000 C
ENDBRANCH 50 57
BRANCH 52 60
ATOM     60   O  ASG B   4      48.275  57.256  44.1320  0.00  0.00     0.000 O
ATOM     61   O  ASG B   4      48.116  59.562  45.0740  0.00  0.00     0.000 OA
ATOM     62   O  ASG B   4      47.650  57.681  46.4580  0.00  0.00     0.000 OA
ATOM     63   O  ASG B   4      49.865  57.984  45.6100  0.00  0.00     0.000 OA
ATOM     64   S  ASG B   4      48.431  58.213  45.4080  0.00  0.00     0.000 S
ENDBRANCH 52 60
ATOM     65   O  ASG B   4      52.164  58.782  42.4010  0.00  0.00     0.000 O
ATOM     67  HD  ASG B   4      52.540  58.025  42.5900  0.00  0.00     0.000 HD
ATOM     67   O  ASG B   4      52.164  58.782  42.4010  0.00  0.00     0.000 O
ATOM     69  HD  ASG B   4      52.540  58.025  42.5900  0.00  0.00     0.000 HD
ENDBRANCH 48 51
ENDBRANCH 35 48
ENDBRANCH 34 38
ENDBRANCH 15 34
ENDBRANCH 14 17
ENDBRANCH 1 14
TORSDOF 12
ENDMDL
MODEL 85
REMARK VINA RESULT:      -0.8     62.388     67.948
ROOT
ATOM      1  C1  GAD B   1      56.451  98.470   8.4960  0.00  0.00     0.000 C
ATOM      2  C2  GAD B   1      56.740  99.536   7.4340  0.00  0.00     0.000 C
ATOM      3  C3  GAD B   1      56.650 100.935   8.0550  0.00  0.00     0.000 C
ATOM      4  C4  GAD B   1      55.632 101.061   9.1910  0.00  0.00     0.000 C
ATOM      5  C5  GAD B   1      54.968 100.022   9.7350  0.00  0.00     0.000 C
ATOM      6  O5  GAD B   1      55.207  98.719   9.1680  0.00  0.00     0.000 O
ATOM      7   O  GAD B   1      58.031  99.290   6.7630  0.00  0.00     0.000 O
ATOM      9  HD  GAD B   1      57.920  98.518   7.1390  0.00  0.00     0.000 HD
ATOM      9   O  GAD B   1      56.280 101.929   7.0730  0.00  0.00     0.000 O
ATOM     11  HD  GAD B   1      56.169 101.157   7.4500  0.00  0.00     0.000 HD
ENDROOT
BRANCH 5 11
ATOM     11   C  GAD B   1      54.062 100.118  10.9030  0.00  0.00     0.000 C
ATOM     12   O  GAD B   1      54.316  99.363  11.8920  0.00  0.00     0.000 OA
ATOM     13   O  GAD B   1      53.026 100.878  10.8560  0.00  0.00     0.000 OA
ENDBRANCH 5 11
BRANCH 1 14
ATOM     14  O3  ASG B   2      56.050  97.217   8.2120  0.00  0.00     0.000 O
BRANCH 14 17
ATOM     15  C1  ASG B   2      53.342  95.115   6.6220  0.00  0.00     0.000 C
ATOM     16  C2  ASG B   2      54.302  95.573   7.7280  0.00  0.00     0.000 C
ATOM     17  C3  ASG B   2      55.137  96.749   7.2120  0.00  0.00     0.000 C
ATOM     18  C4  ASG B   2      55.908  96.333   5.9740  0.00  0.00     0.000 C
ATOM     19  C5  ASG B   2      54.933  95.767   4.9460  0.00  0.00     0.000 C
ATOM     20  O5  ASG B   2      54.154  94.708   5.5360  0.00  0.00     0.000 O
ATOM     21   C  ASG B   2      55.621  95.178   3.7570  0.00  0.00     0.000 C
ATOM     22   O  ASG B   2      54.681  94.494   2.9660  0.00  0.00     0.000 O
ATOM     24  HD  ASG B   2      54.219  94.044   2.3880  0.00  0.00     0.000 HD
BRANCH 16 26
ATOM     24   N  ASG B   2      54.756  95.197   9.0470  0.00  0.00     0.000 N
ATOM     26  HD  ASG B   2      55.274  95.589   8.4740  0.00  0.00     0.000 HD
ATOM     26   C  ASG B   2      54.216  95.659  10.1900  0.00  0.00     0.000 C
ATOM     27   C  ASG B   2      54.571  94.915  11.4310  0.00  0.00     0.000 C
ATOM     28   O  ASG B   2      53.475  96.635  10.2030  0.00  0.00     0.000 OA
ENDBRANCH 16 26
BRANCH 18 29
ATOM     29   O  ASG B   2      56.906  95.348   6.4150  0.00  0.00     0.000 O
ATOM     30   O  ASG B   2      58.581  95.992   4.7350  0.00  0.00     0.000 OA
ATOM     31   O  ASG B   2      58.889  96.626   7.0580  0.00  0.00     0.000 OA
ATOM     32   O  ASG B   2      59.087  94.308   6.4000  0.00  0.00     0.000 OA
ATOM     33   S  ASG B   2      58.466  95.605   6.1280  0.00  0.00     0.000 S
ENDBRANCH 18 29
BRANCH 15 34
ATOM     34  O4  ASG B   3      52.525  94.043   6.9950  0.00  0.00     0.000 O
BRANCH 34 38
ATOM     35  C1  GCT B   3      50.102  96.045   9.5410  0.00  0.00     0.000 C
ATOM     36  C2  GCT B   3      50.157  94.554   9.7890  0.00  0.00     0.000 C
ATOM     37  C3  GCT B   3      51.377  93.938   9.1180  0.00  0.00     0.000 C
ATOM     38  C4  GCT B   3      51.308  94.199   7.6090  0.00  0.00     0.000 C
ATOM     39  C5  GCT B   3      50.654  95.562   7.2850  0.00  0.00     0.000 C
ATOM     40  O5  GCT B   3      50.885  96.398   8.4060  0.00  0.00     0.000 O
ATOM     41   O  GCT B   3      50.229  94.381  11.1970  0.00  0.00     0.000 O
ATOM     43  HD  GCT B   3      49.631  94.439  11.8210  0.00  0.00     0.000 HD
ATOM     43   O  GCT B   3      51.420  92.532   9.4430  0.00  0.00     0.000 O
ATOM     45  HD  GCT B   3      50.822  92.590  10.0660  0.00  0.00     0.000 HD
BRANCH 39 45
ATOM     45   C  GCT B   3      49.182  95.589   6.9370  0.00  0.00     0.000 C
ATOM     46   O  GCT B   3      48.620  96.698   6.6720  0.00  0.00     0.000 OA
ATOM     47   O  GCT B   3      48.574  94.506   6.9100  0.00  0.00     0.000 OA
ENDBRANCH 39 45
BRANCH 35 48
ATOM     48  O3  ASG B   4      48.921  96.502   9.8980  0.00  0.00     0.000 O
BRANCH 48 51
ATOM     49  C1  ASG B   4      47.622  98.926  12.3740  0.00  0.00     0.000 C
ATOM     50  C2  ASG B   4      47.650  97.767  11.3630  0.00  0.00     0.000 C
ATOM     51  C3  ASG B   4      49.082  97.402  10.9810  0.00  0.00     0.000 C
ATOM     52  C4  ASG B   4      49.875  98.633  10.5750  0.00  0.00     0.000 C
ATOM     53  C5  ASG B   4      49.776  99.655  11.7040  0.00  0.00     0.000 C
ATOM     54  O5  ASG B   4      48.394 100.016  11.8950  0.00  0.00     0.000 O
BRANCH 50 57
ATOM     55   N  ASG B   4      47.055  96.462  11.5310  0.00  0.00     0.000 N
ATOM     57  HD  ASG B   4      46.259  96.725  11.7460  0.00  0.00     0.000 HD
ATOM     57   O  ASG B   4      44.974  97.135  11.0500  0.00  0.00     0.000 OA
ATOM     58   C  ASG B   4      45.769  96.223  11.2570  0.00  0.00     0.000 C
ATOM     59   C  ASG B   4      45.359  94.783  11.2750  0.00  0.00     0.000 C
ENDBRANCH 50 57
BRANCH 52 60
ATOM     60   O  ASG B   4      49.235  99.055   9.3020  0.00  0.00     0.000 O
ATOM     61   O  ASG B   4      51.417  99.668   8.2580  0.00  0.00     0.000 OA
ATOM     62   O  ASG B   4      49.419  99.756   6.9660  0.00  0.00     0.000 OA
ATOM     63   O  ASG B   4      49.678 101.249   8.8160  0.00  0.00     0.000 OA
ATOM     64   S  ASG B   4      50.021  99.950   8.2300  0.00  0.00     0.000 S
ENDBRANCH 52 60
ATOM     65   O  ASG B   4      50.703 101.668  12.6890  0.00  0.00     0.000 O
ATOM     67  HD  ASG B   4      49.907 101.997  12.7750  0.00  0.00     0.000 HD
ATOM     67   O  ASG B   4      50.703 101.668  12.6890  0.00  0.00     0.000 O
ATOM     69  HD  ASG B   4      49.907 101.997  12.7750  0.00  0.00     0.000 HD
ENDBRANCH 48 51
ENDBRANCH 35 48
ENDBRANCH 34 38
ENDBRANCH 15 34
ENDBRANCH 14 17
ENDBRANCH 1 14
TORSDOF 12
ENDMDL
MODEL 86
REMARK VINA RESULT:      -0.8     75.478     80.455
ROOT
ATOM      1  C1  GAD B   1      70.635  88.840  78.9270  0.00  0.00     0.000 C
ATOM      2  C2  GAD B   1      69.399  88.765  79.8290  0.00  0.00     0.000 C
ATOM      3  C3  GAD B   1      68.479  89.962  79.5630  0.00  0.00     0.000 C
ATOM      4  C4  GAD B   1      69.208  91.245  79.1550  0.00  0.00     0.000 C
ATOM      5  C5  GAD B   1      70.527  91.316  78.8870  0.00  0.00     0.000 C
ATOM      6  O5  GAD B   1      71.297  90.109  79.0440  0.00  0.00     0.000 O
ATOM      7   O  GAD B   1      68.708  87.469  79.6870  0.00  0.00     0.000 O
ATOM      9  HD  GAD B   1      69.463  87.267  79.3130  0.00  0.00     0.000 HD
ATOM      9   O  GAD B   1      67.697  90.300  80.7300  0.00  0.00     0.000 O
ATOM     11  HD  GAD B   1      68.451  90.098  80.3560  0.00  0.00     0.000 HD
ENDROOT
BRANCH 5 11
ATOM     11   C  GAD B   1      71.222  92.526  78.3890  0.00  0.00     0.000 C
ATOM     12   O  GAD B   1      71.884  92.407  77.3110  0.00  0.00     0.000 OA
ATOM     13   O  GAD B   1      71.207  93.611  79.0810  0.00  0.00     0.000 OA
ENDBRANCH 5 11
BRANCH 1 14
ATOM     14  O3  ASG B   2      71.795  88.208  79.1860  0.00  0.00     0.000 O
BRANCH 14 17
ATOM     15  C1  ASG B   2      74.670  87.882  81.6160  0.00  0.00     0.000 C
ATOM     16  C2  ASG B   2      73.993  88.096  80.2550  0.00  0.00     0.000 C
ATOM     17  C3  ASG B   2      72.474  88.011  80.4310  0.00  0.00     0.000 C
ATOM     18  C4  ASG B   2      72.095  86.661  81.0110  0.00  0.00     0.000 C
ATOM     19  C5  ASG B   2      72.882  86.432  82.2970  0.00  0.00     0.000 C
ATOM     20  O5  ASG B   2      74.293  86.587  82.0460  0.00  0.00     0.000 O
ATOM     21   C  ASG B   2      72.698  85.056  82.8520  0.00  0.00     0.000 C
ATOM     22   O  ASG B   2      73.609  84.851  83.9030  0.00  0.00     0.000 O
ATOM     24  HD  ASG B   2      74.106  84.589  84.5620  0.00  0.00     0.000 HD
BRANCH 16 26
ATOM     24   N  ASG B   2      74.312  88.239  78.8530  0.00  0.00     0.000 N
ATOM     26  HD  ASG B   2      73.582  87.861  79.1250  0.00  0.00     0.000 HD
ATOM     26   C  ASG B   2      74.502  89.423  78.2410  0.00  0.00     0.000 C
ATOM     27   C  ASG B   2      75.151  89.372  76.9010  0.00  0.00     0.000 C
ATOM     28   O  ASG B   2      74.160  90.479  78.7600  0.00  0.00     0.000 OA
ENDBRANCH 16 26
BRANCH 18 29
ATOM     29   O  ASG B   2      72.394  85.664  79.9740  0.00  0.00     0.000 O
ATOM     30   O  ASG B   2      70.563  84.154  80.6140  0.00  0.00     0.000 OA
ATOM     31   O  ASG B   2      70.382  85.488  78.5950  0.00  0.00     0.000 OA
ATOM     32   O  ASG B   2      71.959  83.659  78.6980  0.00  0.00     0.000 OA
ATOM     33   S  ASG B   2      71.233  84.687  79.4430  0.00  0.00     0.000 S
ENDBRANCH 18 29
BRANCH 15 34
ATOM     34  O4  ASG B   3      76.067  87.946  81.5650  0.00  0.00     0.000 O
BRANCH 34 38
ATOM     35  C1  GCT B   3      76.423  91.933  80.9810  0.00  0.00     0.000 C
ATOM     36  C2  GCT B   3      77.622  91.134  80.5200  0.00  0.00     0.000 C
ATOM     37  C3  GCT B   3      77.264  89.663  80.3590  0.00  0.00     0.000 C
ATOM     38  C4  GCT B   3      76.774  89.113  81.7040  0.00  0.00     0.000 C
ATOM     39  C5  GCT B   3      76.005  90.177  82.5200  0.00  0.00     0.000 C
ATOM     40  O5  GCT B   3      75.451  91.084  81.5820  0.00  0.00     0.000 O
ATOM     41   O  GCT B   3      78.018  91.684  79.2720  0.00  0.00     0.000 O
ATOM     43  HD  GCT B   3      78.450  92.406  79.0670  0.00  0.00     0.000 HD
ATOM     43   O  GCT B   3      78.419  88.961  79.8530  0.00  0.00     0.000 O
ATOM     45  HD  GCT B   3      78.851  89.684  79.6480  0.00  0.00     0.000 HD
BRANCH 39 45
ATOM     45   C  GCT B   3      76.755  90.951  83.5810  0.00  0.00     0.000 C
ATOM     46   O  GCT B   3      76.145  91.835  84.2620  0.00  0.00     0.000 OA
ATOM     47   O  GCT B   3      77.954  90.678  83.7570  0.00  0.00     0.000 OA
ENDBRANCH 39 45
BRANCH 35 48
ATOM     48  O3  ASG B   4      76.817  93.129  81.3620  0.00  0.00     0.000 O
BRANCH 48 51
ATOM     49  C1  ASG B   4      76.179  96.620  80.3170  0.00  0.00     0.000 C
ATOM     50  C2  ASG B   4      76.862  95.412  80.9790  0.00  0.00     0.000 C
ATOM     51  C3  ASG B   4      76.246  94.099  80.5020  0.00  0.00     0.000 C
ATOM     52  C4  ASG B   4      74.731  94.129  80.6160  0.00  0.00     0.000 C
ATOM     53  C5  ASG B   4      74.222  95.360  79.8710  0.00  0.00     0.000 C
ATOM     54  O5  ASG B   4      74.773  96.543  80.4820  0.00  0.00     0.000 O
BRANCH 50 57
ATOM     55   N  ASG B   4      78.271  95.095  80.9510  0.00  0.00     0.000 N
ATOM     57  HD  ASG B   4      78.567  95.862  81.2230  0.00  0.00     0.000 HD
ATOM     57   O  ASG B   4      78.833  96.573  82.5370  0.00  0.00     0.000 OA
ATOM     58   C  ASG B   4      79.140  95.631  81.8130  0.00  0.00     0.000 C
ATOM     59   C  ASG B   4      80.518  95.042  81.7950  0.00  0.00     0.000 C
ENDBRANCH 50 57
BRANCH 52 60
ATOM     60   O  ASG B   4      74.493  94.153  82.0830  0.00  0.00     0.000 O
ATOM     61   O  ASG B   4      72.531  92.619  81.9210  0.00  0.00     0.000 OA
ATOM     62   O  ASG B   4      73.334  93.294  84.0580  0.00  0.00     0.000 OA
ATOM     63   O  ASG B   4      72.402  94.936  82.5900  0.00  0.00     0.000 OA
ATOM     64   S  ASG B   4      73.105  93.656  82.7110  0.00  0.00     0.000 S
ENDBRANCH 52 60
ATOM     65   O  ASG B   4      72.310  96.458  78.8630  0.00  0.00     0.000 O
ATOM     67  HD  ASG B   4      72.527  97.201  79.2530  0.00  0.00     0.000 HD
ATOM     67   O  ASG B   4      72.310  96.458  78.8630  0.00  0.00     0.000 O
ATOM     69  HD  ASG B   4      72.527  97.201  79.2530  0.00  0.00     0.000 HD
ENDBRANCH 48 51
ENDBRANCH 35 48
ENDBRANCH 34 38
ENDBRANCH 15 34
ENDBRANCH 14 17
ENDBRANCH 1 14
TORSDOF 12
ENDMDL
MODEL 87
REMARK VINA RESULT:      -0.8     84.423     89.054
ROOT
ATOM      1  C1  GAD B   1      79.034 102.529  89.6000  0.00  0.00     0.000 C
ATOM      2  C2  GAD B   1      78.843 102.758  91.1020  0.00  0.00     0.000 C
ATOM      3  C3  GAD B   1      79.694 101.761  91.8990  0.00  0.00     0.000 C
ATOM      4  C4  GAD B   1      79.880 100.401  91.2210  0.00  0.00     0.000 C
ATOM      5  C5  GAD B   1      79.482 100.119  89.9640  0.00  0.00     0.000 C
ATOM      6  O5  GAD B   1      78.797 101.159  89.2410  0.00  0.00     0.000 O
ATOM      7   O  GAD B   1      79.112 104.161  91.4710  0.00  0.00     0.000 O
ATOM      9  HD  GAD B   1      79.040 104.253  90.6130  0.00  0.00     0.000 HD
ATOM      9   O  GAD B   1      79.116 101.487  93.1950  0.00  0.00     0.000 O
ATOM     11  HD  GAD B   1      79.043 101.579  92.3370  0.00  0.00     0.000 HD
ENDROOT
BRANCH 5 11
ATOM     11   C  GAD B   1      79.751  98.842  89.2610  0.00  0.00     0.000 C
ATOM     12   O  GAD B   1      80.342  98.917  88.1390  0.00  0.00     0.000 OA
ATOM     13   O  GAD B   1      79.320  97.733  89.7490  0.00  0.00     0.000 OA
ENDBRANCH 5 11
BRANCH 1 14
ATOM     14  O3  ASG B   2      78.156 102.929  88.6610  0.00  0.00     0.000 O
BRANCH 14 17
ATOM     15  C1  ASG B   2      74.619 102.583  87.3770  0.00  0.00     0.000 C
ATOM     16  C2  ASG B   2      76.152 102.583  87.3000  0.00  0.00     0.000 C
ATOM     17  C3  ASG B   2      76.724 102.920  88.6800  0.00  0.00     0.000 C
ATOM     18  C4  ASG B   2      76.211 104.273  89.1370  0.00  0.00     0.000 C
ATOM     19  C5  ASG B   2      74.687 104.273  89.0800  0.00  0.00     0.000 C
ATOM     20  O5  ASG B   2      74.242 103.891  87.7640  0.00  0.00     0.000 O
ATOM     21   C  ASG B   2      74.097 105.619  89.3550  0.00  0.00     0.000 C
ATOM     22   O  ASG B   2      72.719 105.590  89.0770  0.00  0.00     0.000 O
ATOM     24  HD  ASG B   2      71.871 105.716  88.9500  0.00  0.00     0.000 HD
BRANCH 16 26
ATOM     24   N  ASG B   2      77.228 102.482  86.3400  0.00  0.00     0.000 N
ATOM     26  HD  ASG B   2      77.292 102.963  87.0580  0.00  0.00     0.000 HD
ATOM     26   C  ASG B   2      77.836 101.327  86.0100  0.00  0.00     0.000 C
ATOM     27   C  ASG B   2      78.670 101.355  84.7760  0.00  0.00     0.000 C
ATOM     28   O  ASG B   2      77.708 100.315  86.6880  0.00  0.00     0.000 OA
ENDBRANCH 16 26
BRANCH 18 29
ATOM     29   O  ASG B   2      76.815 105.271  88.2430  0.00  0.00     0.000 O
ATOM     30   O  ASG B   2      76.930 107.031  89.9560  0.00  0.00     0.000 OA
ATOM     31   O  ASG B   2      78.954 105.888  89.2550  0.00  0.00     0.000 OA
ATOM     32   O  ASG B   2      77.833 107.403  87.7400  0.00  0.00     0.000 OA
ATOM     33   S  ASG B   2      77.693 106.469  88.8570  0.00  0.00     0.000 S
ENDBRANCH 18 29
BRANCH 15 34
ATOM     34  O4  ASG B   3      73.995 102.279  86.1620  0.00  0.00     0.000 O
BRANCH 34 38
ATOM     35  C1  GCT B   3      74.908  98.340  86.0340  0.00  0.00     0.000 C
ATOM     36  C2  GCT B   3      74.607  98.947  84.6810  0.00  0.00     0.000 C
ATOM     37  C3  GCT B   3      74.706 100.465  84.7340  0.00  0.00     0.000 C
ATOM     38  C4  GCT B   3      73.703 100.999  85.7630  0.00  0.00     0.000 C
ATOM     39  C5  GCT B   3      73.528 100.034  86.9570  0.00  0.00     0.000 C
ATOM     40  O5  GCT B   3      74.737  99.303  87.0680  0.00  0.00     0.000 O
ATOM     41   O  GCT B   3      75.572  98.422  83.7800  0.00  0.00     0.000 O
ATOM     43  HD  GCT B   3      75.646  97.651  83.3920  0.00  0.00     0.000 HD
ATOM     43   O  GCT B   3      74.480 100.987  83.4070  0.00  0.00     0.000 O
ATOM     45  HD  GCT B   3      74.553 100.216  83.0200  0.00  0.00     0.000 HD
BRANCH 39 45
ATOM     45   C  GCT B   3      72.361  99.070  86.9380  0.00  0.00     0.000 C
ATOM     46   O  GCT B   3      72.199  98.262  87.9060  0.00  0.00     0.000 OA
ATOM     47   O  GCT B   3      71.589  99.117  85.9670  0.00  0.00     0.000 OA
ENDBRANCH 39 45
BRANCH 35 48
ATOM     48  O3  ASG B   4      74.562  97.071  86.0280  0.00  0.00     0.000 O
BRANCH 48 51
ATOM     49  C1  ASG B   4      76.283  93.824  86.4620  0.00  0.00     0.000 C
ATOM     50  C2  ASG B   4      75.204  94.846  86.0670  0.00  0.00     0.000 C
ATOM     51  C3  ASG B   4      75.723  96.276  86.2010  0.00  0.00     0.000 C
ATOM     52  C4  ASG B   4      76.363  96.504  87.5600  0.00  0.00     0.000 C
ATOM     53  C5  ASG B   4      77.432  95.434  87.7670  0.00  0.00     0.000 C
ATOM     54  O5  ASG B   4      76.810  94.134  87.7410  0.00  0.00     0.000 O
BRANCH 50 57
ATOM     55   N  ASG B   4      74.499  94.913  84.8070  0.00  0.00     0.000 N
ATOM     57  HD  ASG B   4      74.233  94.089  84.7810  0.00  0.00     0.000 HD
ATOM     57   O  ASG B   4      73.075  93.256  85.2960  0.00  0.00     0.000 OA
ATOM     58   C  ASG B   4      73.413  94.176  84.5580  0.00  0.00     0.000 C
ATOM     59   C  ASG B   4      72.675  94.515  83.2990  0.00  0.00     0.000 C
ENDBRANCH 50 57
BRANCH 52 60
ATOM     60   O  ASG B   4      75.217  96.422  88.5020  0.00  0.00     0.000 O
ATOM     61   O  ASG B   4      76.084  98.283  89.9210  0.00  0.00     0.000 OA
ATOM     62   O  ASG B   4      73.950  97.334  90.3850  0.00  0.00     0.000 OA
ATOM     63   O  ASG B   4      75.907  95.984  90.6420  0.00  0.00     0.000 OA
ATOM     64   S  ASG B   4      75.275  97.111  89.9490  0.00  0.00     0.000 S
ENDBRANCH 52 60
ATOM     65   O  ASG B   4      79.389  94.758  89.0300  0.00  0.00     0.000 O
ATOM     67  HD  ASG B   4      79.055  93.964  89.1270  0.00  0.00     0.000 HD
ATOM     67   O  ASG B   4      79.389  94.758  89.0300  0.00  0.00     0.000 O
ATOM     69  HD  ASG B   4      79.055  93.964  89.1270  0.00  0.00     0.000 HD
ENDBRANCH 48 51
ENDBRANCH 35 48
ENDBRANCH 34 38
ENDBRANCH 15 34
ENDBRANCH 14 17
ENDBRANCH 1 14
TORSDOF 12
ENDMDL
MODEL 88
REMARK VINA RESULT:      -0.8     84.672     89.377
ROOT
ATOM      1  C1  GAD B   1      74.104  71.088 106.1900  0.00  0.00     0.000 C
ATOM      2  C2  GAD B   1      73.918  71.062 107.7100  0.00  0.00     0.000 C
ATOM      3  C3  GAD B   1      72.463  70.726 108.0570  0.00  0.00     0.000 C
ATOM      4  C4  GAD B   1      71.435  71.232 107.0420  0.00  0.00     0.000 C
ATOM      5  C5  GAD B   1      71.751  71.788 105.8550  0.00  0.00     0.000 C
ATOM      6  O5  GAD B   1      73.150  71.953 105.5570  0.00  0.00     0.000 O
ATOM      7   O  GAD B   1      74.885  70.152 108.3550  0.00  0.00     0.000 O
ATOM      9  HD  GAD B   1      75.257  70.223 107.5760  0.00  0.00     0.000 HD
ATOM      9   O  GAD B   1      72.078  71.289 109.3320  0.00  0.00     0.000 O
ATOM     11  HD  GAD B   1      72.450  71.360 108.5530  0.00  0.00     0.000 HD
ENDROOT
BRANCH 5 11
ATOM     11   C  GAD B   1      70.766  72.183 104.8210  0.00  0.00     0.000 C
ATOM     12   O  GAD B   1      70.922  71.691 103.6600  0.00  0.00     0.000 OA
ATOM     13   O  GAD B   1      69.856  73.050 105.0930  0.00  0.00     0.000 OA
ENDBRANCH 5 11
BRANCH 1 14
ATOM     14  O3  ASG B   2      75.107  71.733 105.5660  0.00  0.00     0.000 O
BRANCH 14 17
ATOM     15  C1  ASG B   2      76.714  75.095 104.9400  0.00  0.00     0.000 C
ATOM     16  C2  ASG B   2      76.085  73.744 104.5730  0.00  0.00     0.000 C
ATOM     17  C3  ASG B   2      75.704  73.002 105.8570  0.00  0.00     0.000 C
ATOM     18  C4  ASG B   2      76.933  72.801 106.7230  0.00  0.00     0.000 C
ATOM     19  C5  ASG B   2      77.600  74.152 106.9630  0.00  0.00     0.000 C
ATOM     20  O5  ASG B   2      77.869  74.799 105.7030  0.00  0.00     0.000 O
ATOM     21   C  ASG B   2      78.912  74.033 107.6690  0.00  0.00     0.000 C
ATOM     22   O  ASG B   2      79.560  75.281 107.6630  0.00  0.00     0.000 O
ATOM     24  HD  ASG B   2      80.067  75.979 107.7360  0.00  0.00     0.000 HD
BRANCH 16 26
ATOM     24   N  ASG B   2      75.835  72.896 103.4300  0.00  0.00     0.000 N
ATOM     26  HD  ASG B   2      75.997  72.575 104.2170  0.00  0.00     0.000 HD
ATOM     26   C  ASG B   2      74.695  72.914 102.7140  0.00  0.00     0.000 C
ATOM     27   C  ASG B   2      74.743  72.235 101.3880  0.00  0.00     0.000 C
ATOM     28   O  ASG B   2      73.680  73.457 103.1330  0.00  0.00     0.000 OA
ENDBRANCH 16 26
BRANCH 18 29
ATOM     29   O  ASG B   2      77.799  71.857 106.0050  0.00  0.00     0.000 O
ATOM     30   O  ASG B   2      78.722  70.839 108.0440  0.00  0.00     0.000 OA
ATOM     31   O  ASG B   2      77.103  69.621 106.7070  0.00  0.00     0.000 OA
ATOM     32   O  ASG B   2      79.334  69.997 105.8580  0.00  0.00     0.000 OA
ATOM     33   S  ASG B   2      78.256  70.490 106.7150  0.00  0.00     0.000 S
ENDBRANCH 18 29
BRANCH 15 34
ATOM     34  O4  ASG B   3      77.095  75.858 103.8310  0.00  0.00     0.000 O
BRANCH 34 38
ATOM     35  C1  GCT B   3      73.394  76.886 102.5620  0.00  0.00     0.000 C
ATOM     36  C2  GCT B   3      74.454  76.949 101.4840  0.00  0.00     0.000 C
ATOM     37  C3  GCT B   3      75.687  76.155 101.8900  0.00  0.00     0.000 C
ATOM     38  C4  GCT B   3      76.253  76.734 103.1930  0.00  0.00     0.000 C
ATOM     39  C5  GCT B   3      75.139  77.267 104.1230  0.00  0.00     0.000 C
ATOM     40  O5  GCT B   3      73.968  76.530 103.8150  0.00  0.00     0.000 O
ATOM     41   O  GCT B   3      73.873  76.392 100.3140  0.00  0.00     0.000 O
ATOM     43  HD  GCT B   3      73.305  76.707  99.7410  0.00  0.00     0.000 HD
ATOM     43   O  GCT B   3      76.635  76.190 100.8030  0.00  0.00     0.000 O
ATOM     45  HD  GCT B   3      76.067  76.505 100.2300  0.00  0.00     0.000 HD
BRANCH 39 45
ATOM     45   C  GCT B   3      74.822  78.746 104.0910  0.00  0.00     0.000 C
ATOM     46   O  GCT B   3      73.907  79.208 104.8420  0.00  0.00     0.000 OA
ATOM     47   O  GCT B   3      75.490  79.464 103.3280  0.00  0.00     0.000 OA
ENDBRANCH 39 45
BRANCH 35 48
ATOM     48  O3  ASG B   4      72.463  77.781 102.3100  0.00  0.00     0.000 O
BRANCH 48 51
ATOM     49  C1  ASG B   4      68.834  77.740 101.5900  0.00  0.00     0.000 C
ATOM     50  C2  ASG B   4      70.285  78.242 101.6740  0.00  0.00     0.000 C
ATOM     51  C3  ASG B   4      71.239  77.113 102.0540  0.00  0.00     0.000 C
ATOM     52  C4  ASG B   4      70.742  76.362 103.2790  0.00  0.00     0.000 C
ATOM     53  C5  ASG B   4      69.313  75.901 103.0060  0.00  0.00     0.000 C
ATOM     54  O5  ASG B   4      68.480  77.055 102.7800  0.00  0.00     0.000 O
BRANCH 50 57
ATOM     55   N  ASG B   4      71.029  78.908 100.6300  0.00  0.00     0.000 N
ATOM     57  HD  ASG B   4      70.449  79.526 100.4520  0.00  0.00     0.000 HD
ATOM     57   O  ASG B   4      70.075  80.907 100.9580  0.00  0.00     0.000 OA
ATOM     58   C  ASG B   4      70.941  80.225 100.4200  0.00  0.00     0.000 C
ATOM     59   C  ASG B   4      71.931  80.793  99.4500  0.00  0.00     0.000 C
ENDBRANCH 50 57
BRANCH 52 60
ATOM     60   O  ASG B   4      70.871  77.358 104.3740  0.00  0.00     0.000 O
ATOM     61   O  ASG B   4      71.649  75.646 106.0150  0.00  0.00     0.000 OA
ATOM     62   O  ASG B   4      71.608  77.945 106.6310  0.00  0.00     0.000 OA
ATOM     63   O  ASG B   4      69.547  76.826 106.1650  0.00  0.00     0.000 OA
ATOM     64   S  ASG B   4      70.988  76.903 105.9060  0.00  0.00     0.000 S
ENDBRANCH 52 60
ATOM     65   O  ASG B   4      67.516  74.411 103.6620  0.00  0.00     0.000 O
ATOM     67  HD  ASG B   4      66.953  75.068 103.6230  0.00  0.00     0.000 HD
ATOM     67   O  ASG B   4      67.516  74.411 103.6620  0.00  0.00     0.000 O
ATOM     69  HD  ASG B   4      66.953  75.068 103.6230  0.00  0.00     0.000 HD
ENDBRANCH 48 51
ENDBRANCH 35 48
ENDBRANCH 34 38
ENDBRANCH 15 34
ENDBRANCH 14 17
ENDBRANCH 1 14
TORSDOF 12
ENDMDL
MODEL 89
REMARK VINA RESULT:      -0.8     86.306     91.691
ROOT
ATOM      1  C1  GAD B   1      84.038  69.442 101.7580  0.00  0.00     0.000 C
ATOM      2  C2  GAD B   1      85.019  68.696 102.6670  0.00  0.00     0.000 C
ATOM      3  C3  GAD B   1      84.981  67.193 102.3630  0.00  0.00     0.000 C
ATOM      4  C4  GAD B   1      83.616  66.672 101.9070  0.00  0.00     0.000 C
ATOM      5  C5  GAD B   1      82.556  67.459 101.6320  0.00  0.00     0.000 C
ATOM      6  O5  GAD B   1      82.720  68.876 101.8280  0.00  0.00     0.000 O
ATOM      7   O  GAD B   1      86.378  69.264 102.5740  0.00  0.00     0.000 O
ATOM      9  HD  GAD B   1      85.931  69.907 102.2040  0.00  0.00     0.000 HD
ATOM      9   O  GAD B   1      85.343  66.408 103.5210  0.00  0.00     0.000 O
ATOM     11  HD  GAD B   1      84.897  67.051 103.1510  0.00  0.00     0.000 HD
ENDROOT
BRANCH 5 11
ATOM     11   C  GAD B   1      81.265  66.975 101.0890  0.00  0.00     0.000 C
ATOM     12   O  GAD B   1      81.320  66.117 100.1540  0.00  0.00     0.000 OA
ATOM     13   O  GAD B   1      80.159  67.480 101.5070  0.00  0.00     0.000 OA
ENDBRANCH 5 11
BRANCH 1 14
ATOM     14  O3  ASG B   2      83.533  70.659 102.0350  0.00  0.00     0.000 O
BRANCH 14 17
ATOM     15  C1  ASG B   2      80.304  72.264 103.1640  0.00  0.00     0.000 C
ATOM     16  C2  ASG B   2      81.428  71.897 102.1840  0.00  0.00     0.000 C
ATOM     17  C3  ASG B   2      82.462  71.031 102.9100  0.00  0.00     0.000 C
ATOM     18  C4  ASG B   2      83.018  71.780 104.1060  0.00  0.00     0.000 C
ATOM     19  C5  ASG B   2      81.861  72.236 104.9900  0.00  0.00     0.000 C
ATOM     20  O5  ASG B   2      80.914  72.994 104.2120  0.00  0.00     0.000 O
ATOM     21   C  ASG B   2      82.303  73.126 106.1080  0.00  0.00     0.000 C
ATOM     22   O  ASG B   2      81.172  73.672 106.7420  0.00  0.00     0.000 O
ATOM     24  HD  ASG B   2      80.576  74.075 107.2240  0.00  0.00     0.000 HD
BRANCH 16 26
ATOM     24   N  ASG B   2      81.891  72.186 100.8470  0.00  0.00     0.000 N
ATOM     26  HD  ASG B   2      82.436  72.007 101.4960  0.00  0.00     0.000 HD
ATOM     26   C  ASG B   2      81.561  71.460  99.7630  0.00  0.00     0.000 C
ATOM     27   C  ASG B   2      81.840  72.091  98.4420  0.00  0.00     0.000 C
ATOM     28   O  ASG B   2      81.060  70.347  99.8610  0.00  0.00     0.000 OA
ENDBRANCH 16 26
BRANCH 18 29
ATOM     29   O  ASG B   2      83.801  72.901 103.5690  0.00  0.00     0.000 O
ATOM     30   O  ASG B   2      85.470  72.864 105.3720  0.00  0.00     0.000 OA
ATOM     31   O  ASG B   2      86.051  72.033 103.1670  0.00  0.00     0.000 OA
ATOM     32   O  ASG B   2      85.696  74.399 103.5130  0.00  0.00     0.000 OA
ATOM     33   S  ASG B   2      85.359  73.040 103.9360  0.00  0.00     0.000 S
ENDBRANCH 18 29
BRANCH 15 34
ATOM     34  O4  ASG B   3      79.300  73.055 102.5950  0.00  0.00     0.000 O
BRANCH 34 38
ATOM     35  C1  GCT B   3      77.501  70.153 100.4250  0.00  0.00     0.000 C
ATOM     36  C2  GCT B   3      77.273  71.551  99.8930  0.00  0.00     0.000 C
ATOM     37  C3  GCT B   3      78.297  72.522 100.4630  0.00  0.00     0.000 C
ATOM     38  C4  GCT B   3      78.182  72.536 101.9920  0.00  0.00     0.000 C
ATOM     39  C5  GCT B   3      77.794  71.151 102.5570  0.00  0.00     0.000 C
ATOM     40  O5  GCT B   3      78.262  70.189 101.6280  0.00  0.00     0.000 O
ATOM     41   O  GCT B   3      77.402  71.471  98.4810  0.00  0.00     0.000 O
ATOM     43  HD  GCT B   3      76.871  71.174  97.8650  0.00  0.00     0.000 HD
ATOM     43   O  GCT B   3      78.079  73.820  99.8710  0.00  0.00     0.000 O
ATOM     45  HD  GCT B   3      77.548  73.523  99.2550  0.00  0.00     0.000 HD
BRANCH 39 45
ATOM     45   C  GCT B   3      76.337  70.882 102.8650  0.00  0.00     0.000 C
ATOM     46   O  GCT B   3      75.463  71.758 102.5750  0.00  0.00     0.000 OA
ATOM     47   O  GCT B   3      76.048  69.791 103.3840  0.00  0.00     0.000 OA
ENDBRANCH 39 45
BRANCH 35 48
ATOM     48  O3  ASG B   4      76.461  69.401 100.1330  0.00  0.00     0.000 O
BRANCH 48 51
ATOM     49  C1  ASG B   4      77.503  65.977  99.1960  0.00  0.00     0.000 C
ATOM     50  C2  ASG B   4      77.331  67.504  99.1320  0.00  0.00     0.000 C
ATOM     51  C3  ASG B   4      76.767  68.052 100.4400  0.00  0.00     0.000 C
ATOM     52  C4  ASG B   4      75.531  67.280 100.8730  0.00  0.00     0.000 C
ATOM     53  C5  ASG B   4      75.892  65.798 100.9260  0.00  0.00     0.000 C
ATOM     54  O5  ASG B   4      76.294  65.363  99.6120  0.00  0.00     0.000 O
BRANCH 50 57
ATOM     55   N  ASG B   4      78.716  67.496  98.7200  0.00  0.00     0.000 N
ATOM     57  HD  ASG B   4      78.584  67.347  97.8770  0.00  0.00     0.000 HD
ATOM     57   O  ASG B   4      78.295  68.144  96.6180  0.00  0.00     0.000 OA
ATOM     58   C  ASG B   4      79.104  67.921  97.5130  0.00  0.00     0.000 C
ATOM     59   C  ASG B   4      80.583  68.052  97.3170  0.00  0.00     0.000 C
ENDBRANCH 50 57
BRANCH 52 60
ATOM     60   O  ASG B   4      74.522  67.634  99.8420  0.00  0.00     0.000 O
ATOM     61   O  ASG B   4      73.248  69.102 101.4080  0.00  0.00     0.000 OA
ATOM     62   O  ASG B   4      72.615  68.983  99.1160  0.00  0.00     0.000 OA
ATOM     63   O  ASG B   4      72.407  67.034 100.4850  0.00  0.00     0.000 OA
ATOM     64   S  ASG B   4      73.117  68.294 100.2420  0.00  0.00     0.000 S
ENDBRANCH 52 60
ATOM     65   O  ASG B   4      75.273  63.601 101.7450  0.00  0.00     0.000 O
ATOM     67  HD  ASG B   4      75.422  63.263 100.9610  0.00  0.00     0.000 HD
ATOM     67   O  ASG B   4      75.273  63.601 101.7450  0.00  0.00     0.000 O
ATOM     69  HD  ASG B   4      75.422  63.263 100.9610  0.00  0.00     0.000 HD
ENDBRANCH 48 51
ENDBRANCH 35 48
ENDBRANCH 34 38
ENDBRANCH 15 34
ENDBRANCH 14 17
ENDBRANCH 1 14
TORSDOF 12
ENDMDL
MODEL 90
REMARK VINA RESULT:      -0.8     86.385     90.837
ROOT
ATOM      1  C1  GAD B   1      77.142  11.704  78.4280  0.00  0.00     0.000 C
ATOM      2  C2  GAD B   1      78.663  11.546  78.3300  0.00  0.00     0.000 C
ATOM      3  C3  GAD B   1      79.128  11.810  76.8930  0.00  0.00     0.000 C
ATOM      4  C4  GAD B   1      78.118  11.407  75.8140  0.00  0.00     0.000 C
ATOM      5  C5  GAD B   1      76.858  11.002  76.0680  0.00  0.00     0.000 C
ATOM      6  O5  GAD B   1      76.465  10.900  77.4500  0.00  0.00     0.000 O
ATOM      7   O  GAD B   1      79.356  12.391  79.3200  0.00  0.00     0.000 O
ATOM      9  HD  GAD B   1      78.555  12.420  79.6480  0.00  0.00     0.000 HD
ATOM      9   O  GAD B   1      80.346  11.093  76.5890  0.00  0.00     0.000 O
ATOM     11  HD  GAD B   1      79.545  11.121  76.9170  0.00  0.00     0.000 HD
ENDROOT
BRANCH 5 11
ATOM     11   C  GAD B   1      75.840  10.712  75.0310  0.00  0.00     0.000 C
ATOM     12   O  GAD B   1      75.733  11.549  74.0810  0.00  0.00     0.000 OA
ATOM     13   O  GAD B   1      75.060   9.698  75.1560  0.00  0.00     0.000 OA
ENDBRANCH 5 11
BRANCH 1 14
ATOM     14  O3  ASG B   2      76.391  11.156  79.4020  0.00  0.00     0.000 O
BRANCH 14 17
ATOM     15  C1  ASG B   2      73.987   8.293  79.9490  0.00  0.00     0.000 C
ATOM     16  C2  ASG B   2      74.421   9.756  79.7880  0.00  0.00     0.000 C
ATOM     17  C3  ASG B   2      75.935   9.808  79.5620  0.00  0.00     0.000 C
ATOM     18  C4  ASG B   2      76.656   9.161  80.7290  0.00  0.00     0.000 C
ATOM     19  C5  ASG B   2      76.108   7.752  80.9350  0.00  0.00     0.000 C
ATOM     20  O5  ASG B   2      74.675   7.798  81.0820  0.00  0.00     0.000 O
ATOM     21   C  ASG B   2      76.642   7.097  82.1680  0.00  0.00     0.000 C
ATOM     22   O  ASG B   2      75.938   5.903  82.4040  0.00  0.00     0.000 O
ATOM     24  HD  ASG B   2      75.595   5.153  82.6680  0.00  0.00     0.000 HD
BRANCH 16 26
ATOM     24   N  ASG B   2      73.908  11.103  79.8880  0.00  0.00     0.000 N
ATOM     26  HD  ASG B   2      74.730  10.907  80.0750  0.00  0.00     0.000 HD
ATOM     26   C  ASG B   2      73.392  11.791  78.8520  0.00  0.00     0.000 C
ATOM     27   C  ASG B   2      72.609  13.010  79.1990  0.00  0.00     0.000 C
ATOM     28   O  ASG B   2      73.560  11.431  77.6930  0.00  0.00     0.000 OA
ENDBRANCH 16 26
BRANCH 18 29
ATOM     29   O  ASG B   2      76.436  10.034  81.8900  0.00  0.00     0.000 O
ATOM     30   O  ASG B   2      78.626   9.573  82.9070  0.00  0.00     0.000 OA
ATOM     31   O  ASG B   2      78.215  11.710  81.8320  0.00  0.00     0.000 OA
ATOM     32   O  ASG B   2      77.109  11.170  83.9130  0.00  0.00     0.000 OA
ATOM     33   S  ASG B   2      77.692  10.659  82.6730  0.00  0.00     0.000 S
ENDBRANCH 18 29
BRANCH 15 34
ATOM     34  O4  ASG B   3      72.612   8.135  80.1560  0.00  0.00     0.000 O
BRANCH 34 38
ATOM     35  C1  GCT B   3      71.413   8.882  76.3660  0.00  0.00     0.000 C
ATOM     36  C2  GCT B   3      70.350   9.143  77.4110  0.00  0.00     0.000 C
ATOM     37  C3  GCT B   3      70.971   9.269  78.7950  0.00  0.00     0.000 C
ATOM     38  C4  GCT B   3      71.710   7.970  79.1360  0.00  0.00     0.000 C
ATOM     39  C5  GCT B   3      72.342   7.317  77.8870  0.00  0.00     0.000 C
ATOM     40  O5  GCT B   3      72.595   8.364  76.9670  0.00  0.00     0.000 O
ATOM     41   O  GCT B   3      69.713  10.358  77.0430  0.00  0.00     0.000 O
ATOM     43  HD  GCT B   3      69.127  10.546  76.4340  0.00  0.00     0.000 HD
ATOM     43   O  GCT B   3      69.927   9.586  79.7400  0.00  0.00     0.000 O
ATOM     45  HD  GCT B   3      69.341   9.773  79.1300  0.00  0.00     0.000 HD
BRANCH 39 45
ATOM     45   C  GCT B   3      71.580   6.211  77.1890  0.00  0.00     0.000 C
ATOM     46   O  GCT B   3      72.098   5.629  76.1850  0.00  0.00     0.000 OA
ATOM     47   O  GCT B   3      70.465   5.903  77.6410  0.00  0.00     0.000 OA
ENDBRANCH 39 45
BRANCH 35 48
ATOM     48  O3  ASG B   4      70.836   8.518  75.2400  0.00  0.00     0.000 O
BRANCH 48 51
ATOM     49  C1  ASG B   4      72.532  10.039  72.3250  0.00  0.00     0.000 C
ATOM     50  C2  ASG B   4      71.717   9.922  73.6240  0.00  0.00     0.000 C
ATOM     51  C3  ASG B   4      71.805   8.514  74.2060  0.00  0.00     0.000 C
ATOM     52  C4  ASG B   4      71.498   7.462  73.1530  0.00  0.00     0.000 C
ATOM     53  C5  ASG B   4      72.422   7.700  71.9620  0.00  0.00     0.000 C
ATOM     54  O5  ASG B   4      72.167   9.011  71.4200  0.00  0.00     0.000 O
BRANCH 50 57
ATOM     55   N  ASG B   4      72.478  11.081  74.0310  0.00  0.00     0.000 N
ATOM     57  HD  ASG B   4      71.979  11.683  73.6580  0.00  0.00     0.000 HD
ATOM     57   O  ASG B   4      70.732  12.483  73.9870  0.00  0.00     0.000 OA
ATOM     58   C  ASG B   4      71.902  12.260  74.2850  0.00  0.00     0.000 C
ATOM     59   C  ASG B   4      72.791  13.296  74.9010  0.00  0.00     0.000 C
ENDBRANCH 50 57
BRANCH 52 60
ATOM     60   O  ASG B   4      70.055   7.669  72.8660  0.00  0.00     0.000 O
ATOM     61   O  ASG B   4      69.384   5.600  74.0900  0.00  0.00     0.000 OA
ATOM     62   O  ASG B   4      67.714   7.058  73.2220  0.00  0.00     0.000 OA
ATOM     63   O  ASG B   4      69.161   5.909  71.7040  0.00  0.00     0.000 OA
ATOM     64   S  ASG B   4      68.992   6.482  73.0430  0.00  0.00     0.000 S
ENDBRANCH 52 60
ATOM     65   O  ASG B   4      73.383   6.770  69.9380  0.00  0.00     0.000 O
ATOM     67  HD  ASG B   4      73.199   7.500  69.5110  0.00  0.00     0.000 HD
ATOM     67   O  ASG B   4      73.383   6.770  69.9380  0.00  0.00     0.000 O
ATOM     69  HD  ASG B   4      73.199   7.500  69.5110  0.00  0.00     0.000 HD
ENDBRANCH 48 51
ENDBRANCH 35 48
ENDBRANCH 34 38
ENDBRANCH 15 34
ENDBRANCH 14 17
ENDBRANCH 1 14
TORSDOF 12
ENDMDL
MODEL 91
REMARK VINA RESULT:      -0.8     75.741     79.510
ROOT
ATOM      1  C1  GAD B   1      76.894  77.480  84.5490  0.00  0.00     0.000 C
ATOM      2  C2  GAD B   1      77.712  78.234  85.6030  0.00  0.00     0.000 C
ATOM      3  C3  GAD B   1      77.714  79.736  85.2910  0.00  0.00     0.000 C
ATOM      4  C4  GAD B   1      77.653  80.075  83.8000  0.00  0.00     0.000 C
ATOM      5  C5  GAD B   1      77.452  79.168  82.8230  0.00  0.00     0.000 C
ATOM      6  O5  GAD B   1      77.336  77.788  83.2190  0.00  0.00     0.000 O
ATOM      7   O  GAD B   1      77.238  77.934  86.9670  0.00  0.00     0.000 O
ATOM      9  HD  GAD B   1      76.850  77.289  86.5390  0.00  0.00     0.000 HD
ATOM      9   O  GAD B   1      78.903  80.381  85.8000  0.00  0.00     0.000 O
ATOM     11  HD  GAD B   1      78.515  79.736  85.3720  0.00  0.00     0.000 HD
ENDROOT
BRANCH 5 11
ATOM     11   C  GAD B   1      77.284  79.498  81.3880  0.00  0.00     0.000 C
ATOM     12   O  GAD B   1      76.503  80.458  81.1060  0.00  0.00     0.000 OA
ATOM     13   O  GAD B   1      77.852  78.775  80.4880  0.00  0.00     0.000 OA
ENDBRANCH 5 11
BRANCH 1 14
ATOM     14  O3  ASG B   2      77.029  76.166  84.2930  0.00  0.00     0.000 O
BRANCH 14 17
ATOM     15  C1  ASG B   2      78.516  73.852  81.7010  0.00  0.00     0.000 C
ATOM     16  C2  ASG B   2      77.401  74.562  82.4820  0.00  0.00     0.000 C
ATOM     17  C3  ASG B   2      78.032  75.476  83.5370  0.00  0.00     0.000 C
ATOM     18  C4  ASG B   2      78.906  74.662  84.4720  0.00  0.00     0.000 C
ATOM     19  C5  ASG B   2      79.920  73.875  83.6480  0.00  0.00     0.000 C
ATOM     20  O5  ASG B   2      79.240  73.090  82.6480  0.00  0.00     0.000 O
ATOM     21   C  ASG B   2      80.717  72.916  84.4720  0.00  0.00     0.000 C
ATOM     22   O  ASG B   2      81.469  72.085  83.6230  0.00  0.00     0.000 O
ATOM     24  HD  ASG B   2      81.984  71.511  83.2280  0.00  0.00     0.000 HD
BRANCH 16 26
ATOM     24   N  ASG B   2      75.964  74.571  82.6290  0.00  0.00     0.000 N
ATOM     26  HD  ASG B   2      76.497  74.741  83.2900  0.00  0.00     0.000 HD
ATOM     26   C  ASG B   2      75.142  75.386  81.9420  0.00  0.00     0.000 C
ATOM     27   C  ASG B   2      73.696  75.028  81.9630  0.00  0.00     0.000 C
ATOM     28   O  ASG B   2      75.563  76.363  81.3350  0.00  0.00     0.000 OA
ENDBRANCH 16 26
BRANCH 18 29
ATOM     29   O  ASG B   2      78.001  73.797  85.2400  0.00  0.00     0.000 O
ATOM     30   O  ASG B   2      79.364  73.846  87.2860  0.00  0.00     0.000 OA
ATOM     31   O  ASG B   2      77.290  75.103  87.1810  0.00  0.00     0.000 OA
ATOM     32   O  ASG B   2      77.238  72.687  87.2470  0.00  0.00     0.000 OA
ATOM     33   S  ASG B   2      77.982  73.881  86.8450  0.00  0.00     0.000 S
ENDBRANCH 18 29
BRANCH 15 34
ATOM     34  O4  ASG B   3      78.043  72.992  80.7030  0.00  0.00     0.000 O
BRANCH 34 38
ATOM     35  C1  GCT B   3      76.911  75.830  78.0520  0.00  0.00     0.000 C
ATOM     36  C2  GCT B   3      76.182  74.514  77.8940  0.00  0.00     0.000 C
ATOM     37  C3  GCT B   3      76.320  73.664  79.1490  0.00  0.00     0.000 C
ATOM     38  C4  GCT B   3      77.806  73.392  79.4130  0.00  0.00     0.000 C
ATOM     39  C5  GCT B   3      78.697  74.582  78.9890  0.00  0.00     0.000 C
ATOM     40  O5  GCT B   3      77.891  75.744  79.0810  0.00  0.00     0.000 O
ATOM     41   O  GCT B   3      74.818  74.834  77.6630  0.00  0.00     0.000 O
ATOM     43  HD  GCT B   3      74.400  75.123  76.9620  0.00  0.00     0.000 HD
ATOM     43   O  GCT B   3      75.552  72.455  78.9720  0.00  0.00     0.000 O
ATOM     45  HD  GCT B   3      75.134  72.744  78.2710  0.00  0.00     0.000 HD
BRANCH 39 45
ATOM     45   C  GCT B   3      79.358  74.538  77.6290  0.00  0.00     0.000 C
ATOM     46   O  GCT B   3      80.133  75.482  77.2770  0.00  0.00     0.000 OA
ATOM     47   O  GCT B   3      79.123  73.557  76.9040  0.00  0.00     0.000 OA
ENDBRANCH 39 45
BRANCH 35 48
ATOM     48  O3  ASG B   4      77.000  76.422  76.8800  0.00  0.00     0.000 O
BRANCH 48 51
ATOM     49  C1  ASG B   4      76.479  80.073  77.1750  0.00  0.00     0.000 C
ATOM     50  C2  ASG B   4      76.183  78.564  77.2020  0.00  0.00     0.000 C
ATOM     51  C3  ASG B   4      77.466  77.748  77.0670  0.00  0.00     0.000 C
ATOM     52  C4  ASG B   4      78.299  78.222  75.8880  0.00  0.00     0.000 C
ATOM     53  C5  ASG B   4      78.533  79.722  76.0450  0.00  0.00     0.000 C
ATOM     54  O5  ASG B   4      77.262  80.401  76.0380  0.00  0.00     0.000 O
BRANCH 50 57
ATOM     55   N  ASG B   4      75.477  78.858  78.4280  0.00  0.00     0.000 N
ATOM     57  HD  ASG B   4      74.727  79.104  78.0720  0.00  0.00     0.000 HD
ATOM     57   O  ASG B   4      73.443  78.462  77.5770  0.00  0.00     0.000 OA
ATOM     58   C  ASG B   4      74.158  78.682  78.5510  0.00  0.00     0.000 C
ATOM     59   C  ASG B   4      73.612  78.824  79.9380  0.00  0.00     0.000 C
ENDBRANCH 50 57
BRANCH 52 60
ATOM     60   O  ASG B   4      77.478  77.845  74.7080  0.00  0.00     0.000 O
ATOM     61   O  ASG B   4      79.001  75.967  74.0870  0.00  0.00     0.000 OA
ATOM     62   O  ASG B   4      76.973  76.296  72.8840  0.00  0.00     0.000 OA
ATOM     63   O  ASG B   4      78.683  77.963  72.7640  0.00  0.00     0.000 OA
ATOM     64   S  ASG B   4      78.062  76.897  73.5550  0.00  0.00     0.000 S
ENDBRANCH 52 60
ATOM     65   O  ASG B   4      79.850  81.639  75.3610  0.00  0.00     0.000 O
ATOM     67  HD  ASG B   4      79.127  82.104  75.2590  0.00  0.00     0.000 HD
ATOM     67   O  ASG B   4      79.850  81.639  75.3610  0.00  0.00     0.000 O
ATOM     69  HD  ASG B   4      79.127  82.104  75.2590  0.00  0.00     0.000 HD
ENDBRANCH 48 51
ENDBRANCH 35 48
ENDBRANCH 34 38
ENDBRANCH 15 34
ENDBRANCH 14 17
ENDBRANCH 1 14
TORSDOF 12
ENDMDL
MODEL 92
REMARK VINA RESULT:      -0.8     50.838     55.668
ROOT
ATOM      1  C1  GAD B   1      49.015  77.061  18.8620  0.00  0.00     0.000 C
ATOM      2  C2  GAD B   1      49.277  77.049  20.3710  0.00  0.00     0.000 C
ATOM      3  C3  GAD B   1      49.204  78.475  20.9300  0.00  0.00     0.000 C
ATOM      4  C4  GAD B   1      49.660  79.563  19.9540  0.00  0.00     0.000 C
ATOM      5  C5  GAD B   1      49.956  79.345  18.6580  0.00  0.00     0.000 C
ATOM      6  O5  GAD B   1      49.878  77.987  18.1850  0.00  0.00     0.000 O
ATOM      7   O  GAD B   1      48.371  76.115  21.0670  0.00  0.00     0.000 O
ATOM      9  HD  GAD B   1      48.257  75.841  20.2530  0.00  0.00     0.000 HD
ATOM      9   O  GAD B   1      50.024  78.626  22.1100  0.00  0.00     0.000 O
ATOM     11  HD  GAD B   1      49.909  78.352  21.2970  0.00  0.00     0.000 HD
ENDROOT
BRANCH 5 11
ATOM     11   C  GAD B   1      50.294  80.405  17.6800  0.00  0.00     0.000 C
ATOM     12   O  GAD B   1      49.586  81.459  17.7060  0.00  0.00     0.000 OA
ATOM     13   O  GAD B   1      51.214  80.206  16.8030  0.00  0.00     0.000 OA
ENDBRANCH 5 11
BRANCH 1 14
ATOM     14  O3  ASG B   2      49.403  76.082  18.0240  0.00  0.00     0.000 O
BRANCH 14 17
ATOM     15  C1  ASG B   2      52.007  75.401  15.3720  0.00  0.00     0.000 C
ATOM     16  C2  ASG B   2      50.605  75.678  15.9300  0.00  0.00     0.000 C
ATOM     17  C3  ASG B   2      50.690  75.818  17.4530  0.00  0.00     0.000 C
ATOM     18  C4  ASG B   2      51.266  74.552  18.0580  0.00  0.00     0.000 C
ATOM     19  C5  ASG B   2      52.601  74.242  17.3880  0.00  0.00     0.000 C
ATOM     20  O5  ASG B   2      52.434  74.185  15.9580  0.00  0.00     0.000 O
ATOM     21   C  ASG B   2      53.165  72.921  17.8040  0.00  0.00     0.000 C
ATOM     22   O  ASG B   2      54.273  72.612  16.9940  0.00  0.00     0.000 O
ATOM     24  HD  ASG B   2      54.964  72.296  16.5790  0.00  0.00     0.000 HD
BRANCH 16 26
ATOM     24   N  ASG B   2      49.223  75.740  15.5130  0.00  0.00     0.000 N
ATOM     26  HD  ASG B   2      49.455  75.477  16.3050  0.00  0.00     0.000 HD
ATOM     26   C  ASG B   2      48.605  76.869  15.1180  0.00  0.00     0.000 C
ATOM     27   C  ASG B   2      47.308  76.691  14.4070  0.00  0.00     0.000 C
ATOM     28   O  ASG B   2      49.086  77.975  15.3330  0.00  0.00     0.000 OA
ENDBRANCH 16 26
BRANCH 18 29
ATOM     29   O  ASG B   2      50.265  73.497  17.8490  0.00  0.00     0.000 O
ATOM     30   O  ASG B   2      50.786  72.309  19.9380  0.00  0.00     0.000 OA
ATOM     31   O  ASG B   2      48.744  73.611  19.7600  0.00  0.00     0.000 OA
ATOM     32   O  ASG B   2      48.983  71.558  18.5060  0.00  0.00     0.000 OA
ATOM     33   S  ASG B   2      49.661  72.704  19.1100  0.00  0.00     0.000 S
ENDBRANCH 18 29
BRANCH 15 34
ATOM     34  O4  ASG B   3      52.040  75.261  13.9800  0.00  0.00     0.000 O
BRANCH 34 38
ATOM     35  C1  GCT B   3      51.605  79.175  13.0550  0.00  0.00     0.000 C
ATOM     36  C2  GCT B   3      51.142  78.230  11.9670  0.00  0.00     0.000 C
ATOM     37  C3  GCT B   3      50.921  76.830  12.5240  0.00  0.00     0.000 C
ATOM     38  C4  GCT B   3      52.235  76.312  13.1200  0.00  0.00     0.000 C
ATOM     39  C5  GCT B   3      53.071  77.447  13.7550  0.00  0.00     0.000 C
ATOM     40  O5  GCT B   3      52.155  78.452  14.1510  0.00  0.00     0.000 O
ATOM     41   O  GCT B   3      49.923  78.759  11.4660  0.00  0.00     0.000 O
ATOM     43  HD  GCT B   3      49.752  79.419  10.9320  0.00  0.00     0.000 HD
ATOM     43   O  GCT B   3      50.416  75.990  11.4650  0.00  0.00     0.000 O
ATOM     45  HD  GCT B   3      50.245  76.650  10.9320  0.00  0.00     0.000 HD
BRANCH 39 45
ATOM     45   C  GCT B   3      54.176  78.074  12.9310  0.00  0.00     0.000 C
ATOM     46   O  GCT B   3      54.902  78.982  13.4440  0.00  0.00     0.000 OA
ATOM     47   O  GCT B   3      54.339  77.658  11.7720  0.00  0.00     0.000 OA
ENDBRANCH 39 45
BRANCH 35 48
ATOM     48  O3  ASG B   4      52.037  80.291  12.5070  0.00  0.00     0.000 O
BRANCH 48 51
ATOM     49  C1  ASG B   4      50.992  83.239  14.4840  0.00  0.00     0.000 C
ATOM     50  C2  ASG B   4      50.897  81.988  13.5940  0.00  0.00     0.000 C
ATOM     51  C3  ASG B   4      52.235  81.257  13.5240  0.00  0.00     0.000 C
ATOM     52  C4  ASG B   4      53.366  82.212  13.1790  0.00  0.00     0.000 C
ATOM     53  C5  ASG B   4      53.339  83.362  14.1820  0.00  0.00     0.000 C
ATOM     54  O5  ASG B   4      52.079  84.053  14.0740  0.00  0.00     0.000 O
BRANCH 50 57
ATOM     55   N  ASG B   4      49.770  81.646  14.4310  0.00  0.00     0.000 N
ATOM     57  HD  ASG B   4      49.171  82.112  14.0140  0.00  0.00     0.000 HD
ATOM     57   O  ASG B   4      48.238  81.955  12.8280  0.00  0.00     0.000 OA
ATOM     58   C  ASG B   4      48.526  81.554  13.9510  0.00  0.00     0.000 C
ATOM     59   C  ASG B   4      47.509  80.983  14.8910  0.00  0.00     0.000 C
ENDBRANCH 50 57
BRANCH 52 60
ATOM     60   O  ASG B   4      53.072  82.607  11.7770  0.00  0.00     0.000 O
ATOM     61   O  ASG B   4      54.927  81.213  10.8580  0.00  0.00     0.000 OA
ATOM     62   O  ASG B   4      53.439  82.332   9.3750  0.00  0.00     0.000 OA
ATOM     63   O  ASG B   4      54.868  83.627  10.7880  0.00  0.00     0.000 OA
ATOM     64   S  ASG B   4      54.137  82.370  10.6030  0.00  0.00     0.000 S
ENDBRANCH 52 60
ATOM     65   O  ASG B   4      54.563  85.214  15.1580  0.00  0.00     0.000 O
ATOM     67  HD  ASG B   4      53.871  85.726  15.0640  0.00  0.00     0.000 HD
ATOM     67   O  ASG B   4      54.563  85.214  15.1580  0.00  0.00     0.000 O
ATOM     69  HD  ASG B   4      53.871  85.726  15.0640  0.00  0.00     0.000 HD
ENDBRANCH 48 51
ENDBRANCH 35 48
ENDBRANCH 34 38
ENDBRANCH 15 34
ENDBRANCH 14 17
ENDBRANCH 1 14
TORSDOF 12
ENDMDL
MODEL 93
REMARK VINA RESULT:      -0.8     68.791     72.458
ROOT
ATOM      1  C1  GAD B   1      75.566  84.051  41.2700  0.00  0.00     0.000 C
ATOM      2  C2  GAD B   1      75.994  85.466  40.8700  0.00  0.00     0.000 C
ATOM      3  C3  GAD B   1      75.870  85.643  39.3510  0.00  0.00     0.000 C
ATOM      4  C4  GAD B   1      76.127  84.370  38.5400  0.00  0.00     0.000 C
ATOM      5  C5  GAD B   1      76.294  83.147  39.0810  0.00  0.00     0.000 C
ATOM      6  O5  GAD B   1      76.273  83.053  40.5180  0.00  0.00     0.000 O
ATOM      7   O  GAD B   1      75.247  86.488  41.6280  0.00  0.00     0.000 O
ATOM      9  HD  GAD B   1      75.065  85.794  42.1120  0.00  0.00     0.000 HD
ATOM      9   O  GAD B   1      76.801  86.630  38.8540  0.00  0.00     0.000 O
ATOM     11  HD  GAD B   1      76.619  85.936  39.3390  0.00  0.00     0.000 HD
ENDROOT
BRANCH 5 11
ATOM     11   C  GAD B   1      76.438  81.894  38.3030  0.00  0.00     0.000 C
ATOM     12   O  GAD B   1      75.639  81.727  37.3290  0.00  0.00     0.000 OA
ATOM     13   O  GAD B   1      77.284  80.998  38.6710  0.00  0.00     0.000 OA
ENDBRANCH 5 11
BRANCH 1 14
ATOM     14  O3  ASG B   2      75.935  83.450  42.4170  0.00  0.00     0.000 O
BRANCH 14 17
ATOM     15  C1  ASG B   2      78.299  80.779  43.6640  0.00  0.00     0.000 C
ATOM     16  C2  ASG B   2      76.944  81.407  43.3100  0.00  0.00     0.000 C
ATOM     17  C3  ASG B   2      77.173  82.821  42.7670  0.00  0.00     0.000 C
ATOM     18  C4  ASG B   2      77.898  83.661  43.8010  0.00  0.00     0.000 C
ATOM     19  C5  ASG B   2      79.178  82.943  44.2190  0.00  0.00     0.000 C
ATOM     20  O5  ASG B   2      78.870  81.606  44.6610  0.00  0.00     0.000 O
ATOM     21   C  ASG B   2      79.875  83.617  45.3570  0.00  0.00     0.000 C
ATOM     22   O  ASG B   2      80.914  82.791  45.8210  0.00  0.00     0.000 O
ATOM     24  HD  ASG B   2      81.581  82.394  46.2060  0.00  0.00     0.000 HD
BRANCH 16 26
ATOM     24   N  ASG B   2      75.524  81.161  43.4170  0.00  0.00     0.000 N
ATOM     26  HD  ASG B   2      75.858  81.960  43.4430  0.00  0.00     0.000 HD
ATOM     26   C  ASG B   2      74.791  80.554  42.4650  0.00  0.00     0.000 C
ATOM     27   C  ASG B   2      73.441  80.081  42.8800  0.00  0.00     0.000 C
ATOM     28   O  ASG B   2      75.214  80.402  41.3260  0.00  0.00     0.000 OA
ENDBRANCH 16 26
BRANCH 18 29
ATOM     29   O  ASG B   2      76.961  83.851  44.9160  0.00  0.00     0.000 O
ATOM     30   O  ASG B   2      77.775  86.100  45.4830  0.00  0.00     0.000 OA
ATOM     31   O  ASG B   2      75.637  85.832  44.3650  0.00  0.00     0.000 OA
ATOM     32   O  ASG B   2      75.896  85.133  46.6650  0.00  0.00     0.000 OA
ATOM     33   S  ASG B   2      76.547  85.336  45.3710  0.00  0.00     0.000 S
ENDBRANCH 18 29
BRANCH 15 34
ATOM     34  O4  ASG B   3      78.200  79.477  44.1670  0.00  0.00     0.000 O
BRANCH 34 38
ATOM     35  C1  GCT B   3      77.379  77.619  40.6690  0.00  0.00     0.000 C
ATOM     36  C2  GCT B   3      76.893  76.872  41.8920  0.00  0.00     0.000 C
ATOM     37  C3  GCT B   3      76.834  77.793  43.1020  0.00  0.00     0.000 C
ATOM     38  C4  GCT B   3      78.234  78.358  43.3740  0.00  0.00     0.000 C
ATOM     39  C5  GCT B   3      79.033  78.580  42.0700  0.00  0.00     0.000 C
ATOM     40  O5  GCT B   3      78.081  78.799  41.0440  0.00  0.00     0.000 O
ATOM     41   O  GCT B   3      75.596  76.386  41.5780  0.00  0.00     0.000 O
ATOM     43  HD  GCT B   3      75.326  75.721  41.0940  0.00  0.00     0.000 HD
ATOM     43   O  GCT B   3      76.301  77.051  44.2190  0.00  0.00     0.000 O
ATOM     45  HD  GCT B   3      76.031  76.387  43.7340  0.00  0.00     0.000 HD
BRANCH 39 45
ATOM     45   C  GCT B   3      80.005  77.507  41.6310  0.00  0.00     0.000 C
ATOM     46   O  GCT B   3      80.711  77.689  40.5890  0.00  0.00     0.000 OA
ATOM     47   O  GCT B   3      80.086  76.480  42.3250  0.00  0.00     0.000 OA
ENDBRANCH 39 45
BRANCH 35 48
ATOM     48  O3  ASG B   4      77.671  76.756  39.7190  0.00  0.00     0.000 O
BRANCH 48 51
ATOM     49  C1  ASG B   4      76.613  78.008  36.4010  0.00  0.00     0.000 C
ATOM     50  C2  ASG B   4      76.523  77.488  37.8460  0.00  0.00     0.000 C
ATOM     51  C3  ASG B   4      77.897  77.460  38.5100  0.00  0.00     0.000 C
ATOM     52  C4  ASG B   4      78.918  76.756  37.6320  0.00  0.00     0.000 C
ATOM     53  C5  ASG B   4      78.906  77.424  36.2600  0.00  0.00     0.000 C
ATOM     54  O5  ASG B   4      77.595  77.283  35.6780  0.00  0.00     0.000 O
BRANCH 50 57
ATOM     55   N  ASG B   4      75.508  78.506  37.9940  0.00  0.00     0.000 N
ATOM     57  HD  ASG B   4      74.841  78.049  37.6840  0.00  0.00     0.000 HD
ATOM     57   O  ASG B   4      73.811  77.059  38.1970  0.00  0.00     0.000 OA
ATOM     58   C  ASG B   4      74.233  78.209  38.2640  0.00  0.00     0.000 C
ATOM     59   C  ASG B   4      73.354  79.374  38.6000  0.00  0.00     0.000 C
ENDBRANCH 50 57
BRANCH 52 60
ATOM     60   O  ASG B   4      78.462  75.341  37.6350  0.00  0.00     0.000 O
ATOM     61   O  ASG B   4      80.324  74.609  39.1270  0.00  0.00     0.000 OA
ATOM     62   O  ASG B   4      78.619  73.064  38.5140  0.00  0.00     0.000 OA
ATOM     63   O  ASG B   4      80.072  73.929  36.8230  0.00  0.00     0.000 OA
ATOM     64   S  ASG B   4      79.426  74.156  38.1190  0.00  0.00     0.000 S
ENDBRANCH 52 60
ATOM     65   O  ASG B   4      80.082  77.745  34.1640  0.00  0.00     0.000 O
ATOM     67  HD  ASG B   4      79.349  77.599  33.7260  0.00  0.00     0.000 HD
ATOM     67   O  ASG B   4      80.082  77.745  34.1640  0.00  0.00     0.000 O
ATOM     69  HD  ASG B   4      79.349  77.599  33.7260  0.00  0.00     0.000 HD
ENDBRANCH 48 51
ENDBRANCH 35 48
ENDBRANCH 34 38
ENDBRANCH 15 34
ENDBRANCH 14 17
ENDBRANCH 1 14
TORSDOF 12
ENDMDL
MODEL 94
REMARK VINA RESULT:      -0.8     98.860    105.213
ROOT
ATOM      1  C1  GAD B   1      87.077  15.993  93.7210  0.00  0.00     0.000 C
ATOM      2  C2  GAD B   1      85.781  15.424  94.3060  0.00  0.00     0.000 C
ATOM      3  C3  GAD B   1      86.046  14.054  94.9400  0.00  0.00     0.000 C
ATOM      4  C4  GAD B   1      87.149  13.240  94.2570  0.00  0.00     0.000 C
ATOM      5  C5  GAD B   1      87.948  13.715  93.2800  0.00  0.00     0.000 C
ATOM      6  O5  GAD B   1      87.706  15.062  92.8290  0.00  0.00     0.000 O
ATOM      7   O  GAD B   1      85.150  16.375  95.2410  0.00  0.00     0.000 O
ATOM      9  HD  GAD B   1      85.705  16.912  94.8500  0.00  0.00     0.000 HD
ATOM      9   O  GAD B   1      84.865  13.222  94.9220  0.00  0.00     0.000 O
ATOM     11  HD  GAD B   1      85.420  13.759  94.5300  0.00  0.00     0.000 HD
ENDROOT
BRANCH 5 11
ATOM     11   C  GAD B   1      89.085  12.974  92.6860  0.00  0.00     0.000 C
ATOM     12   O  GAD B   1      89.814  12.305  93.4830  0.00  0.00     0.000 OA
ATOM     13   O  GAD B   1      89.346  13.088  91.4320  0.00  0.00     0.000 OA
ENDBRANCH 5 11
BRANCH 1 14
ATOM     14  O3  ASG B   2      87.118  16.940  92.7650  0.00  0.00     0.000 O
BRANCH 14 17
ATOM     15  C1  ASG B   2      87.922  17.310  89.0910  0.00  0.00     0.000 C
ATOM     16  C2  ASG B   2      88.135  17.471  90.6030  0.00  0.00     0.000 C
ATOM     17  C3  ASG B   2      86.964  16.820  91.3460  0.00  0.00     0.000 C
ATOM     18  C4  ASG B   2      85.658  17.462  90.9190  0.00  0.00     0.000 C
ATOM     19  C5  ASG B   2      85.543  17.394  89.3990  0.00  0.00     0.000 C
ATOM     20  O5  ASG B   2      86.711  17.977  88.7890  0.00  0.00     0.000 O
ATOM     21   C  ASG B   2      84.365  18.150  88.8730  0.00  0.00     0.000 C
ATOM     22   O  ASG B   2      84.445  18.220  87.4700  0.00  0.00     0.000 O
ATOM     24  HD  ASG B   2      84.364  18.338  86.6160  0.00  0.00     0.000 HD
BRANCH 16 26
ATOM     24   N  ASG B   2      89.018  18.129  91.5380  0.00  0.00     0.000 N
ATOM     26  HD  ASG B   2      88.175  18.015  91.7000  0.00  0.00     0.000 HD
ATOM     26   C  ASG B   2      90.097  17.547  92.0920  0.00  0.00     0.000 C
ATOM     27   C  ASG B   2      91.071  18.463  92.7500  0.00  0.00     0.000 C
ATOM     28   O  ASG B   2      90.265  16.334  92.0550  0.00  0.00     0.000 OA
ENDBRANCH 16 26
BRANCH 18 29
ATOM     29   O  ASG B   2      85.686  18.841  91.4260  0.00  0.00     0.000 O
ATOM     30   O  ASG B   2      83.264  18.953  91.8360  0.00  0.00     0.000 OA
ATOM     31   O  ASG B   2      84.800  18.747  93.7040  0.00  0.00     0.000 OA
ATOM     32   O  ASG B   2      84.705  20.804  92.4370  0.00  0.00     0.000 OA
ATOM     33   S  ASG B   2      84.531  19.351  92.4210  0.00  0.00     0.000 S
ENDBRANCH 18 29
BRANCH 15 34
ATOM     34  O4  ASG B   3      88.945  17.869  88.3180  0.00  0.00     0.000 O
BRANCH 34 38
ATOM     35  C1  GCT B   3      91.746  15.032  89.0030  0.00  0.00     0.000 C
ATOM     36  C2  GCT B   3      92.316  16.378  88.6110  0.00  0.00     0.000 C
ATOM     37  C3  GCT B   3      91.281  17.479  88.7950  0.00  0.00     0.000 C
ATOM     38  C4  GCT B   3      90.058  17.172  87.9220  0.00  0.00     0.000 C
ATOM     39  C5  GCT B   3      89.795  15.654  87.8060  0.00  0.00     0.000 C
ATOM     40  O5  GCT B   3      90.323  15.061  88.9790  0.00  0.00     0.000 O
ATOM     41   O  GCT B   3      93.433  16.606  89.4600  0.00  0.00     0.000 O
ATOM     43  HD  GCT B   3      94.239  16.289  89.4560  0.00  0.00     0.000 HD
ATOM     43   O  GCT B   3      91.895  18.746  88.4760  0.00  0.00     0.000 O
ATOM     45  HD  GCT B   3      92.701  18.429  88.4720  0.00  0.00     0.000 HD
BRANCH 39 45
ATOM     45   C  GCT B   3      90.326  14.922  86.5930  0.00  0.00     0.000 C
ATOM     46   O  GCT B   3      90.058  13.689  86.4360  0.00  0.00     0.000 OA
ATOM     47   O  GCT B   3      91.003  15.570  85.7770  0.00  0.00     0.000 OA
ENDBRANCH 39 45
BRANCH 35 48
ATOM     48  O3  ASG B   4      92.556  14.081  88.5900  0.00  0.00     0.000 O
BRANCH 48 51
ATOM     49  C1  ASG B   4      92.709  11.297  91.0230  0.00  0.00     0.000 C
ATOM     50  C2  ASG B   4      92.880  12.702  90.4220  0.00  0.00     0.000 C
ATOM     51  C3  ASG B   4      92.112  12.840  89.1100  0.00  0.00     0.000 C
ATOM     52  C4  ASG B   4      92.425  11.690  88.1660  0.00  0.00     0.000 C
ATOM     53  C5  ASG B   4      92.159  10.382  88.9070  0.00  0.00     0.000 C
ATOM     54  O5  ASG B   4      93.024  10.307  90.0570  0.00  0.00     0.000 O
BRANCH 50 57
ATOM     55   N  ASG B   4      92.458  13.144  91.7320  0.00  0.00     0.000 N
ATOM     57  HD  ASG B   4      93.233  13.113  92.1180  0.00  0.00     0.000 HD
ATOM     57   O  ASG B   4      94.448  14.006  92.2940  0.00  0.00     0.000 OA
ATOM     58   C  ASG B   4      93.253  13.861  92.5330  0.00  0.00     0.000 C
ATOM     59   C  ASG B   4      92.600  14.422  93.7580  0.00  0.00     0.000 C
ENDBRANCH 50 57
BRANCH 52 60
ATOM     60   O  ASG B   4      93.848  11.917  87.8030  0.00  0.00     0.000 O
ATOM     61   O  ASG B   4      93.271  12.684  85.4990  0.00  0.00     0.000 OA
ATOM     62   O  ASG B   4      95.528  12.783  86.2500  0.00  0.00     0.000 OA
ATOM     63   O  ASG B   4      94.474  10.650  86.0010  0.00  0.00     0.000 OA
ATOM     64   S  ASG B   4      94.302  12.080  86.2740  0.00  0.00     0.000 S
ENDBRANCH 52 60
ATOM     65   O  ASG B   4      91.788   7.994  88.7100  0.00  0.00     0.000 O
ATOM     67  HD  ASG B   4      92.354   7.850  89.3500  0.00  0.00     0.000 HD
ATOM     67   O  ASG B   4      91.788   7.994  88.7100  0.00  0.00     0.000 O
ATOM     69  HD  ASG B   4      92.354   7.850  89.3500  0.00  0.00     0.000 HD
ENDBRANCH 48 51
ENDBRANCH 35 48
ENDBRANCH 34 38
ENDBRANCH 15 34
ENDBRANCH 14 17
ENDBRANCH 1 14
TORSDOF 12
ENDMDL
MODEL 95
REMARK VINA RESULT:      -0.8     88.627     92.095
ROOT
ATOM      1  C1  GAD B   1      82.273  65.345 103.3750  0.00  0.00     0.000 C
ATOM      2  C2  GAD B   1      81.719  64.250 104.2930  0.00  0.00     0.000 C
ATOM      3  C3  GAD B   1      82.541  62.965 104.1340  0.00  0.00     0.000 C
ATOM      4  C4  GAD B   1      83.114  62.747 102.7310  0.00  0.00     0.000 C
ATOM      5  C5  GAD B   1      83.059  63.658 101.7390  0.00  0.00     0.000 C
ATOM      6  O5  GAD B   1      82.372  64.893 102.0160  0.00  0.00     0.000 O
ATOM      7   O  GAD B   1      81.642  64.710 105.6930  0.00  0.00     0.000 O
ATOM      9  HD  GAD B   1      81.744  65.475 105.3000  0.00  0.00     0.000 HD
ATOM      9   O  GAD B   1      81.752  61.791 104.4310  0.00  0.00     0.000 O
ATOM     11  HD  GAD B   1      81.854  62.556 104.0380  0.00  0.00     0.000 HD
ENDROOT
BRANCH 5 11
ATOM     11   C  GAD B   1      83.702  63.500 100.4130  0.00  0.00     0.000 C
ATOM     12   O  GAD B   1      84.903  63.088 100.4020  0.00  0.00     0.000 OA
ATOM     13   O  GAD B   1      83.076  63.852  99.3460  0.00  0.00     0.000 OA
ENDBRANCH 5 11
BRANCH 1 14
ATOM     14  O3  ASG B   2      81.564  66.415 102.9700  0.00  0.00     0.000 O
BRANCH 14 17
ATOM     15  C1  ASG B   2      79.772  67.721  99.9100  0.00  0.00     0.000 C
ATOM     16  C2  ASG B   2      80.875  67.654 100.9760  0.00  0.00     0.000 C
ATOM     17  C3  ASG B   2      80.559  66.520 101.9550  0.00  0.00     0.000 C
ATOM     18  C4  ASG B   2      79.206  66.755 102.6000  0.00  0.00     0.000 C
ATOM     19  C5  ASG B   2      78.158  66.940 101.5070  0.00  0.00     0.000 C
ATOM     20  O5  ASG B   2      78.567  67.986 100.6040  0.00  0.00     0.000 O
ATOM     21   C  ASG B   2      76.823  67.342 102.0460  0.00  0.00     0.000 C
ATOM     22   O  ASG B   2      75.978  67.698 100.9800  0.00  0.00     0.000 O
ATOM     24  HD  ASG B   2      75.354  67.942 100.4310  0.00  0.00     0.000 HD
BRANCH 16 26
ATOM     24   N  ASG B   2      82.048  68.365 101.4320  0.00  0.00     0.000 N
ATOM     26  HD  ASG B   2      81.535  67.924 101.9730  0.00  0.00     0.000 HD
ATOM     26   C  ASG B   2      83.298  68.103 101.0100  0.00  0.00     0.000 C
ATOM     27   C  ASG B   2      84.324  69.140 101.3160  0.00  0.00     0.000 C
ATOM     28   O  ASG B   2      83.573  67.071 100.4110  0.00  0.00     0.000 OA
ENDBRANCH 16 26
BRANCH 18 29
ATOM     29   O  ASG B   2      79.352  67.940 103.4560  0.00  0.00     0.000 O
ATOM     30   O  ASG B   2      77.763  67.156 105.1590  0.00  0.00     0.000 OA
ATOM     31   O  ASG B   2      80.146  67.126 105.6210  0.00  0.00     0.000 OA
ATOM     32   O  ASG B   2      78.971  69.233 105.4610  0.00  0.00     0.000 OA
ATOM     33   S  ASG B   2      79.037  67.837 105.0280  0.00  0.00     0.000 S
ENDBRANCH 18 29
BRANCH 15 34
ATOM     34  O4  ASG B   3      79.970  68.726  98.9580  0.00  0.00     0.000 O
BRANCH 34 38
ATOM     35  C1  GCT B   3      82.937  66.919  96.8850  0.00  0.00     0.000 C
ATOM     36  C2  GCT B   3      82.926  68.427  96.7560  0.00  0.00     0.000 C
ATOM     37  C3  GCT B   3      82.100  69.059  97.8670  0.00  0.00     0.000 C
ATOM     38  C4  GCT B   3      80.662  68.532  97.7890  0.00  0.00     0.000 C
ATOM     39  C5  GCT B   3      80.607  67.065  97.3060  0.00  0.00     0.000 C
ATOM     40  O5  GCT B   3      81.840  66.472  97.6750  0.00  0.00     0.000 O
ATOM     41   O  GCT B   3      84.279  68.850  96.8460  0.00  0.00     0.000 O
ATOM     43  HD  GCT B   3      84.932  68.829  96.2780  0.00  0.00     0.000 HD
ATOM     43   O  GCT B   3      82.179  70.495  97.7380  0.00  0.00     0.000 O
ATOM     45  HD  GCT B   3      82.833  70.474  97.1710  0.00  0.00     0.000 HD
BRANCH 39 45
ATOM     45   C  GCT B   3      80.343  66.799  95.8400  0.00  0.00     0.000 C
ATOM     46   O  GCT B   3      80.250  65.601  95.4270  0.00  0.00     0.000 OA
ATOM     47   O  GCT B   3      80.211  67.780  95.0900  0.00  0.00     0.000 OA
ENDBRANCH 39 45
BRANCH 35 48
ATOM     48  O3  ASG B   4      83.425  66.392  95.7830  0.00  0.00     0.000 O
BRANCH 48 51
ATOM     49  C1  ASG B   4      85.632  63.520  96.5380  0.00  0.00     0.000 C
ATOM     50  C2  ASG B   4      85.112  64.966  96.4770  0.00  0.00     0.000 C
ATOM     51  C3  ASG B   4      83.663  65.011  95.9980  0.00  0.00     0.000 C
ATOM     52  C4  ASG B   4      83.480  64.204  94.7240  0.00  0.00     0.000 C
ATOM     53  C5  ASG B   4      84.005  62.793  94.9750  0.00  0.00     0.000 C
ATOM     54  O5  ASG B   4      85.407  62.863  95.3010  0.00  0.00     0.000 O
BRANCH 50 57
ATOM     55   N  ASG B   4      85.572  65.042  97.8450  0.00  0.00     0.000 N
ATOM     57  HD  ASG B   4      86.401  65.227  97.6770  0.00  0.00     0.000 HD
ATOM     57   O  ASG B   4      87.255  66.451  97.4040  0.00  0.00     0.000 OA
ATOM     58   C  ASG B   4      86.553  65.867  98.2230  0.00  0.00     0.000 C
ATOM     59   C  ASG B   4      86.766  65.986  99.7010  0.00  0.00     0.000 C
ENDBRANCH 50 57
BRANCH 52 60
ATOM     60   O  ASG B   4      84.243  64.976  93.7100  0.00  0.00     0.000 O
ATOM     61   O  ASG B   4      82.171  65.816  92.6010  0.00  0.00     0.000 OA
ATOM     62   O  ASG B   4      84.301  66.605  91.8860  0.00  0.00     0.000 OA
ATOM     63   O  ASG B   4      83.749  64.299  91.5780  0.00  0.00     0.000 OA
ATOM     64   S  ASG B   4      83.544  65.515  92.3710  0.00  0.00     0.000 S
ENDBRANCH 52 60
ATOM     65   O  ASG B   4      84.032  60.488  94.2230  0.00  0.00     0.000 O
ATOM     67  HD  ASG B   4      84.892  60.463  94.3210  0.00  0.00     0.000 HD
ATOM     67   O  ASG B   4      84.032  60.488  94.2230  0.00  0.00     0.000 O
ATOM     69  HD  ASG B   4      84.892  60.463  94.3210  0.00  0.00     0.000 HD
ENDBRANCH 48 51
ENDBRANCH 35 48
ENDBRANCH 34 38
ENDBRANCH 15 34
ENDBRANCH 14 17
ENDBRANCH 1 14
TORSDOF 12
ENDMDL
MODEL 96
REMARK VINA RESULT:      -0.8     79.743     84.748
ROOT
ATOM      1  C1  GAD B   1      95.336  65.044  44.3360  0.00  0.00     0.000 C
ATOM      2  C2  GAD B   1      95.465  64.520  42.9030  0.00  0.00     0.000 C
ATOM      3  C3  GAD B   1      95.064  65.612  41.9040  0.00  0.00     0.000 C
ATOM      4  C4  GAD B   1      93.980  66.568  42.4100  0.00  0.00     0.000 C
ATOM      5  C5  GAD B   1      93.508  66.580  43.6720  0.00  0.00     0.000 C
ATOM      6  O5  GAD B   1      94.033  65.594  44.5810  0.00  0.00     0.000 O
ATOM      7   O  GAD B   1      96.814  63.979  42.6470  0.00  0.00     0.000 O
ATOM      9  HD  GAD B   1      96.838  64.012  43.5120  0.00  0.00     0.000 HD
ATOM      9   O  GAD B   1      94.558  65.047  40.6740  0.00  0.00     0.000 O
ATOM     11  HD  GAD B   1      94.582  65.081  41.5390  0.00  0.00     0.000 HD
ENDROOT
BRANCH 5 11
ATOM     11   C  GAD B   1      92.537  67.568  44.2000  0.00  0.00     0.000 C
ATOM     12   O  GAD B   1      92.756  68.790  43.9310  0.00  0.00     0.000 OA
ATOM     13   O  GAD B   1      91.575  67.184  44.9620  0.00  0.00     0.000 OA
ENDBRANCH 5 11
BRANCH 1 14
ATOM     14  O3  ASG B   2      95.209  64.253  45.4170  0.00  0.00     0.000 O
BRANCH 14 17
ATOM     15  C1  ASG B   2      92.578  63.091  47.8690  0.00  0.00     0.000 C
ATOM     16  C2  ASG B   2      93.817  63.862  47.3920  0.00  0.00     0.000 C
ATOM     17  C3  ASG B   2      94.061  63.552  45.9120  0.00  0.00     0.000 C
ATOM     18  C4  ASG B   2      94.253  62.060  45.7200  0.00  0.00     0.000 C
ATOM     19  C5  ASG B   2      93.060  61.323  46.3190  0.00  0.00     0.000 C
ATOM     20  O5  ASG B   2      92.874  61.718  47.6930  0.00  0.00     0.000 O
ATOM     21   C  ASG B   2      93.239  59.838  46.3250  0.00  0.00     0.000 C
ATOM     22   O  ASG B   2      92.207  59.247  47.0770  0.00  0.00     0.000 O
ATOM     24  HD  ASG B   2      91.639  58.753  47.5030  0.00  0.00     0.000 HD
BRANCH 16 26
ATOM     24   N  ASG B   2      94.892  64.690  47.8890  0.00  0.00     0.000 N
ATOM     26  HD  ASG B   2      94.991  64.162  47.2110  0.00  0.00     0.000 HD
ATOM     26   C  ASG B   2      94.843  66.034  47.9450  0.00  0.00     0.000 C
ATOM     27   C  ASG B   2      95.878  66.693  48.7900  0.00  0.00     0.000 C
ATOM     28   O  ASG B   2      93.994  66.674  47.3360  0.00  0.00     0.000 OA
ENDBRANCH 16 26
BRANCH 18 29
ATOM     29   O  ASG B   2      95.523  61.715  46.3750  0.00  0.00     0.000 O
ATOM     30   O  ASG B   2      96.101  59.943  44.7730  0.00  0.00     0.000 OA
ATOM     31   O  ASG B   2      97.271  62.068  44.7030  0.00  0.00     0.000 OA
ATOM     32   O  ASG B   2      97.632  60.549  46.5480  0.00  0.00     0.000 OA
ATOM     33   S  ASG B   2      96.701  61.028  45.5260  0.00  0.00     0.000 S
ENDBRANCH 18 29
BRANCH 15 34
ATOM     34  O4  ASG B   3      92.264  63.311  49.2150  0.00  0.00     0.000 O
BRANCH 34 38
ATOM     35  C1  GCT B   3      90.743  67.037  48.8050  0.00  0.00     0.000 C
ATOM     36  C2  GCT B   3      91.265  66.734  50.1930  0.00  0.00     0.000 C
ATOM     37  C3  GCT B   3      92.194  65.528  50.1710  0.00  0.00     0.000 C
ATOM     38  C4  GCT B   3      91.427  64.311  49.6400  0.00  0.00     0.000 C
ATOM     39  C5  GCT B   3      90.383  64.704  48.5700  0.00  0.00     0.000 C
ATOM     40  O5  GCT B   3      90.855  65.895  47.9630  0.00  0.00     0.000 O
ATOM     41   O  GCT B   3      91.969  67.891  50.6200  0.00  0.00     0.000 O
ATOM     43  HD  GCT B   3      91.700  68.660  50.9140  0.00  0.00     0.000 HD
ATOM     43   O  GCT B   3      92.715  65.326  51.5010  0.00  0.00     0.000 O
ATOM     45  HD  GCT B   3      92.446  66.095  51.7960  0.00  0.00     0.000 HD
BRANCH 39 45
ATOM     45   C  GCT B   3      88.947  64.899  49.0030  0.00  0.00     0.000 C
ATOM     46   O  GCT B   3      88.062  65.180  48.1340  0.00  0.00     0.000 OA
ATOM     47   O  GCT B   3      88.682  64.761  50.2080  0.00  0.00     0.000 OA
ENDBRANCH 39 45
BRANCH 35 48
ATOM     48  O3  ASG B   4      89.754  67.900  48.8910  0.00  0.00     0.000 O
BRANCH 48 51
ATOM     49  C1  ASG B   4      89.916  70.399  46.1670  0.00  0.00     0.000 C
ATOM     50  C2  ASG B   4      90.301  69.613  47.4320  0.00  0.00     0.000 C
ATOM     51  C3  ASG B   4      89.434  68.366  47.5910  0.00  0.00     0.000 C
ATOM     52  C4  ASG B   4      87.957  68.702  47.4620  0.00  0.00     0.000 C
ATOM     53  C5  ASG B   4      87.751  69.436  46.1400  0.00  0.00     0.000 C
ATOM     54  O5  ASG B   4      88.521  70.654  46.1510  0.00  0.00     0.000 O
BRANCH 50 57
ATOM     55   N  ASG B   4      91.640  69.669  46.8940  0.00  0.00     0.000 N
ATOM     57  HD  ASG B   4      91.852  70.453  47.1940  0.00  0.00     0.000 HD
ATOM     57   O  ASG B   4      92.420  71.064  48.4620  0.00  0.00     0.000 OA
ATOM     58   C  ASG B   4      92.632  70.313  47.5150  0.00  0.00     0.000 C
ATOM     59   C  ASG B   4      94.001  70.099  46.9460  0.00  0.00     0.000 C
ENDBRANCH 50 57
BRANCH 52 60
ATOM     60   O  ASG B   4      87.680  69.520  48.6720  0.00  0.00     0.000 O
ATOM     61   O  ASG B   4      86.408  67.680  49.7810  0.00  0.00     0.000 OA
ATOM     62   O  ASG B   4      86.845  69.700  50.9640  0.00  0.00     0.000 OA
ATOM     63   O  ASG B   4      85.432  69.760  49.0350  0.00  0.00     0.000 OA
ATOM     64   S  ASG B   4      86.545  69.097  49.7210  0.00  0.00     0.000 S
ENDBRANCH 52 60
ATOM     65   O  ASG B   4      86.156  70.157  44.4620  0.00  0.00     0.000 O
ATOM     67  HD  ASG B   4      86.513  70.945  44.4570  0.00  0.00     0.000 HD
ATOM     67   O  ASG B   4      86.156  70.157  44.4620  0.00  0.00     0.000 O
ATOM     69  HD  ASG B   4      86.513  70.945  44.4570  0.00  0.00     0.000 HD
ENDBRANCH 48 51
ENDBRANCH 35 48
ENDBRANCH 34 38
ENDBRANCH 15 34
ENDBRANCH 14 17
ENDBRANCH 1 14
TORSDOF 12
ENDMDL
MODEL 97
REMARK VINA RESULT:      -0.8     88.705     92.610
ROOT
ATOM      1  C1  GAD B   1      97.944  49.808  19.0530  0.00  0.00     0.000 C
ATOM      2  C2  GAD B   1      99.442  49.769  18.7390  0.00  0.00     0.000 C
ATOM      3  C3  GAD B   1      99.835  50.985  17.8910  0.00  0.00     0.000 C
ATOM      4  C4  GAD B   1      98.738  51.479  16.9440  0.00  0.00     0.000 C
ATOM      5  C5  GAD B   1      97.473  51.015  16.9400  0.00  0.00     0.000 C
ATOM      6  O5  GAD B   1      97.159  49.952  17.8600  0.00  0.00     0.000 O
ATOM      7   O  GAD B   1     100.247  49.646  19.9700  0.00  0.00     0.000 O
ATOM      9  HD  GAD B   1      99.471  49.431  20.2880  0.00  0.00     0.000 HD
ATOM      9   O  GAD B   1     100.984  50.704  17.0610  0.00  0.00     0.000 O
ATOM     11  HD  GAD B   1     100.208  50.489  17.3790  0.00  0.00     0.000 HD
ENDROOT
BRANCH 5 11
ATOM     11   C  GAD B   1      96.377  51.558  16.1030  0.00  0.00     0.000 C
ATOM     12   O  GAD B   1      96.254  52.822  16.0670  0.00  0.00     0.000 OA
ATOM     13   O  GAD B   1      95.555  50.761  15.5180  0.00  0.00     0.000 OA
ENDBRANCH 5 11
BRANCH 1 14
ATOM     14  O3  ASG B   2      97.220  48.728  19.4020  0.00  0.00     0.000 O
BRANCH 14 17
ATOM     15  C1  ASG B   2      94.685  46.338  17.9410  0.00  0.00     0.000 C
ATOM     16  C2  ASG B   2      95.197  47.474  18.8380  0.00  0.00     0.000 C
ATOM     17  C3  ASG B   2      96.695  47.673  18.5890  0.00  0.00     0.000 C
ATOM     18  C4  ASG B   2      97.443  46.386  18.8770  0.00  0.00     0.000 C
ATOM     19  C5  ASG B   2      96.825  45.256  18.0600  0.00  0.00     0.000 C
ATOM     20  O5  ASG B   2      95.408  45.180  18.3160  0.00  0.00     0.000 O
ATOM     21   C  ASG B   2      97.391  43.915  18.4040  0.00  0.00     0.000 C
ATOM     22   O  ASG B   2      96.631  42.913  17.7740  0.00  0.00     0.000 O
ATOM     24  HD  ASG B   2      96.261  42.200  17.4510  0.00  0.00     0.000 HD
BRANCH 16 26
ATOM     24   N  ASG B   2      94.773  48.341  19.9130  0.00  0.00     0.000 N
ATOM     26  HD  ASG B   2      95.591  48.071  19.8330  0.00  0.00     0.000 HD
ATOM     26   C  ASG B   2      94.238  49.562  19.7280  0.00  0.00     0.000 C
ATOM     27   C  ASG B   2      93.552  50.163  20.9070  0.00  0.00     0.000 C
ATOM     28   O  ASG B   2      94.313  50.142  18.6520  0.00  0.00     0.000 OA
ENDBRANCH 16 26
BRANCH 18 29
ATOM     29   O  ASG B   2      97.346  46.162  20.3260  0.00  0.00     0.000 O
ATOM     30   O  ASG B   2      99.561  45.113  20.5170  0.00  0.00     0.000 OA
ATOM     31   O  ASG B   2      99.216  47.373  21.3320  0.00  0.00     0.000 OA
ATOM     32   O  ASG B   2      98.206  45.505  22.4860  0.00  0.00     0.000 OA
ATOM     33   S  ASG B   2      98.682  46.037  21.2090  0.00  0.00     0.000 S
ENDBRANCH 18 29
BRANCH 15 34
ATOM     34  O4  ASG B   3      93.318  46.078  18.0890  0.00  0.00     0.000 O
BRANCH 34 38
ATOM     35  C1  GCT B   3      91.941  49.315  16.0920  0.00  0.00     0.000 C
ATOM     36  C2  GCT B   3      90.960  48.746  17.0940  0.00  0.00     0.000 C
ATOM     37  C3  GCT B   3      91.669  47.842  18.0930  0.00  0.00     0.000 C
ATOM     38  C4  GCT B   3      92.348  46.693  17.3390  0.00  0.00     0.000 C
ATOM     39  C5  GCT B   3      92.865  47.135  15.9510  0.00  0.00     0.000 C
ATOM     40  O5  GCT B   3      93.124  48.525  16.0400  0.00  0.00     0.000 O
ATOM     41   O  GCT B   3      90.376  49.856  17.7620  0.00  0.00     0.000 O
ATOM     43  HD  GCT B   3      89.767  50.423  17.5220  0.00  0.00     0.000 HD
ATOM     43   O  GCT B   3      90.704  47.384  19.0630  0.00  0.00     0.000 O
ATOM     45  HD  GCT B   3      90.094  47.951  18.8240  0.00  0.00     0.000 HD
BRANCH 39 45
ATOM     45   C  GCT B   3      91.998  46.864  14.7410  0.00  0.00     0.000 C
ATOM     46   O  GCT B   3      92.420  47.179  13.5840  0.00  0.00     0.000 OA
ATOM     47   O  GCT B   3      90.895  46.324  14.9290  0.00  0.00     0.000 OA
ENDBRANCH 39 45
BRANCH 35 48
ATOM     48  O3  ASG B   4      91.278  49.868  15.1000  0.00  0.00     0.000 O
BRANCH 48 51
ATOM     49  C1  ASG B   4      92.879  53.022  14.0130  0.00  0.00     0.000 C
ATOM     50  C2  ASG B   4      92.137  52.009  14.9010  0.00  0.00     0.000 C
ATOM     51  C3  ASG B   4      92.181  50.608  14.2970  0.00  0.00     0.000 C
ATOM     52  C4  ASG B   4      91.753  50.624  12.8380  0.00  0.00     0.000 C
ATOM     53  C5  ASG B   4      92.617  51.645  12.1020  0.00  0.00     0.000 C
ATOM     54  O5  ASG B   4      92.403  52.948  12.6790  0.00  0.00     0.000 O
BRANCH 50 57
ATOM     55   N  ASG B   4      92.983  52.521  15.9550  0.00  0.00     0.000 N
ATOM     57  HD  ASG B   4      92.502  53.210  16.1640  0.00  0.00     0.000 HD
ATOM     57   O  ASG B   4      91.321  53.537  17.0600  0.00  0.00     0.000 OA
ATOM     58   C  ASG B   4      92.490  53.164  17.0170  0.00  0.00     0.000 C
ATOM     59   C  ASG B   4      93.466  53.440  18.1190  0.00  0.00     0.000 C
ENDBRANCH 50 57
BRANCH 52 60
ATOM     60   O  ASG B   4      90.310  50.969  12.9040  0.00  0.00     0.000 O
ATOM     61   O  ASG B   4      89.598  48.648  12.3210  0.00  0.00     0.000 OA
ATOM     62   O  ASG B   4      87.963  50.279  12.9000  0.00  0.00     0.000 OA
ATOM     63   O  ASG B   4      89.254  50.578  10.9090  0.00  0.00     0.000 OA
ATOM     64   S  ASG B   4      89.195  50.013  12.2600  0.00  0.00     0.000 S
ENDBRANCH 52 60
ATOM     65   O  ASG B   4      93.401  52.443   9.9510  0.00  0.00     0.000 O
ATOM     67  HD  ASG B   4      93.233  53.259  10.1890  0.00  0.00     0.000 HD
ATOM     67   O  ASG B   4      93.401  52.443   9.9510  0.00  0.00     0.000 O
ATOM     69  HD  ASG B   4      93.233  53.259  10.1890  0.00  0.00     0.000 HD
ENDBRANCH 48 51
ENDBRANCH 35 48
ENDBRANCH 34 38
ENDBRANCH 15 34
ENDBRANCH 14 17
ENDBRANCH 1 14
TORSDOF 12
ENDMDL
MODEL 98
REMARK VINA RESULT:      -0.8     74.597     78.810
ROOT
ATOM      1  C1  GAD B   1      81.283  58.696  32.4630  0.00  0.00     0.000 C
ATOM      2  C2  GAD B   1      79.872  59.051  32.9410  0.00  0.00     0.000 C
ATOM      3  C3  GAD B   1      79.142  59.867  31.8670  0.00  0.00     0.000 C
ATOM      4  C4  GAD B   1      80.052  60.766  31.0250  0.00  0.00     0.000 C
ATOM      5  C5  GAD B   1      81.398  60.752  31.0850  0.00  0.00     0.000 C
ATOM      6  O5  GAD B   1      82.006  59.862  32.0400  0.00  0.00     0.000 O
ATOM      7   O  GAD B   1      79.124  57.847  33.3510  0.00  0.00     0.000 O
ATOM      9  HD  GAD B   1      79.924  57.516  33.3350  0.00  0.00     0.000 HD
ATOM      9   O  GAD B   1      78.145  60.736  32.4470  0.00  0.00     0.000 O
ATOM     11  HD  GAD B   1      78.945  60.405  32.4310  0.00  0.00     0.000 HD
ENDROOT
BRANCH 5 11
ATOM     11   C  GAD B   1      82.289  61.540  30.2010  0.00  0.00     0.000 C
ATOM     12   O  GAD B   1      82.024  61.530  28.9590  0.00  0.00     0.000 OA
ATOM     13   O  GAD B   1      83.324  62.130  30.6870  0.00  0.00     0.000 OA
ENDBRANCH 5 11
BRANCH 1 14
ATOM     14  O3  ASG B   2      82.295  58.365  33.2870  0.00  0.00     0.000 O
BRANCH 14 17
ATOM     15  C1  ASG B   2      85.458  59.839  34.7360  0.00  0.00     0.000 C
ATOM     16  C2  ASG B   2      84.612  58.918  33.8460  0.00  0.00     0.000 C
ATOM     17  C3  ASG B   2      83.128  59.200  34.0990  0.00  0.00     0.000 C
ATOM     18  C4  ASG B   2      82.801  58.977  35.5630  0.00  0.00     0.000 C
ATOM     19  C5  ASG B   2      83.746  59.815  36.4190  0.00  0.00     0.000 C
ATOM     20  O5  ASG B   2      85.114  59.524  36.0730  0.00  0.00     0.000 O
ATOM     21   C  ASG B   2      83.607  59.533  37.8800  0.00  0.00     0.000 C
ATOM     22   O  ASG B   2      84.645  60.177  38.5790  0.00  0.00     0.000 O
ATOM     24  HD  ASG B   2      85.219  60.514  39.1330  0.00  0.00     0.000 HD
BRANCH 16 26
ATOM     24   N  ASG B   2      84.737  57.803  32.9360  0.00  0.00     0.000 N
ATOM     26  HD  ASG B   2      84.040  57.914  33.4380  0.00  0.00     0.000 HD
ATOM     26   C  ASG B   2      84.879  57.931  31.6030  0.00  0.00     0.000 C
ATOM     27   C  ASG B   2      85.333  56.714  30.8730  0.00  0.00     0.000 C
ATOM     28   O  ASG B   2      84.648  58.988  31.0300  0.00  0.00     0.000 OA
ENDBRANCH 16 26
BRANCH 18 29
ATOM     29   O  ASG B   2      82.940  57.534  35.8070  0.00  0.00     0.000 O
ATOM     30   O  ASG B   2      81.145  57.438  37.4830  0.00  0.00     0.000 OA
ATOM     31   O  ASG B   2      80.776  56.537  35.2600  0.00  0.00     0.000 OA
ATOM     32   O  ASG B   2      82.288  55.422  36.7810  0.00  0.00     0.000 OA
ATOM     33   S  ASG B   2      81.691  56.692  36.3650  0.00  0.00     0.000 S
ENDBRANCH 18 29
BRANCH 15 34
ATOM     34  O4  ASG B   3      86.837  59.664  34.5770  0.00  0.00     0.000 O
BRANCH 34 38
ATOM     35  C1  GCT B   3      87.197  61.510  30.9950  0.00  0.00     0.000 C
ATOM     36  C2  GCT B   3      88.289  60.502  31.2810  0.00  0.00     0.000 C
ATOM     37  C3  GCT B   3      87.873  59.555  32.3970  0.00  0.00     0.000 C
ATOM     38  C4  GCT B   3      87.586  60.366  33.6660  0.00  0.00     0.000 C
ATOM     39  C5  GCT B   3      86.980  61.751  33.3440  0.00  0.00     0.000 C
ATOM     40  O5  GCT B   3      86.310  61.621  32.1030  0.00  0.00     0.000 O
ATOM     41   O  GCT B   3      88.499  59.782  30.0750  0.00  0.00     0.000 O
ATOM     43  HD  GCT B   3      88.911  59.985  29.3410  0.00  0.00     0.000 HD
ATOM     43   O  GCT B   3      88.917  58.575  32.5820  0.00  0.00     0.000 O
ATOM     45  HD  GCT B   3      89.329  58.779  31.8480  0.00  0.00     0.000 HD
BRANCH 39 45
ATOM     45   C  GCT B   3      87.906  62.946  33.2900  0.00  0.00     0.000 C
ATOM     46   O  GCT B   3      87.426  64.103  33.0710  0.00  0.00     0.000 OA
ATOM     47   O  GCT B   3      89.118  62.748  33.4790  0.00  0.00     0.000 OA
ENDBRANCH 39 45
BRANCH 35 48
ATOM     48  O3  ASG B   4      87.676  62.465  30.2270  0.00  0.00     0.000 O
BRANCH 48 51
ATOM     49  C1  ASG B   4      85.210  63.484  27.6630  0.00  0.00     0.000 C
ATOM     50  C2  ASG B   4      86.211  62.612  28.4400  0.00  0.00     0.000 C
ATOM     51  C3  ASG B   4      86.603  63.265  29.7620  0.00  0.00     0.000 C
ATOM     52  C4  ASG B   4      87.027  64.710  29.5570  0.00  0.00     0.000 C
ATOM     53  C5  ASG B   4      85.906  65.434  28.8160  0.00  0.00     0.000 C
ATOM     54  O5  ASG B   4      85.706  64.806  27.5350  0.00  0.00     0.000 O
BRANCH 50 57
ATOM     55   N  ASG B   4      85.233  61.564  28.2510  0.00  0.00     0.000 N
ATOM     57  HD  ASG B   4      85.480  61.318  27.4590  0.00  0.00     0.000 HD
ATOM     57   O  ASG B   4      86.492  60.380  26.8270  0.00  0.00     0.000 OA
ATOM     58   C  ASG B   4      85.493  60.467  27.5340  0.00  0.00     0.000 C
ATOM     59   C  ASG B   4      84.462  59.383  27.6120  0.00  0.00     0.000 C
ENDBRANCH 50 57
BRANCH 52 60
ATOM     60   O  ASG B   4      88.298  64.594  28.7950  0.00  0.00     0.000 O
ATOM     61   O  ASG B   4      89.688  65.238  30.7660  0.00  0.00     0.000 OA
ATOM     62   O  ASG B   4      90.743  64.559  28.7420  0.00  0.00     0.000 OA
ATOM     63   O  ASG B   4      89.452  66.572  28.7660  0.00  0.00     0.000 OA
ATOM     64   S  ASG B   4      89.659  65.240  29.3420  0.00  0.00     0.000 S
ENDBRANCH 52 60
ATOM     65   O  ASG B   4      84.950  67.576  28.2040  0.00  0.00     0.000 O
ATOM     67  HD  ASG B   4      84.859  67.306  27.3870  0.00  0.00     0.000 HD
ATOM     67   O  ASG B   4      84.950  67.576  28.2040  0.00  0.00     0.000 O
ATOM     69  HD  ASG B   4      84.859  67.306  27.3870  0.00  0.00     0.000 HD
ENDBRANCH 48 51
ENDBRANCH 35 48
ENDBRANCH 34 38
ENDBRANCH 15 34
ENDBRANCH 14 17
ENDBRANCH 1 14
TORSDOF 12
ENDMDL
MODEL 99
REMARK VINA RESULT:      -0.8     82.559     87.024
ROOT
ATOM      1  C1  GAD B   1      91.606  64.492  39.1270  0.00  0.00     0.000 C
ATOM      2  C2  GAD B   1      90.108  64.191  39.2450  0.00  0.00     0.000 C
ATOM      3  C3  GAD B   1      89.328  64.978  38.1860  0.00  0.00     0.000 C
ATOM      4  C4  GAD B   1      89.938  66.335  37.8250  0.00  0.00     0.000 C
ATOM      5  C5  GAD B   1      91.140  66.767  38.2590  0.00  0.00     0.000 C
ATOM      6  O5  GAD B   1      91.863  65.904  39.1580  0.00  0.00     0.000 O
ATOM      7   O  GAD B   1      89.846  62.740  39.1890  0.00  0.00     0.000 O
ATOM      9  HD  GAD B   1      90.699  62.722  39.3360  0.00  0.00     0.000 HD
ATOM      9   O  GAD B   1      87.975  65.250  38.6160  0.00  0.00     0.000 O
ATOM     11  HD  GAD B   1      88.828  65.232  38.7640  0.00  0.00     0.000 HD
ENDROOT
BRANCH 5 11
ATOM     11   C  GAD B   1      91.787  68.029  37.8320  0.00  0.00     0.000 C
ATOM     12   O  GAD B   1      91.787  68.283  36.5880  0.00  0.00     0.000 OA
ATOM     13   O  GAD B   1      92.385  68.773  38.6950  0.00  0.00     0.000 OA
ENDBRANCH 5 11
BRANCH 1 14
ATOM     14  O3  ASG B   2      92.490  64.307  40.1250  0.00  0.00     0.000 O
BRANCH 14 17
ATOM     15  C1  ASG B   2      94.459  66.295  42.6640  0.00  0.00     0.000 C
ATOM     16  C2  ASG B   2      94.239  65.435  41.4120  0.00  0.00     0.000 C
ATOM     17  C3  ASG B   2      92.749  65.107  41.2840  0.00  0.00     0.000 C
ATOM     18  C4  ASG B   2      92.270  64.377  42.5240  0.00  0.00     0.000 C
ATOM     19  C5  ASG B   2      92.619  65.207  43.7560  0.00  0.00     0.000 C
ATOM     20  O5  ASG B   2      94.027  65.513  43.7620  0.00  0.00     0.000 O
ATOM     21   C  ASG B   2      92.334  64.490  45.0370  0.00  0.00     0.000 C
ATOM     22   O  ASG B   2      92.874  65.221  46.1100  0.00  0.00     0.000 O
ATOM     24  HD  ASG B   2      93.148  65.562  46.8580  0.00  0.00     0.000 HD
BRANCH 16 26
ATOM     24   N  ASG B   2      94.971  64.740  40.3780  0.00  0.00     0.000 N
ATOM     26  HD  ASG B   2      94.207  64.457  40.6740  0.00  0.00     0.000 HD
ATOM     26   C  ASG B   2      95.296  65.284  39.1900  0.00  0.00     0.000 C
ATOM     27   C  ASG B   2      96.329  64.558  38.3990  0.00  0.00     0.000 C
ATOM     28   O  ASG B   2      94.771  66.315  38.7880  0.00  0.00     0.000 OA
ENDBRANCH 16 26
BRANCH 18 29
ATOM     29   O  ASG B   2      92.930  63.065  42.5160  0.00  0.00     0.000 O
ATOM     30   O  ASG B   2      91.045  61.885  43.5650  0.00  0.00     0.000 OA
ATOM     31   O  ASG B   2      91.494  61.588  41.1980  0.00  0.00     0.000 OA
ATOM     32   O  ASG B   2      93.012  60.672  42.8420  0.00  0.00     0.000 OA
ATOM     33   S  ASG B   2      92.045  61.723  42.5260  0.00  0.00     0.000 S
ENDBRANCH 18 29
BRANCH 15 34
ATOM     34  O4  ASG B   3      95.795  66.656  42.8710  0.00  0.00     0.000 O
BRANCH 34 38
ATOM     35  C1  GCT B   3      96.047  69.454  39.9610  0.00  0.00     0.000 C
ATOM     36  C2  GCT B   3      97.378  68.844  40.3450  0.00  0.00     0.000 C
ATOM     37  C3  GCT B   3      97.177  67.535  41.0950  0.00  0.00     0.000 C
ATOM     38  C4  GCT B   3      96.355  67.800  42.3620  0.00  0.00     0.000 C
ATOM     39  C5  GCT B   3      95.315  68.925  42.1540  0.00  0.00     0.000 C
ATOM     40  O5  GCT B   3      95.000  68.934  40.7720  0.00  0.00     0.000 O
ATOM     41   O  GCT B   3      98.082  68.615  39.1330  0.00  0.00     0.000 O
ATOM     43  HD  GCT B   3      98.507  69.148  38.5990  0.00  0.00     0.000 HD
ATOM     43   O  GCT B   3      98.472  66.963  41.3760  0.00  0.00     0.000 O
ATOM     45  HD  GCT B   3      98.897  67.495  40.8420  0.00  0.00     0.000 HD
BRANCH 39 45
ATOM     45   C  GCT B   3      95.674  70.327  42.5940  0.00  0.00     0.000 C
ATOM     46   O  GCT B   3      94.820  71.261  42.4740  0.00  0.00     0.000 OA
ATOM     47   O  GCT B   3      96.804  70.510  43.0760  0.00  0.00     0.000 OA
ENDBRANCH 39 45
BRANCH 35 48
ATOM     48  O3  ASG B   4      96.237  70.692  39.5580  0.00  0.00     0.000 O
BRANCH 48 51
ATOM     49  C1  ASG B   4      94.098  71.493  36.6460  0.00  0.00     0.000 C
ATOM     50  C2  ASG B   4      95.200  70.833  37.4920  0.00  0.00     0.000 C
ATOM     51  C3  ASG B   4      95.040  71.174  38.9710  0.00  0.00     0.000 C
ATOM     52  C4  ASG B   4      94.877  72.672  39.1760  0.00  0.00     0.000 C
ATOM     53  C5  ASG B   4      93.721  73.148  38.3010  0.00  0.00     0.000 C
ATOM     54  O5  ASG B   4      94.035  72.884  36.9190  0.00  0.00     0.000 O
BRANCH 50 57
ATOM     55   N  ASG B   4      94.781  69.615  36.8370  0.00  0.00     0.000 N
ATOM     57  HD  ASG B   4      95.250  69.706  36.1150  0.00  0.00     0.000 HD
ATOM     57   O  ASG B   4      96.653  69.393  35.6280  0.00  0.00     0.000 OA
ATOM     58   C  ASG B   4      95.590  68.926  36.0260  0.00  0.00     0.000 C
ATOM     59   C  ASG B   4      95.088  67.581  35.6000  0.00  0.00     0.000 C
ENDBRANCH 50 57
BRANCH 52 60
ATOM     60   O  ASG B   4      96.205  73.220  38.7970  0.00  0.00     0.000 O
ATOM     61   O  ASG B   4      96.822  73.709  41.1660  0.00  0.00     0.000 OA
ATOM     62   O  ASG B   4      98.420  74.041  39.4320  0.00  0.00     0.000 OA
ATOM     63   O  ASG B   4      96.449  75.394  39.4760  0.00  0.00     0.000 OA
ATOM     64   S  ASG B   4      97.063  74.108  39.8200  0.00  0.00     0.000 S
ENDBRANCH 52 60
ATOM     65   O  ASG B   4      92.116  74.913  37.8660  0.00  0.00     0.000 O
ATOM     67  HD  ASG B   4      92.297  74.873  37.0200  0.00  0.00     0.000 HD
ATOM     67   O  ASG B   4      92.116  74.913  37.8660  0.00  0.00     0.000 O
ATOM     69  HD  ASG B   4      92.297  74.873  37.0200  0.00  0.00     0.000 HD
ENDBRANCH 48 51
ENDBRANCH 35 48
ENDBRANCH 34 38
ENDBRANCH 15 34
ENDBRANCH 14 17
ENDBRANCH 1 14
TORSDOF 12
ENDMDL
MODEL 100
REMARK VINA RESULT:      -0.8     52.788     57.472
ROOT
ATOM      1  C1  GAD B   1      56.847  81.064  68.3800  0.00  0.00     0.000 C
ATOM      2  C2  GAD B   1      57.848  82.098  67.8570  0.00  0.00     0.000 C
ATOM      3  C3  GAD B   1      58.240  81.767  66.4120  0.00  0.00     0.000 C
ATOM      4  C4  GAD B   1      58.248  80.272  66.0830  0.00  0.00     0.000 C
ATOM      5  C5  GAD B   1      57.803  79.309  66.9150  0.00  0.00     0.000 C
ATOM      6  O5  GAD B   1      57.335  79.725  68.2120  0.00  0.00     0.000 O
ATOM      7   O  GAD B   1      57.332  83.472  68.0090  0.00  0.00     0.000 O
ATOM      9  HD  GAD B   1      56.782  83.057  68.5340  0.00  0.00     0.000 HD
ATOM      9   O  GAD B   1      59.564  82.254  66.0960  0.00  0.00     0.000 O
ATOM     11  HD  GAD B   1      59.014  81.839  66.6210  0.00  0.00     0.000 HD
ENDROOT
BRANCH 5 11
ATOM     11   C  GAD B   1      57.707  77.872  66.5670  0.00  0.00     0.000 C
ATOM     12   O  GAD B   1      57.193  77.586  65.4410  0.00  0.00     0.000 OA
ATOM     13   O  GAD B   1      58.060  76.976  67.4190  0.00  0.00     0.000 OA
ENDBRANCH 5 11
BRANCH 1 14
ATOM     14  O3  ASG B   2      56.629  80.823  69.6870  0.00  0.00     0.000 O
BRANCH 14 17
ATOM     15  C1  ASG B   2      57.429  78.250  72.3360  0.00  0.00     0.000 C
ATOM     16  C2  ASG B   2      56.548  79.030  71.3490  0.00  0.00     0.000 C
ATOM     17  C3  ASG B   2      57.407  80.069  70.6240  0.00  0.00     0.000 C
ATOM     18  C4  ASG B   2      58.044  81.009  71.6300  0.00  0.00     0.000 C
ATOM     19  C5  ASG B   2      58.807  80.187  72.6650  0.00  0.00     0.000 C
ATOM     20  O5  ASG B   2      57.935  79.202  73.2520  0.00  0.00     0.000 O
ATOM     21   C  ASG B   2      59.331  81.018  73.7920  0.00  0.00     0.000 C
ATOM     22   O  ASG B   2      59.829  80.174  74.8000  0.00  0.00     0.000 O
ATOM     24  HD  ASG B   2      60.171  79.783  75.4930  0.00  0.00     0.000 HD
BRANCH 16 26
ATOM     24   N  ASG B   2      55.168  79.192  70.9540  0.00  0.00     0.000 N
ATOM     26  HD  ASG B   2      55.738  79.842  70.9180  0.00  0.00     0.000 HD
ATOM     26   C  ASG B   2      54.581  78.493  69.9640  0.00  0.00     0.000 C
ATOM     27   C  ASG B   2      53.092  78.539  69.9230  0.00  0.00     0.000 C
ATOM     28   O  ASG B   2      55.237  77.858  69.1480  0.00  0.00     0.000 OA
ENDBRANCH 16 26
BRANCH 18 29
ATOM     29   O  ASG B   2      56.950  81.793  72.2190  0.00  0.00     0.000 O
ATOM     30   O  ASG B   2      58.296  83.829  72.5110  0.00  0.00     0.000 OA
ATOM     31   O  ASG B   2      56.627  83.722  70.7520  0.00  0.00     0.000 OA
ATOM     32   O  ASG B   2      55.940  83.817  73.0680  0.00  0.00     0.000 OA
ATOM     33   S  ASG B   2      56.969  83.397  72.1170  0.00  0.00     0.000 S
ENDBRANCH 18 29
BRANCH 15 34
ATOM     34  O4  ASG B   3      56.737  77.266  73.0500  0.00  0.00     0.000 O
BRANCH 34 38
ATOM     35  C1  GCT B   3      56.378  74.580  70.0460  0.00  0.00     0.000 C
ATOM     36  C2  GCT B   3      55.327  74.440  71.1270  0.00  0.00     0.000 C
ATOM     37  C3  GCT B   3      55.243  75.705  71.9680  0.00  0.00     0.000 C
ATOM     38  C4  GCT B   3      56.607  75.970  72.6170  0.00  0.00     0.000 C
ATOM     39  C5  GCT B   3      57.777  75.530  71.7090  0.00  0.00     0.000 C
ATOM     40  O5  GCT B   3      57.305  75.608  70.3750  0.00  0.00     0.000 O
ATOM     41   O  GCT B   3      54.094  74.207  70.4620  0.00  0.00     0.000 O
ATOM     43  HD  GCT B   3      53.763  73.503  70.0820  0.00  0.00     0.000 HD
ATOM     43   O  GCT B   3      54.184  75.545  72.9350  0.00  0.00     0.000 O
ATOM     45  HD  GCT B   3      53.853  74.841  72.5540  0.00  0.00     0.000 HD
BRANCH 39 45
ATOM     45   C  GCT B   3      58.397  74.170  71.9410  0.00  0.00     0.000 C
ATOM     46   O  GCT B   3      59.389  73.803  71.2360  0.00  0.00     0.000 OA
ATOM     47   O  GCT B   3      57.911  73.459  72.8370  0.00  0.00     0.000 OA
ENDBRANCH 39 45
BRANCH 35 48
ATOM     48  O3  ASG B   4      56.613  73.401  69.5130  0.00  0.00     0.000 O
BRANCH 48 51
ATOM     49  C1  ASG B   4      57.050  73.653  65.8470  0.00  0.00     0.000 C
ATOM     50  C2  ASG B   4      56.376  73.699  67.2290  0.00  0.00     0.000 C
ATOM     51  C3  ASG B   4      57.404  73.570  68.3490  0.00  0.00     0.000 C
ATOM     52  C4  ASG B   4      58.325  72.384  68.1180  0.00  0.00     0.000 C
ATOM     53  C5  ASG B   4      58.938  72.522  66.7270  0.00  0.00     0.000 C
ATOM     54  O5  ASG B   4      57.884  72.511  65.7440  0.00  0.00     0.000 O
BRANCH 50 57
ATOM     55   N  ASG B   4      55.776  74.921  66.7440  0.00  0.00     0.000 N
ATOM     57  HD  ASG B   4      55.112  74.562  66.3200  0.00  0.00     0.000 HD
ATOM     57   O  ASG B   4      53.704  74.082  66.6190  0.00  0.00     0.000 OA
ATOM     58   C  ASG B   4      54.457  75.050  66.5740  0.00  0.00     0.000 C
ATOM     59   C  ASG B   4      53.975  76.436  66.2740  0.00  0.00     0.000 C
ENDBRANCH 50 57
BRANCH 52 60
ATOM     60   O  ASG B   4      57.429  71.211  68.2840  0.00  0.00     0.000 O
ATOM     61   O  ASG B   4      58.419  70.605  70.4940  0.00  0.00     0.000 OA
ATOM     62   O  ASG B   4      56.535  69.404  69.6700  0.00  0.00     0.000 OA
ATOM     63   O  ASG B   4      58.613  69.261  68.4960  0.00  0.00     0.000 OA
ATOM     64   S  ASG B   4      57.745  70.066  69.3610  0.00  0.00     0.000 S
ENDBRANCH 52 60
ATOM     65   O  ASG B   4      60.700  71.812  65.2200  0.00  0.00     0.000 O
ATOM     67  HD  ASG B   4      60.120  71.706  64.5860  0.00  0.00     0.000 HD
ATOM     67   O  ASG B   4      60.700  71.812  65.2200  0.00  0.00     0.000 O
ATOM     69  HD  ASG B   4      60.120  71.706  64.5860  0.00  0.00     0.000 HD
ENDBRANCH 48 51
ENDBRANCH 35 48
ENDBRANCH 34 38
ENDBRANCH 15 34
ENDBRANCH 14 17
ENDBRANCH 1 14
TORSDOF 12
ENDMDL
