MODEL 1
REMARK VINA RESULT:      -6.8      0.000      0.000
ROOT
ATOM      1  C1  NAG B   1       8.032  21.503   5.9400  0.00  0.00     0.000 C
ATOM      2  C2  NAG B   1       6.606  21.665   5.4210  0.00  0.00     0.000 C
ATOM      3  C3  NAG B   1       6.580  22.106   3.9720  0.00  0.00     0.000 C
ATOM      4  C4  NAG B   1       7.366  23.413   3.9290  0.00  0.00     0.000 C
ATOM      5  C5  NAG B   1       8.820  23.139   4.3370  0.00  0.00     0.000 C
ATOM      6  O5  NAG B   1       8.894  22.623   5.6840  0.00  0.00     0.000 O
ATOM      7   O  NAG B   1       5.232  22.300   3.4850  0.00  0.00     0.000 O
ATOM      9  HD  NAG B   1       5.140  21.633   4.0310  0.00  0.00     0.000 HD
ATOM      9   O  NAG B   1       7.330  23.962   2.6220  0.00  0.00     0.000 O
ATOM     11  HD  NAG B   1       7.237  23.295   3.1680  0.00  0.00     0.000 HD
ATOM     11   C  NAG B   1       9.659  24.411   4.1690  0.00  0.00     0.000 C
ATOM     12   O  NAG B   1      10.750  24.437   5.0880  0.00  0.00     0.000 O
ATOM     14  HD  NAG B   1      10.658  23.770   5.6340  0.00  0.00     0.000 HD
ENDROOT
BRANCH 2 16
ATOM     14   N  NAG B   1       5.797  20.442   5.5720  0.00  0.00     0.000 N
ATOM     16  HD  NAG B   1       5.704  19.734   6.0610  0.00  0.00     0.000 HD
ATOM     16   C  NAG B   1       4.800  20.327   6.4670  0.00  0.00     0.000 C
ATOM     17   C  NAG B   1       4.485  21.472   7.3920  0.00  0.00     0.000 C
ATOM     18   O  NAG B   1       4.114  19.307   6.5300  0.00  0.00     0.000 OA
ENDBRANCH 2 16
BRANCH 1 19
ATOM     19  O4  BDP B   2       7.861  21.456   7.3500  0.00  0.00     0.000 O
BRANCH 19 23
ATOM     20  C1  BDP B   2      11.339  19.365   8.0390  0.00  0.00     0.000 C
ATOM     21  C2  BDP B   2      10.074  18.542   7.9050  0.00  0.00     0.000 C
ATOM     22  C3  BDP B   2       8.968  19.339   7.2520  0.00  0.00     0.000 C
ATOM     23  C4  BDP B   2       8.789  20.642   8.0260  0.00  0.00     0.000 C
ATOM     24  C5  BDP B   2      10.112  21.381   8.0830  0.00  0.00     0.000 C
ATOM     25  O5  BDP B   2      11.076  20.576   8.7340  0.00  0.00     0.000 O
ATOM     26   O  BDP B   2      10.327  17.375   7.1540  0.00  0.00     0.000 O
ATOM     28  HD  BDP B   2      11.136  17.649   7.2950  0.00  0.00     0.000 HD
ATOM     28   O  BDP B   2       7.766  18.554   7.2320  0.00  0.00     0.000 O
ATOM     30  HD  BDP B   2       8.575  18.828   7.3730  0.00  0.00     0.000 HD
BRANCH 24 30
ATOM     30   C  BDP B   2      10.010  22.658   8.8370  0.00  0.00     0.000 C
ATOM     31   O  BDP B   2       9.611  22.596  10.0220  0.00  0.00     0.000 OA
ATOM     32   O  BDP B   2      10.320  23.732   8.2450  0.00  0.00     0.000 OA
ENDBRANCH 24 30
BRANCH 20 33
ATOM     33  O3  NAG B   3      12.188  18.559   8.8180  0.00  0.00     0.000 O
BRANCH 33 36
ATOM     34  C1  NAG B   3      15.802  17.706   8.2140  0.00  0.00     0.000 C
ATOM     35  C2  NAG B   3      14.301  17.498   8.2990  0.00  0.00     0.000 C
ATOM     36  C3  NAG B   3      13.566  18.824   8.5450  0.00  0.00     0.000 C
ATOM     37  C4  NAG B   3      14.183  19.528   9.7510  0.00  0.00     0.000 C
ATOM     38  C5  NAG B   3      15.700  19.606   9.6000  0.00  0.00     0.000 C
ATOM     39  O5  NAG B   3      16.236  18.305   9.4260  0.00  0.00     0.000 O
ATOM     40   O  NAG B   3      13.646  20.854   9.8740  0.00  0.00     0.000 O
ATOM     42  HD  NAG B   3      14.487  21.061   9.8670  0.00  0.00     0.000 HD
ATOM     42   C  NAG B   3      16.413  20.179  10.8220  0.00  0.00     0.000 C
ATOM     43   O  NAG B   3      16.251  19.288  11.9330  0.00  0.00     0.000 O
ATOM     45  HD  NAG B   3      17.092  19.496  11.9260  0.00  0.00     0.000 HD
BRANCH 35 47
ATOM     45   N  NAG B   3      13.718  16.169   8.1640  0.00  0.00     0.000 N
ATOM     47  HD  NAG B   3      13.676  16.471   8.9740  0.00  0.00     0.000 HD
ATOM     47   C  NAG B   3      13.019  15.797   7.1100  0.00  0.00     0.000 C
ATOM     48   C  NAG B   3      12.471  14.400   7.1400  0.00  0.00     0.000 C
ATOM     49   O  NAG B   3      12.804  16.557   6.1690  0.00  0.00     0.000 OA
ENDBRANCH 35 47
BRANCH 34 50
ATOM     50  O4  BDP B   4      16.315  16.395   8.1020  0.00  0.00     0.000 O
BRANCH 50 54
ATOM     51  C1  BDP B   4      18.973  14.038   6.1190  0.00  0.00     0.000 C
ATOM     52  C2  BDP B   4      19.597  14.946   7.1730  0.00  0.00     0.000 C
ATOM     53  C3  BDP B   4      18.510  15.463   8.0640  0.00  0.00     0.000 C
ATOM     54  C4  BDP B   4      17.414  16.159   7.2060  0.00  0.00     0.000 C
ATOM     55  C5  BDP B   4      16.957  15.295   6.0390  0.00  0.00     0.000 C
ATOM     56  O5  BDP B   4      18.080  14.794   5.3200  0.00  0.00     0.000 O
ATOM     57   O  BDP B   4      20.534  14.227   7.9460  0.00  0.00     0.000 O
ATOM     59  HD  BDP B   4      21.305  14.477   7.6430  0.00  0.00     0.000 HD
ATOM     59   O  BDP B   4      19.107  16.461   8.9180  0.00  0.00     0.000 O
ATOM     61  HD  BDP B   4      19.878  16.712   8.6140  0.00  0.00     0.000 HD
BRANCH 55 61
ATOM     61   C  BDP B   4      16.098  16.128   5.1050  0.00  0.00     0.000 C
ATOM     62   O  BDP B   4      16.260  17.377   5.1100  0.00  0.00     0.000 OA
ATOM     63   O  BDP B   4      15.261  15.529   4.3630  0.00  0.00     0.000 OA
ENDBRANCH 55 61
BRANCH 51 64
ATOM     64  O3  NAG B   5      20.049  13.508   5.3210  0.00  0.00     0.000 O
BRANCH 64 67
ATOM     65  C1  NAG B   5      19.820  10.060   4.0350  0.00  0.00     0.000 C
ATOM     66  C2  NAG B   5      20.034  11.185   5.0330  0.00  0.00     0.000 C
ATOM     67  C3  NAG B   5      19.615  12.513   4.4150  0.00  0.00     0.000 C
ATOM     68  C4  NAG B   5      20.296  12.727   3.0560  0.00  0.00     0.000 C
ATOM     69  C5  NAG B   5      20.105  11.512   2.1620  0.00  0.00     0.000 C
ATOM     70  O5  NAG B   5      20.533  10.327   2.8490  0.00  0.00     0.000 O
ATOM     71   O  NAG B   5      19.761  13.890   2.4610  0.00  0.00     0.000 O
ATOM     73  HD  NAG B   5      20.593  14.024   2.2610  0.00  0.00     0.000 HD
ATOM     73   C  NAG B   5      20.861  11.585   0.8270  0.00  0.00     0.000 C
ATOM     74   O  NAG B   5      22.282  11.609   1.0770  0.00  0.00     0.000 O
ATOM     76  HD  NAG B   5      23.114  11.744   0.8770  0.00  0.00     0.000 HD
BRANCH 66 78
ATOM     76   N  NAG B   5      19.326  10.646   6.2100  0.00  0.00     0.000 N
ATOM     78  HD  NAG B   5      20.094  11.008   6.0390  0.00  0.00     0.000 HD
ATOM     78   C  NAG B   5      19.705  10.784   7.4910  0.00  0.00     0.000 C
ATOM     79   C  NAG B   5      18.762  10.135   8.4680  0.00  0.00     0.000 C
ATOM     80   O  NAG B   5      20.771  11.401   7.8460  0.00  0.00     0.000 OA
ENDBRANCH 66 78
BRANCH 65 81
ATOM     81  O4  BDP B   6      20.256   8.815   4.5960  0.00  0.00     0.000 O
BRANCH 81 85
ATOM     82  C1  BDP B   6      19.664   4.614   3.9900  0.00  0.00     0.000 C
ATOM     83  C2  BDP B   6      20.812   5.281   3.2360  0.00  0.00     0.000 C
ATOM     84  C3  BDP B   6      21.192   6.646   3.8170  0.00  0.00     0.000 C
ATOM     85  C4  BDP B   6      19.974   7.560   3.9720  0.00  0.00     0.000 C
ATOM     86  C5  BDP B   6      18.874   6.765   4.7140  0.00  0.00     0.000 C
ATOM     87  O5  BDP B   6      18.560   5.506   4.0380  0.00  0.00     0.000 O
ATOM     88   O  BDP B   6      21.916   4.387   3.3570  0.00  0.00     0.000 O
ATOM     90  HD  BDP B   6      22.769   4.397   3.5030  0.00  0.00     0.000 HD
ATOM     90   O  BDP B   6      22.189   7.256   2.9950  0.00  0.00     0.000 O
ATOM     92  HD  BDP B   6      23.043   7.266   3.1400  0.00  0.00     0.000 HD
BRANCH 86 92
ATOM     92   C  BDP B   6      17.568   7.521   4.6920  0.00  0.00     0.000 C
ATOM     93   O  BDP B   6      16.814   7.434   3.6750  0.00  0.00     0.000 OA
ATOM     94   O  BDP B   6      17.268   8.205   5.7200  0.00  0.00     0.000 OA
ENDBRANCH 86 92
BRANCH 82 95
ATOM     95  O3  NAG B   7      19.257   3.444   3.2530  0.00  0.00     0.000 O
BRANCH 95 98
ATOM     96  C1  NAG B   7      17.088   0.709   4.3260  0.00  0.00     0.000 C
ATOM     97  C2  NAG B   7      18.396   1.368   3.9100  0.00  0.00     0.000 C
ATOM     98  C3  NAG B   7      18.021   2.811   3.5810  0.00  0.00     0.000 C
ATOM     99  C4  NAG B   7      16.998   2.836   2.4480  0.00  0.00     0.000 C
ATOM    100  C5  NAG B   7      15.790   1.961   2.7840  0.00  0.00     0.000 C
ATOM    101  O5  NAG B   7      16.247   0.673   3.1670  0.00  0.00     0.000 O
BRANCH 97 104
ATOM    102   N  NAG B   7      19.415   1.407   4.9680  0.00  0.00     0.000 N
ATOM    104  HD  NAG B   7      19.952   1.686   5.5880  0.00  0.00     0.000 HD
ATOM    104   O  NAG B   7      21.480   1.204   5.8760  0.00  0.00     0.000 OA
ATOM    105   C  NAG B   7      20.715   1.059   4.9030  0.00  0.00     0.000 C
ATOM    106   C  NAG B   7      21.252   0.500   3.6300  0.00  0.00     0.000 C
ENDBRANCH 97 104
ATOM    107   O  NAG B   7      13.646   1.338   2.0630  0.00  0.00     0.000 O
ATOM    109  HD  NAG B   7      14.134   1.529   2.7530  0.00  0.00     0.000 HD
ATOM    109   O  NAG B   7      13.646   1.338   2.0630  0.00  0.00     0.000 O
ATOM    111  HD  NAG B   7      14.134   1.529   2.7530  0.00  0.00     0.000 HD
ENDBRANCH 95 98
ENDBRANCH 82 95
ENDBRANCH 81 85
ENDBRANCH 65 81
ENDBRANCH 64 67
ENDBRANCH 51 64
ENDBRANCH 50 54
ENDBRANCH 34 50
ENDBRANCH 33 36
ENDBRANCH 20 33
ENDBRANCH 19 23
ENDBRANCH 1 19
TORSDOF 19
ENDMDL
MODEL 2
REMARK VINA RESULT:      -6.6      1.533      1.895
ROOT
ATOM      1  C1  NAG B   1       7.824  21.496   5.9940  0.00  0.00     0.000 C
ATOM      2  C2  NAG B   1       6.310  21.540   5.8030  0.00  0.00     0.000 C
ATOM      3  C3  NAG B   1       5.928  21.625   4.3390  0.00  0.00     0.000 C
ATOM      4  C4  NAG B   1       6.618  22.879   3.8100  0.00  0.00     0.000 C
ATOM      5  C5  NAG B   1       8.138  22.699   3.9150  0.00  0.00     0.000 C
ATOM      6  O5  NAG B   1       8.546  22.518   5.2880  0.00  0.00     0.000 O
ATOM      7   O  NAG B   1       4.497  21.707   4.1530  0.00  0.00     0.000 O
ATOM      9  HD  NAG B   1       4.566  21.190   4.8440  0.00  0.00     0.000 HD
ATOM      9   O  NAG B   1       6.253  23.102   2.4580  0.00  0.00     0.000 O
ATOM     11  HD  NAG B   1       6.323  22.585   3.1490  0.00  0.00     0.000 HD
ATOM     11   C  NAG B   1       8.852  23.890   3.2630  0.00  0.00     0.000 C
ATOM     12   O  NAG B   1      10.123  24.125   3.8670  0.00  0.00     0.000 O
ATOM     14  HD  NAG B   1      10.192  23.608   4.5580  0.00  0.00     0.000 HD
ENDROOT
BRANCH 2 16
ATOM     14   N  NAG B   1       5.610  21.534   7.0990  0.00  0.00     0.000 N
ATOM     16  HD  NAG B   1       4.833  21.653   7.4640  0.00  0.00     0.000 HD
ATOM     16   C  NAG B   1       4.863  20.501   7.5260  0.00  0.00     0.000 C
ATOM     17   C  NAG B   1       4.691  19.287   6.6530  0.00  0.00     0.000 C
ATOM     18   O  NAG B   1       4.334  20.512   8.6370  0.00  0.00     0.000 OA
ENDBRANCH 2 16
BRANCH 1 19
ATOM     19  O4  BDP B   2       7.985  21.786   7.3750  0.00  0.00     0.000 O
BRANCH 19 23
ATOM     20  C1  BDP B   2      11.560  19.790   7.7960  0.00  0.00     0.000 C
ATOM     21  C2  BDP B   2      10.303  18.969   7.9950  0.00  0.00     0.000 C
ATOM     22  C3  BDP B   2       9.094  19.669   7.4170  0.00  0.00     0.000 C
ATOM     23  C4  BDP B   2       9.023  21.075   8.0060  0.00  0.00     0.000 C
ATOM     24  C5  BDP B   2      10.326  21.801   7.7360  0.00  0.00     0.000 C
ATOM     25  O5  BDP B   2      11.395  21.094   8.3350  0.00  0.00     0.000 O
ATOM     26   O  BDP B   2      10.448  17.699   7.3960  0.00  0.00     0.000 O
ATOM     28  HD  BDP B   2      11.265  17.984   7.3610  0.00  0.00     0.000 HD
ATOM     28   O  BDP B   2       7.917  18.901   7.7110  0.00  0.00     0.000 O
ATOM     30  HD  BDP B   2       8.734  19.185   7.6760  0.00  0.00     0.000 HD
BRANCH 24 30
ATOM     30   C  BDP B   2      10.328  23.179   8.2960  0.00  0.00     0.000 C
ATOM     31   O  BDP B   2      10.275  23.292   9.5420  0.00  0.00     0.000 OA
ATOM     32   O  BDP B   2      10.374  24.154   7.4930  0.00  0.00     0.000 OA
ENDBRANCH 24 30
BRANCH 20 33
ATOM     33  O3  NAG B   3      12.537  19.103   8.5390  0.00  0.00     0.000 O
BRANCH 33 36
ATOM     34  C1  NAG B   3      16.016  18.205   7.4260  0.00  0.00     0.000 C
ATOM     35  C2  NAG B   3      14.549  18.007   7.7580  0.00  0.00     0.000 C
ATOM     36  C3  NAG B   3      13.853  19.347   8.0370  0.00  0.00     0.000 C
ATOM     37  C4  NAG B   3      14.647  20.121   9.0860  0.00  0.00     0.000 C
ATOM     38  C5  NAG B   3      16.120  20.186   8.6930  0.00  0.00     0.000 C
ATOM     39  O5  NAG B   3      16.631  18.876   8.5160  0.00  0.00     0.000 O
ATOM     40   O  NAG B   3      14.126  21.454   9.2110  0.00  0.00     0.000 O
ATOM     42  HD  NAG B   3      14.954  21.659   9.0600  0.00  0.00     0.000 HD
ATOM     42   C  NAG B   3      17.013  20.831   9.7510  0.00  0.00     0.000 C
ATOM     43   O  NAG B   3      17.033  20.010  10.9250  0.00  0.00     0.000 O
ATOM     45  HD  NAG B   3      17.861  20.214  10.7740  0.00  0.00     0.000 HD
BRANCH 35 47
ATOM     45   N  NAG B   3      13.961  16.674   7.7970  0.00  0.00     0.000 N
ATOM     47  HD  NAG B   3      14.046  17.024   8.5850  0.00  0.00     0.000 HD
ATOM     47   C  NAG B   3      13.108  16.240   6.8920  0.00  0.00     0.000 C
ATOM     48   C  NAG B   3      12.582  14.849   7.0920  0.00  0.00     0.000 C
ATOM     49   O  NAG B   3      12.743  16.942   5.9510  0.00  0.00     0.000 OA
ENDBRANCH 35 47
BRANCH 34 50
ATOM     50  O4  BDP B   4      16.514  16.889   7.3140  0.00  0.00     0.000 O
BRANCH 50 54
ATOM     51  C1  BDP B   4      19.075  14.477   5.2700  0.00  0.00     0.000 C
ATOM     52  C2  BDP B   4      19.751  15.429   6.2510  0.00  0.00     0.000 C
ATOM     53  C3  BDP B   4      18.713  15.972   7.1840  0.00  0.00     0.000 C
ATOM     54  C4  BDP B   4      17.562  16.627   6.3660  0.00  0.00     0.000 C
ATOM     55  C5  BDP B   4      17.046  15.715   5.2600  0.00  0.00     0.000 C
ATOM     56  O5  BDP B   4      18.131  15.195   4.4970  0.00  0.00     0.000 O
ATOM     57   O  BDP B   4      20.737  14.747   6.9950  0.00  0.00     0.000 O
ATOM     59  HD  BDP B   4      21.488  14.991   6.6380  0.00  0.00     0.000 HD
ATOM     59   O  BDP B   4      19.348  17.006   7.9630  0.00  0.00     0.000 O
ATOM     61  HD  BDP B   4      20.099  17.250   7.6060  0.00  0.00     0.000 HD
BRANCH 55 61
ATOM     61   C  BDP B   4      16.127  16.506   4.3470  0.00  0.00     0.000 C
ATOM     62   O  BDP B   4      16.472  17.675   4.0300  0.00  0.00     0.000 OA
ATOM     63   O  BDP B   4      15.058  15.953   3.9450  0.00  0.00     0.000 OA
ENDBRANCH 55 61
BRANCH 51 64
ATOM     64  O3  NAG B   5      20.108  13.924   4.4310  0.00  0.00     0.000 O
BRANCH 64 67
ATOM     65  C1  NAG B   5      19.776  10.515   3.0670  0.00  0.00     0.000 C
ATOM     66  C2  NAG B   5      20.057  11.610   4.0810  0.00  0.00     0.000 C
ATOM     67  C3  NAG B   5      19.614  12.958   3.5250  0.00  0.00     0.000 C
ATOM     68  C4  NAG B   5      20.216  13.205   2.1350  0.00  0.00     0.000 C
ATOM     69  C5  NAG B   5      19.963  12.017   1.2210  0.00  0.00     0.000 C
ATOM     70  O5  NAG B   5      20.420  10.811   1.8490  0.00  0.00     0.000 O
ATOM     71   O  NAG B   5      19.656  14.387   1.6050  0.00  0.00     0.000 O
ATOM     73  HD  NAG B   5      20.476  14.522   1.3610  0.00  0.00     0.000 HD
ATOM     73   C  NAG B   5      20.640  12.122  -0.1530  0.00  0.00     0.000 C
ATOM     74   O  NAG B   5      22.073  12.130   0.0130  0.00  0.00     0.000 O
ATOM     76  HD  NAG B   5      22.893  12.265  -0.2310  0.00  0.00     0.000 HD
BRANCH 66 78
ATOM     76   N  NAG B   5      20.588  11.273   5.4160  0.00  0.00     0.000 N
ATOM     78  HD  NAG B   5      19.842  11.557   5.0800  0.00  0.00     0.000 HD
ATOM     78   C  NAG B   5      19.869  11.143   6.5420  0.00  0.00     0.000 C
ATOM     79   C  NAG B   5      20.696  10.772   7.7430  0.00  0.00     0.000 C
ATOM     80   O  NAG B   5      18.600  11.325   6.5910  0.00  0.00     0.000 OA
ENDBRANCH 66 78
BRANCH 65 81
ATOM     81  O4  BDP B   6      20.234   9.252   3.5660  0.00  0.00     0.000 O
BRANCH 81 85
ATOM     82  C1  BDP B   6      19.227   5.089   3.4260  0.00  0.00     0.000 C
ATOM     83  C2  BDP B   6      19.458   5.804   2.0980  0.00  0.00     0.000 C
ATOM     84  C3  BDP B   6      20.195   7.136   2.2590  0.00  0.00     0.000 C
ATOM     85  C4  BDP B   6      19.534   8.033   3.3070  0.00  0.00     0.000 C
ATOM     86  C5  BDP B   6      19.321   7.191   4.5880  0.00  0.00     0.000 C
ATOM     87  O5  BDP B   6      18.560   5.970   4.3190  0.00  0.00     0.000 O
ATOM     88   O  BDP B   6      20.250   4.912   1.3180  0.00  0.00     0.000 O
ATOM     90  HD  BDP B   6      20.928   4.918   0.7790  0.00  0.00     0.000 HD
ATOM     90   O  BDP B   6      20.273   7.798   0.9940  0.00  0.00     0.000 O
ATOM     92  HD  BDP B   6      20.951   7.804   0.4550  0.00  0.00     0.000 HD
BRANCH 86 92
ATOM     92   C  BDP B   6      18.462   7.939   5.5780  0.00  0.00     0.000 C
ATOM     93   O  BDP B   6      17.432   8.555   5.1690  0.00  0.00     0.000 OA
ATOM     94   O  BDP B   6      18.804   7.898   6.8000  0.00  0.00     0.000 OA
ENDBRANCH 86 92
BRANCH 82 95
ATOM     95  O3  NAG B   7      18.362   3.961   3.1890  0.00  0.00     0.000 O
BRANCH 95 98
ATOM     96  C1  NAG B   7      18.464   0.387   3.9390  0.00  0.00     0.000 C
ATOM     97  C2  NAG B   7      18.265   1.624   3.0730  0.00  0.00     0.000 C
ATOM     98  C3  NAG B   7      18.486   2.804   4.0160  0.00  0.00     0.000 C
ATOM     99  C4  NAG B   7      17.474   2.753   5.1570  0.00  0.00     0.000 C
ATOM    100  C5  NAG B   7      17.517   1.398   5.8660  0.00  0.00     0.000 C
ATOM    101  O5  NAG B   7      17.399   0.368   4.8970  0.00  0.00     0.000 O
BRANCH 97 104
ATOM    102   N  NAG B   7      19.230   1.859   1.9900  0.00  0.00     0.000 N
ATOM    104  HD  NAG B   7      19.826   2.227   1.4800  0.00  0.00     0.000 HD
ATOM    104   O  NAG B   7      19.933   2.153  -0.1430  0.00  0.00     0.000 OA
ATOM    105   C  NAG B   7      19.020   1.878   0.6600  0.00  0.00     0.000 C
ATOM    106   C  NAG B   7      17.657   1.576   0.1380  0.00  0.00     0.000 C
ENDBRANCH 97 104
ATOM    107   O  NAG B   7      16.697   0.200   7.7080  0.00  0.00     0.000 O
ATOM    109  HD  NAG B   7      17.392   0.351   7.2140  0.00  0.00     0.000 HD
ATOM    109   O  NAG B   7      16.697   0.200   7.7080  0.00  0.00     0.000 O
ATOM    111  HD  NAG B   7      17.392   0.351   7.2140  0.00  0.00     0.000 HD
ENDBRANCH 95 98
ENDBRANCH 82 95
ENDBRANCH 81 85
ENDBRANCH 65 81
ENDBRANCH 64 67
ENDBRANCH 51 64
ENDBRANCH 50 54
ENDBRANCH 34 50
ENDBRANCH 33 36
ENDBRANCH 20 33
ENDBRANCH 19 23
ENDBRANCH 1 19
TORSDOF 19
ENDMDL
MODEL 3
REMARK VINA RESULT:      -6.6      7.441     16.969
ROOT
ATOM      1  C1  NAG B   1      10.171   4.719  16.0930  0.00  0.00     0.000 C
ATOM      2  C2  NAG B   1       9.531   3.694  17.0240  0.00  0.00     0.000 C
ATOM      3  C3  NAG B   1       8.447   4.311  17.8840  0.00  0.00     0.000 C
ATOM      4  C4  NAG B   1       9.127   5.444  18.6460  0.00  0.00     0.000 C
ATOM      5  C5  NAG B   1       9.624   6.495  17.6460  0.00  0.00     0.000 C
ATOM      6  O5  NAG B   1      10.594   5.931  16.7370  0.00  0.00     0.000 O
ATOM      7   O  NAG B   1       7.863   3.353  18.7970  0.00  0.00     0.000 O
ATOM      9  HD  NAG B   1       8.032   2.868  18.1000  0.00  0.00     0.000 HD
ATOM      9   O  NAG B   1       8.214   6.039  19.5530  0.00  0.00     0.000 O
ATOM     11  HD  NAG B   1       8.382   5.553  18.8560  0.00  0.00     0.000 HD
ATOM     11   C  NAG B   1      10.188   7.707  18.3970  0.00  0.00     0.000 C
ATOM     12   O  NAG B   1      11.203   8.362  17.6370  0.00  0.00     0.000 O
ATOM     14  HD  NAG B   1      11.372   7.876  16.9400  0.00  0.00     0.000 HD
ENDROOT
BRANCH 2 16
ATOM     14   N  NAG B   1       9.208   2.588  16.1050  0.00  0.00     0.000 N
ATOM     16  HD  NAG B   1       9.548   2.079  15.4920  0.00  0.00     0.000 HD
ATOM     16   C  NAG B   1       9.537   1.308  16.3510  0.00  0.00     0.000 C
ATOM     17   C  NAG B   1      10.295   0.954  17.6020  0.00  0.00     0.000 C
ATOM     18   O  NAG B   1       9.206   0.405  15.5830  0.00  0.00     0.000 OA
ENDBRANCH 2 16
BRANCH 1 19
ATOM     19  O4  BDP B   2      11.359   4.069  15.6620  0.00  0.00     0.000 O
BRANCH 19 23
ATOM     20  C1  BDP B   2      12.635   6.692  12.7580  0.00  0.00     0.000 C
ATOM     21  C2  BDP B   2      11.363   5.924  12.4600  0.00  0.00     0.000 C
ATOM     22  C3  BDP B   2      10.772   5.333  13.7200  0.00  0.00     0.000 C
ATOM     23  C4  BDP B   2      11.851   4.511  14.4200  0.00  0.00     0.000 C
ATOM     24  C5  BDP B   2      13.064   5.384  14.6750  0.00  0.00     0.000 C
ATOM     25  O5  BDP B   2      13.567   5.869  13.4450  0.00  0.00     0.000 O
ATOM     26   O  BDP B   2      10.416   6.767  11.8400  0.00  0.00     0.000 O
ATOM     28  HD  BDP B   2      11.123   7.265  11.7960  0.00  0.00     0.000 HD
ATOM     28   O  BDP B   2       9.626   4.539  13.3770  0.00  0.00     0.000 O
ATOM     30  HD  BDP B   2      10.333   5.037  13.3330  0.00  0.00     0.000 HD
BRANCH 24 30
ATOM     30   C  BDP B   2      14.161   4.640  15.3480  0.00  0.00     0.000 C
ATOM     31   O  BDP B   2      14.523   5.045  16.4760  0.00  0.00     0.000 OA
ATOM     32   O  BDP B   2      14.671   3.650  14.7490  0.00  0.00     0.000 OA
ENDBRANCH 24 30
BRANCH 20 33
ATOM     33  O3  NAG B   3      13.147   7.009  11.4870  0.00  0.00     0.000 O
BRANCH 33 36
ATOM     34  C1  NAG B   3      14.816  10.311  10.8060  0.00  0.00     0.000 C
ATOM     35  C2  NAG B   3      13.688   9.305  10.9410  0.00  0.00     0.000 C
ATOM     36  C3  NAG B   3      14.184   7.990  11.5640  0.00  0.00     0.000 C
ATOM     37  C4  NAG B   3      15.398   7.489  10.7860  0.00  0.00     0.000 C
ATOM     38  C5  NAG B   3      16.429   8.604  10.6370  0.00  0.00     0.000 C
ATOM     39  O5  NAG B   3      15.837   9.729  10.0090  0.00  0.00     0.000 O
ATOM     40   O  NAG B   3      15.994   6.376  11.4700  0.00  0.00     0.000 O
ATOM     42  HD  NAG B   3      16.699   6.873  11.4060  0.00  0.00     0.000 HD
ATOM     42   C  NAG B   3      17.621   8.230   9.7590  0.00  0.00     0.000 C
ATOM     43   O  NAG B   3      17.178   8.025   8.4120  0.00  0.00     0.000 O
ATOM     45  HD  NAG B   3      17.884   8.523   8.3490  0.00  0.00     0.000 HD
BRANCH 35 47
ATOM     45   N  NAG B   3      12.601   9.907  11.7030  0.00  0.00     0.000 N
ATOM     47  HD  NAG B   3      13.315  10.397  11.6960  0.00  0.00     0.000 HD
ATOM     47   C  NAG B   3      11.338   9.828  11.3350  0.00  0.00     0.000 C
ATOM     48   C  NAG B   3      10.347  10.521  12.2220  0.00  0.00     0.000 C
ATOM     49   O  NAG B   3      10.994   9.243  10.3100  0.00  0.00     0.000 OA
ENDBRANCH 35 47
BRANCH 34 50
ATOM     50  O4  BDP B   4      14.217  11.394  10.1260  0.00  0.00     0.000 O
BRANCH 50 54
ATOM     51  C1  BDP B   4      14.195  15.448   9.7840  0.00  0.00     0.000 C
ATOM     52  C2  BDP B   4      15.249  14.748   8.9340  0.00  0.00     0.000 C
ATOM     53  C3  BDP B   4      14.913  13.291   8.8580  0.00  0.00     0.000 C
ATOM     54  C4  BDP B   4      14.777  12.707  10.2940  0.00  0.00     0.000 C
ATOM     55  C5  BDP B   4      13.868  13.550  11.1780  0.00  0.00     0.000 C
ATOM     56  O5  BDP B   4      14.233  14.925  11.1000  0.00  0.00     0.000 O
ATOM     57   O  BDP B   4      15.268  15.292   7.6310  0.00  0.00     0.000 O
ATOM     59  HD  BDP B   4      15.966  15.804   7.6190  0.00  0.00     0.000 HD
ATOM     59   O  BDP B   4      16.027  12.636   8.2160  0.00  0.00     0.000 O
ATOM     61  HD  BDP B   4      16.725  13.148   8.2030  0.00  0.00     0.000 HD
BRANCH 55 61
ATOM     61   C  BDP B   4      13.993  13.081  12.6160  0.00  0.00     0.000 C
ATOM     62   O  BDP B   4      12.996  12.523  13.1450  0.00  0.00     0.000 OA
ATOM     63   O  BDP B   4      15.094  13.272  13.2170  0.00  0.00     0.000 OA
ENDBRANCH 55 61
BRANCH 51 64
ATOM     64  O3  NAG B   5      14.510  16.854   9.7840  0.00  0.00     0.000 O
BRANCH 64 67
ATOM     65  C1  NAG B   5      12.047  19.515   9.1140  0.00  0.00     0.000 C
ATOM     66  C2  NAG B   5      13.088  18.447   8.8250  0.00  0.00     0.000 C
ATOM     67  C3  NAG B   5      13.392  17.662  10.0950  0.00  0.00     0.000 C
ATOM     68  C4  NAG B   5      13.748  18.604  11.2530  0.00  0.00     0.000 C
ATOM     69  C5  NAG B   5      12.696  19.691  11.4050  0.00  0.00     0.000 C
ATOM     70  O5  NAG B   5      12.498  20.358  10.1500  0.00  0.00     0.000 O
ATOM     71   O  NAG B   5      13.869  17.841  12.4350  0.00  0.00     0.000 O
ATOM     73  HD  NAG B   5      14.555  18.355  12.5530  0.00  0.00     0.000 HD
ATOM     73   C  NAG B   5      13.035  20.755  12.4590  0.00  0.00     0.000 C
ATOM     74   O  NAG B   5      14.219  21.475  12.0570  0.00  0.00     0.000 O
ATOM     76  HD  NAG B   5      14.905  21.990  12.1750  0.00  0.00     0.000 HD
BRANCH 66 78
ATOM     76   N  NAG B   5      13.497  18.298   7.4150  0.00  0.00     0.000 N
ATOM     78  HD  NAG B   5      13.110  17.815   8.0210  0.00  0.00     0.000 HD
ATOM     78   C  NAG B   5      13.144  17.298   6.5930  0.00  0.00     0.000 C
ATOM     79   C  NAG B   5      13.707  17.435   5.2040  0.00  0.00     0.000 C
ATOM     80   O  NAG B   5      12.404  16.315   6.9580  0.00  0.00     0.000 OA
ENDBRANCH 66 78
BRANCH 65 81
ATOM     81  O4  BDP B   6      11.793  20.287   7.9340  0.00  0.00     0.000 O
BRANCH 81 85
ATOM     82  C1  BDP B   6       8.333  21.906   5.9900  0.00  0.00     0.000 C
ATOM     83  C2  BDP B   6       9.288  22.888   6.6630  0.00  0.00     0.000 C
ATOM     84  C3  BDP B   6      10.660  22.276   6.9580  0.00  0.00     0.000 C
ATOM     85  C4  BDP B   6      10.545  20.950   7.7130  0.00  0.00     0.000 C
ATOM     86  C5  BDP B   6       9.530  20.059   6.9570  0.00  0.00     0.000 C
ATOM     87  O5  BDP B   6       8.241  20.730   6.7810  0.00  0.00     0.000 O
ATOM     88   O  BDP B   6       9.435  23.966   5.7430  0.00  0.00     0.000 O
ATOM     90  HD  BDP B   6      10.045  24.488   5.4190  0.00  0.00     0.000 HD
ATOM     90   O  BDP B   6      11.457  23.213   7.6870  0.00  0.00     0.000 O
ATOM     92  HD  BDP B   6      12.067  23.735   7.3630  0.00  0.00     0.000 HD
BRANCH 86 92
ATOM     92   C  BDP B   6       9.190  18.835   7.7730  0.00  0.00     0.000 C
ATOM     93   O  BDP B   6       8.478  18.957   8.8150  0.00  0.00     0.000 OA
ATOM     94   O  BDP B   6       9.622  17.715   7.3570  0.00  0.00     0.000 OA
ENDBRANCH 86 92
BRANCH 82 95
ATOM     95  O3  NAG B   7       7.025  22.508   5.9380  0.00  0.00     0.000 O
BRANCH 95 98
ATOM     96  C1  NAG B   7       3.779  21.828   4.4080  0.00  0.00     0.000 C
ATOM     97  C2  NAG B   7       4.943  22.688   4.8830  0.00  0.00     0.000 C
ATOM     98  C3  NAG B   7       5.907  21.711   5.5500  0.00  0.00     0.000 C
ATOM     99  C4  NAG B   7       5.215  21.014   6.7190  0.00  0.00     0.000 C
ATOM    100  C5  NAG B   7       3.909  20.359   6.2670  0.00  0.00     0.000 C
ATOM    101  O5  NAG B   7       3.126  21.321   5.5770  0.00  0.00     0.000 O
BRANCH 97 104
ATOM    102   N  NAG B   7       5.715  23.352   3.8230  0.00  0.00     0.000 N
ATOM    104  HD  NAG B   7       6.357  23.582   3.2900  0.00  0.00     0.000 HD
ATOM    104   O  NAG B   7       6.721  25.074   2.7490  0.00  0.00     0.000 OA
ATOM    105   C  NAG B   7       5.996  24.660   3.6760  0.00  0.00     0.000 C
ATOM    106   C  NAG B   7       5.439  25.636   4.6550  0.00  0.00     0.000 C
ENDBRANCH 97 104
ATOM    107   O  NAG B   7       2.159  18.957   6.9570  0.00  0.00     0.000 O
ATOM    109  HD  NAG B   7       2.683  19.164   6.3000  0.00  0.00     0.000 HD
ATOM    109   O  NAG B   7       2.159  18.957   6.9570  0.00  0.00     0.000 O
ATOM    111  HD  NAG B   7       2.683  19.164   6.3000  0.00  0.00     0.000 HD
ENDBRANCH 95 98
ENDBRANCH 82 95
ENDBRANCH 81 85
ENDBRANCH 65 81
ENDBRANCH 64 67
ENDBRANCH 51 64
ENDBRANCH 50 54
ENDBRANCH 34 50
ENDBRANCH 33 36
ENDBRANCH 20 33
ENDBRANCH 19 23
ENDBRANCH 1 19
TORSDOF 19
ENDMDL
MODEL 4
REMARK VINA RESULT:      -6.6      9.104     17.954
ROOT
ATOM      1  C1  NAG B   1       9.155   3.911  18.0480  0.00  0.00     0.000 C
ATOM      2  C2  NAG B   1       8.172   2.927  18.6760  0.00  0.00     0.000 C
ATOM      3  C3  NAG B   1       7.018   3.637  19.3540  0.00  0.00     0.000 C
ATOM      4  C4  NAG B   1       7.658   4.560  20.3870  0.00  0.00     0.000 C
ATOM      5  C5  NAG B   1       8.524   5.600  19.6650  0.00  0.00     0.000 C
ATOM      6  O5  NAG B   1       9.587   4.965  18.9220  0.00  0.00     0.000 O
ATOM      7   O  NAG B   1       6.104   2.713  19.9860  0.00  0.00     0.000 O
ATOM      9  HD  NAG B   1       6.359   2.273  19.2840  0.00  0.00     0.000 HD
ATOM      9   O  NAG B   1       6.654   5.214  21.1450  0.00  0.00     0.000 O
ATOM     11  HD  NAG B   1       6.909   4.775  20.4440  0.00  0.00     0.000 HD
ATOM     11   C  NAG B   1       9.067   6.620  20.6730  0.00  0.00     0.000 C
ATOM     12   O  NAG B   1      10.316   7.159  20.2430  0.00  0.00     0.000 O
ATOM     14  HD  NAG B   1      10.571   6.720  19.5420  0.00  0.00     0.000 HD
ENDROOT
BRANCH 2 16
ATOM     14   N  NAG B   1       7.597   1.936  17.7490  0.00  0.00     0.000 N
ATOM     16  HD  NAG B   1       7.744   1.525  17.0010  0.00  0.00     0.000 HD
ATOM     16   C  NAG B   1       7.987   0.650  17.7130  0.00  0.00     0.000 C
ATOM     17   C  NAG B   1       9.081   0.171  18.6300  0.00  0.00     0.000 C
ATOM     18   O  NAG B   1       7.449  -0.160  16.9590  0.00  0.00     0.000 OA
ENDBRANCH 2 16
BRANCH 1 19
ATOM     19  O4  BDP B   2      10.303   3.110  17.8030  0.00  0.00     0.000 O
BRANCH 19 23
ATOM     20  C1  BDP B   2      11.676   5.410  14.6790  0.00  0.00     0.000 C
ATOM     21  C2  BDP B   2      10.787   4.240  14.3130  0.00  0.00     0.000 C
ATOM     22  C3  BDP B   2      10.018   3.739  15.5150  0.00  0.00     0.000 C
ATOM     23  C4  BDP B   2      11.012   3.444  16.6350  0.00  0.00     0.000 C
ATOM     24  C5  BDP B   2      11.834   4.686  16.9190  0.00  0.00     0.000 C
ATOM     25  O5  BDP B   2      12.539   5.065  15.7530  0.00  0.00     0.000 O
ATOM     26   O  BDP B   2       9.885   4.611  13.2930  0.00  0.00     0.000 O
ATOM     28  HD  BDP B   2      10.424   5.289  13.2800  0.00  0.00     0.000 HD
ATOM     28   O  BDP B   2       9.264   2.575  15.1430  0.00  0.00     0.000 O
ATOM     30  HD  BDP B   2       9.803   3.253  15.1300  0.00  0.00     0.000 HD
BRANCH 24 30
ATOM     30   C  BDP B   2      12.834   4.463  17.9970  0.00  0.00     0.000 C
ATOM     31   O  BDP B   2      12.744   5.179  19.0210  0.00  0.00     0.000 OA
ATOM     32   O  BDP B   2      13.719   3.577  17.8220  0.00  0.00     0.000 OA
ENDBRANCH 24 30
BRANCH 20 33
ATOM     33  O3  NAG B   3      12.444   5.629  13.5210  0.00  0.00     0.000 O
BRANCH 33 36
ATOM     34  C1  NAG B   3      14.106   8.955  12.9480  0.00  0.00     0.000 C
ATOM     35  C2  NAG B   3      13.003   7.913  12.9440  0.00  0.00     0.000 C
ATOM     36  C3  NAG B   3      13.421   6.654  13.7190  0.00  0.00     0.000 C
ATOM     37  C4  NAG B   3      14.768   6.162  13.1960  0.00  0.00     0.000 C
ATOM     38  C5  NAG B   3      15.774   7.309  13.1640  0.00  0.00     0.000 C
ATOM     39  O5  NAG B   3      15.269   8.374  12.3770  0.00  0.00     0.000 O
ATOM     40   O  NAG B   3      15.267   5.111  14.0380  0.00  0.00     0.000 O
ATOM     42  HD  NAG B   3      15.957   5.633  14.0690  0.00  0.00     0.000 HD
ATOM     42   C  NAG B   3      17.113   6.937  12.5310  0.00  0.00     0.000 C
ATOM     43   O  NAG B   3      16.921   6.644  11.1420  0.00  0.00     0.000 O
ATOM     45  HD  NAG B   3      17.612   7.166  11.1730  0.00  0.00     0.000 HD
BRANCH 35 47
ATOM     45   N  NAG B   3      11.713   7.999  12.2720  0.00  0.00     0.000 N
ATOM     47  HD  NAG B   3      12.188   7.329  11.9970  0.00  0.00     0.000 HD
ATOM     47   C  NAG B   3      10.606   8.361  12.8900  0.00  0.00     0.000 C
ATOM     48   C  NAG B   3       9.359   8.377  12.0550  0.00  0.00     0.000 C
ATOM     49   O  NAG B   3      10.589   8.642  14.0860  0.00  0.00     0.000 OA
ENDBRANCH 35 47
BRANCH 34 50
ATOM     50  O4  BDP B   4      13.604   9.976  12.1110  0.00  0.00     0.000 O
BRANCH 50 54
ATOM     51  C1  BDP B   4      13.542  14.004  11.5400  0.00  0.00     0.000 C
ATOM     52  C2  BDP B   4      14.708  13.288  10.8680  0.00  0.00     0.000 C
ATOM     53  C3  BDP B   4      14.414  11.820  10.8340  0.00  0.00     0.000 C
ATOM     54  C4  BDP B   4      14.111  11.311  12.2730  0.00  0.00     0.000 C
ATOM     55  C5  BDP B   4      13.082  12.176  12.9870  0.00  0.00     0.000 C
ATOM     56  O5  BDP B   4      13.425  13.554  12.8770  0.00  0.00     0.000 O
ATOM     57   O  BDP B   4      14.879  13.762   9.5490  0.00  0.00     0.000 O
ATOM     59  HD  BDP B   4      15.563  14.291   9.5940  0.00  0.00     0.000 HD
ATOM     59   O  BDP B   4      15.612  11.162  10.3730  0.00  0.00     0.000 O
ATOM     61  HD  BDP B   4      16.297  11.691  10.4180  0.00  0.00     0.000 HD
BRANCH 55 61
ATOM     61   C  BDP B   4      13.035  11.788  14.4550  0.00  0.00     0.000 C
ATOM     62   O  BDP B   4      14.118  11.774  15.0970  0.00  0.00     0.000 OA
ATOM     63   O  BDP B   4      11.909  11.501  14.9650  0.00  0.00     0.000 OA
ENDBRANCH 55 61
BRANCH 51 64
ATOM     64  O3  NAG B   5      13.826  15.416  11.4980  0.00  0.00     0.000 O
BRANCH 64 67
ATOM     65  C1  NAG B   5      11.735  18.257  10.4260  0.00  0.00     0.000 C
ATOM     66  C2  NAG B   5      12.834  17.210  10.3690  0.00  0.00     0.000 C
ATOM     67  C3  NAG B   5      12.654  16.207  11.5010  0.00  0.00     0.000 C
ATOM     68  C4  NAG B   5      12.522  16.920  12.8530  0.00  0.00     0.000 C
ATOM     69  C5  NAG B   5      11.465  18.011  12.7850  0.00  0.00     0.000 C
ATOM     70  O5  NAG B   5      11.740  18.890  11.6850  0.00  0.00     0.000 O
ATOM     71   O  NAG B   5      12.206  15.962  13.8410  0.00  0.00     0.000 O
ATOM     73  HD  NAG B   5      12.784  16.419  14.2970  0.00  0.00     0.000 HD
ATOM     73   C  NAG B   5      11.353  18.864  14.0570  0.00  0.00     0.000 C
ATOM     74   O  NAG B   5      12.583  19.589  14.2620  0.00  0.00     0.000 O
ATOM     76  HD  NAG B   5      13.161  20.046  14.7180  0.00  0.00     0.000 HD
BRANCH 66 78
ATOM     76   N  NAG B   5      12.732  16.702   8.9870  0.00  0.00     0.000 N
ATOM     78  HD  NAG B   5      13.343  17.043   9.4960  0.00  0.00     0.000 HD
ATOM     78   C  NAG B   5      13.758  16.456   8.1580  0.00  0.00     0.000 C
ATOM     79   C  NAG B   5      13.332  15.925   6.8160  0.00  0.00     0.000 C
ATOM     80   O  NAG B   5      14.984  16.664   8.4750  0.00  0.00     0.000 OA
ENDBRANCH 66 78
BRANCH 65 81
ATOM     81  O4  BDP B   6      11.927  19.229   9.3900  0.00  0.00     0.000 O
BRANCH 81 85
ATOM     82  C1  BDP B   6       9.850  22.461   7.4910  0.00  0.00     0.000 C
ATOM     83  C2  BDP B   6      10.450  22.721   8.8700  0.00  0.00     0.000 C
ATOM     84  C3  BDP B   6      11.494  21.676   9.2720  0.00  0.00     0.000 C
ATOM     85  C4  BDP B   6      10.963  20.249   9.1170  0.00  0.00     0.000 C
ATOM     86  C5  BDP B   6      10.354  20.120   7.7000  0.00  0.00     0.000 C
ATOM     87  O5  BDP B   6       9.333  21.139   7.4510  0.00  0.00     0.000 O
ATOM     88   O  BDP B   6      11.068  24.002   8.7800  0.00  0.00     0.000 O
ATOM     90  HD  BDP B   6      11.790  24.413   9.0250  0.00  0.00     0.000 HD
ATOM     90   O  BDP B   6      11.924  21.919  10.6140  0.00  0.00     0.000 O
ATOM     92  HD  BDP B   6      12.646  22.330  10.8590  0.00  0.00     0.000 HD
BRANCH 86 92
ATOM     92   C  BDP B   6       9.603  18.817   7.5630  0.00  0.00     0.000 C
ATOM     93   O  BDP B   6       8.349  18.798   7.7490  0.00  0.00     0.000 OA
ATOM     94   O  BDP B   6      10.271  17.787   7.2410  0.00  0.00     0.000 OA
ENDBRANCH 86 92
BRANCH 82 95
ATOM     95  O3  NAG B   7       8.752  23.372   7.2940  0.00  0.00     0.000 O
BRANCH 95 98
ATOM     96  C1  NAG B   7       7.753  25.683   4.6480  0.00  0.00     0.000 C
ATOM     97  C2  NAG B   7       8.062  25.249   6.0740  0.00  0.00     0.000 C
ATOM     98  C3  NAG B   7       8.402  23.763   5.9680  0.00  0.00     0.000 C
ATOM     99  C4  NAG B   7       7.211  22.998   5.3960  0.00  0.00     0.000 C
ATOM    100  C5  NAG B   7       6.755  23.610   4.0700  0.00  0.00     0.000 C
ATOM    101  O5  NAG B   7       6.557  25.004   4.2500  0.00  0.00     0.000 O
BRANCH 97 104
ATOM    102   N  NAG B   7       9.231  25.894   6.6870  0.00  0.00     0.000 N
ATOM    104  HD  NAG B   7      10.014  26.028   7.0320  0.00  0.00     0.000 HD
ATOM    104   O  NAG B   7      10.401  26.999   8.2810  0.00  0.00     0.000 OA
ATOM    105   C  NAG B   7       9.317  26.550   7.8590  0.00  0.00     0.000 C
ATOM    106   C  NAG B   7       8.085  26.733   8.6790  0.00  0.00     0.000 C
ENDBRANCH 97 104
ATOM    107   O  NAG B   7       5.304  23.313   2.2500  0.00  0.00     0.000 O
ATOM    109  HD  NAG B   7       6.097  23.568   2.4900  0.00  0.00     0.000 HD
ATOM    109   O  NAG B   7       5.304  23.313   2.2500  0.00  0.00     0.000 O
ATOM    111  HD  NAG B   7       6.097  23.568   2.4900  0.00  0.00     0.000 HD
ENDBRANCH 95 98
ENDBRANCH 82 95
ENDBRANCH 81 85
ENDBRANCH 65 81
ENDBRANCH 64 67
ENDBRANCH 51 64
ENDBRANCH 50 54
ENDBRANCH 34 50
ENDBRANCH 33 36
ENDBRANCH 20 33
ENDBRANCH 19 23
ENDBRANCH 1 19
TORSDOF 19
ENDMDL
MODEL 5
REMARK VINA RESULT:      -6.5     10.816     19.739
ROOT
ATOM      1  C1  NAG B   1      17.779   6.108   4.7350  0.00  0.00     0.000 C
ATOM      2  C2  NAG B   1      18.390   6.342   3.3560  0.00  0.00     0.000 C
ATOM      3  C3  NAG B   1      17.689   5.534   2.2830  0.00  0.00     0.000 C
ATOM      4  C4  NAG B   1      17.801   4.080   2.7300  0.00  0.00     0.000 C
ATOM      5  C5  NAG B   1      17.049   3.901   4.0550  0.00  0.00     0.000 C
ATOM      6  O5  NAG B   1      17.621   4.726   5.0930  0.00  0.00     0.000 O
ATOM      7   O  NAG B   1      18.287   5.721   0.9810  0.00  0.00     0.000 O
ATOM      9  HD  NAG B   1      18.377   6.503   1.3410  0.00  0.00     0.000 HD
ATOM      9   O  NAG B   1      17.247   3.223   1.7450  0.00  0.00     0.000 O
ATOM     11  HD  NAG B   1      17.337   4.005   2.1050  0.00  0.00     0.000 HD
ATOM     11   C  NAG B   1      17.033   2.420   4.4520  0.00  0.00     0.000 C
ATOM     12   O  NAG B   1      16.970   2.264   5.8680  0.00  0.00     0.000 O
ATOM     14  HD  NAG B   1      17.060   3.046   6.2290  0.00  0.00     0.000 HD
ENDROOT
BRANCH 2 16
ATOM     14   N  NAG B   1      18.421   7.732   2.8670  0.00  0.00     0.000 N
ATOM     16  HD  NAG B   1      18.392   8.556   3.1310  0.00  0.00     0.000 HD
ATOM     16   C  NAG B   1      19.523   8.501   2.9080  0.00  0.00     0.000 C
ATOM     17   C  NAG B   1      20.797   7.958   3.4990  0.00  0.00     0.000 C
ATOM     18   O  NAG B   1      19.524   9.641   2.4440  0.00  0.00     0.000 OA
ENDBRANCH 2 16
BRANCH 1 19
ATOM     19  O4  BDP B   2      18.762   6.631   5.6180  0.00  0.00     0.000 O
BRANCH 19 23
ATOM     20  C1  BDP B   2      16.165   7.466   8.7000  0.00  0.00     0.000 C
ATOM     21  C2  BDP B   2      16.321   8.538   7.6420  0.00  0.00     0.000 C
ATOM     22  C3  BDP B   2      16.942   7.979   6.3820  0.00  0.00     0.000 C
ATOM     23  C4  BDP B   2      18.243   7.275   6.7570  0.00  0.00     0.000 C
ATOM     24  C5  BDP B   2      17.961   6.221   7.8090  0.00  0.00     0.000 C
ATOM     25  O5  BDP B   2      17.411   6.834   8.9590  0.00  0.00     0.000 O
ATOM     26   O  BDP B   2      15.068   9.114   7.3400  0.00  0.00     0.000 O
ATOM     28  HD  BDP B   2      14.866   8.662   8.0510  0.00  0.00     0.000 HD
ATOM     28   O  BDP B   2      17.156   9.047   5.4460  0.00  0.00     0.000 O
ATOM     30  HD  BDP B   2      16.955   8.596   6.1570  0.00  0.00     0.000 HD
BRANCH 24 30
ATOM     30   C  BDP B   2      19.193   5.502   8.2280  0.00  0.00     0.000 C
ATOM     31   O  BDP B   2      19.208   4.257   8.0860  0.00  0.00     0.000 OA
ATOM     32   O  BDP B   2      20.148   6.176   8.7090  0.00  0.00     0.000 OA
ENDBRANCH 24 30
BRANCH 20 33
ATOM     33  O3  NAG B   3      15.758   8.174   9.8450  0.00  0.00     0.000 O
BRANCH 33 36
ATOM     34  C1  NAG B   3      13.111   7.377  12.3960  0.00  0.00     0.000 C
ATOM     35  C2  NAG B   3      13.810   8.133  11.2820  0.00  0.00     0.000 C
ATOM     36  C3  NAG B   3      15.015   7.346  10.7430  0.00  0.00     0.000 C
ATOM     37  C4  NAG B   3      15.917   6.944  11.9070  0.00  0.00     0.000 C
ATOM     38  C5  NAG B   3      15.098   6.270  13.0040  0.00  0.00     0.000 C
ATOM     39  O5  NAG B   3      14.056   7.132  13.4280  0.00  0.00     0.000 O
ATOM     40   O  NAG B   3      16.936   6.042  11.4490  0.00  0.00     0.000 O
ATOM     42  HD  NAG B   3      16.619   5.554  12.0900  0.00  0.00     0.000 HD
ATOM     42   C  NAG B   3      15.898   5.950  14.2640  0.00  0.00     0.000 C
ATOM     43   O  NAG B   3      16.318   7.170  14.8870  0.00  0.00     0.000 O
ATOM     45  HD  NAG B   3      16.001   6.683  15.5280  0.00  0.00     0.000 HD
BRANCH 35 47
ATOM     45   N  NAG B   3      13.391   9.450  10.8220  0.00  0.00     0.000 N
ATOM     47  HD  NAG B   3      14.163   9.464  11.2140  0.00  0.00     0.000 HD
ATOM     47   C  NAG B   3      12.749   9.643   9.6870  0.00  0.00     0.000 C
ATOM     48   C  NAG B   3      12.409  11.065   9.3530  0.00  0.00     0.000 C
ATOM     49   O  NAG B   3      12.469   8.715   8.9310  0.00  0.00     0.000 OA
ENDBRANCH 35 47
BRANCH 34 50
ATOM     50  O4  BDP B   4      12.119   8.278  12.8400  0.00  0.00     0.000 O
BRANCH 50 54
ATOM     51  C1  BDP B   4       9.042   8.315  15.5020  0.00  0.00     0.000 C
ATOM     52  C2  BDP B   4      10.044   7.185  15.7100  0.00  0.00     0.000 C
ATOM     53  C3  BDP B   4      11.287   7.498  14.9350  0.00  0.00     0.000 C
ATOM     54  C4  BDP B   4      10.926   7.749  13.4420  0.00  0.00     0.000 C
ATOM     55  C5  BDP B   4       9.780   8.738  13.2820  0.00  0.00     0.000 C
ATOM     56  O5  BDP B   4       8.692   8.383  14.1310  0.00  0.00     0.000 O
ATOM     57   O  BDP B   4      10.366   7.062  17.0790  0.00  0.00     0.000 O
ATOM     59  HD  BDP B   4       9.919   6.370  17.3470  0.00  0.00     0.000 HD
ATOM     59   O  BDP B   4      12.127   6.327  14.9980  0.00  0.00     0.000 O
ATOM     61  HD  BDP B   4      11.680   5.635  15.2660  0.00  0.00     0.000 HD
BRANCH 55 61
ATOM     61   C  BDP B   4       9.310   8.730  11.8390  0.00  0.00     0.000 C
ATOM     62   O  BDP B   4       9.625   9.707  11.1090  0.00  0.00     0.000 OA
ATOM     63   O  BDP B   4       8.624   7.741  11.4360  0.00  0.00     0.000 OA
ENDBRANCH 55 61
BRANCH 51 64
ATOM     64  O3  NAG B   5       7.887   8.015  16.3090  0.00  0.00     0.000 O
BRANCH 64 67
ATOM     65  C1  NAG B   5       6.265  10.640  18.3280  0.00  0.00     0.000 C
ATOM     66  C2  NAG B   5       7.282   9.579  17.9420  0.00  0.00     0.000 C
ATOM     67  C3  NAG B   5       7.052   9.140  16.5020  0.00  0.00     0.000 C
ATOM     68  C4  NAG B   5       5.589   8.734  16.2760  0.00  0.00     0.000 C
ATOM     69  C5  NAG B   5       4.647   9.818  16.7770  0.00  0.00     0.000 C
ATOM     70  O5  NAG B   5       4.959  10.146  18.1380  0.00  0.00     0.000 O
ATOM     71   O  NAG B   5       5.396   8.485  14.9000  0.00  0.00     0.000 O
ATOM     73  HD  NAG B   5       4.942   7.815  15.2090  0.00  0.00     0.000 HD
ATOM     73   C  NAG B   5       3.160   9.445  16.7080  0.00  0.00     0.000 C
ATOM     74   O  NAG B   5       2.900   8.330  17.5870  0.00  0.00     0.000 O
ATOM     76  HD  NAG B   5       2.446   7.660  17.8950  0.00  0.00     0.000 HD
BRANCH 66 78
ATOM     76   N  NAG B   5       8.603  10.193  18.1760  0.00  0.00     0.000 N
ATOM     78  HD  NAG B   5       8.152   9.517  18.4760  0.00  0.00     0.000 HD
ATOM     78   C  NAG B   5       9.611   9.651  18.8780  0.00  0.00     0.000 C
ATOM     79   C  NAG B   5      10.843  10.515  18.9210  0.00  0.00     0.000 C
ATOM     80   O  NAG B   5       9.530   8.512  19.4620  0.00  0.00     0.000 OA
ENDBRANCH 66 78
BRANCH 65 81
ATOM     81  O4  BDP B   6       6.448  11.023  19.6970  0.00  0.00     0.000 O
BRANCH 81 85
ATOM     82  C1  BDP B   6       5.712  14.385  22.2510  0.00  0.00     0.000 C
ATOM     83  C2  BDP B   6       4.595  13.356  22.1000  0.00  0.00     0.000 C
ATOM     84  C3  BDP B   6       5.085  12.026  21.5200  0.00  0.00     0.000 C
ATOM     85  C4  BDP B   6       5.887  12.224  20.2320  0.00  0.00     0.000 C
ATOM     86  C5  BDP B   6       6.958  13.308  20.5000  0.00  0.00     0.000 C
ATOM     87  O5  BDP B   6       6.366  14.549  21.0000  0.00  0.00     0.000 O
ATOM     88   O  BDP B   6       4.091  13.146  23.4160  0.00  0.00     0.000 O
ATOM     90  HD  BDP B   6       3.826  12.505  23.9350  0.00  0.00     0.000 HD
ATOM     90   O  BDP B   6       3.971  11.158  21.3020  0.00  0.00     0.000 O
ATOM     92  HD  BDP B   6       3.705  10.517  21.8210  0.00  0.00     0.000 HD
BRANCH 86 92
ATOM     92   C  BDP B   6       7.627  13.722  19.2110  0.00  0.00     0.000 C
ATOM     93   O  BDP B   6       7.028  14.517  18.4260  0.00  0.00     0.000 OA
ATOM     94   O  BDP B   6       8.789  13.264  18.9800  0.00  0.00     0.000 OA
ENDBRANCH 86 92
BRANCH 82 95
ATOM     95  O3  NAG B   7       5.120  15.648  22.6100  0.00  0.00     0.000 O
BRANCH 95 98
ATOM     96  C1  NAG B   7       5.836  18.230  25.0920  0.00  0.00     0.000 C
ATOM     97  C2  NAG B   7       4.973  17.241  24.3210  0.00  0.00     0.000 C
ATOM     98  C3  NAG B   7       5.913  16.620  23.2900  0.00  0.00     0.000 C
ATOM     99  C4  NAG B   7       6.471  17.707  22.3750  0.00  0.00     0.000 C
ATOM    100  C5  NAG B   7       7.123  18.826  23.1890  0.00  0.00     0.000 C
ATOM    101  O5  NAG B   7       6.206  19.269  24.1780  0.00  0.00     0.000 O
BRANCH 97 104
ATOM    102   N  NAG B   7       4.443  16.106  25.0890  0.00  0.00     0.000 N
ATOM    104  HD  NAG B   7       4.280  15.303  25.3700  0.00  0.00     0.000 HD
ATOM    104   O  NAG B   7       2.865  14.702  25.9060  0.00  0.00     0.000 OA
ATOM    105   C  NAG B   7       3.162  15.733  25.2710  0.00  0.00     0.000 C
ATOM    106   C  NAG B   7       2.075  16.568  24.6860  0.00  0.00     0.000 C
ENDBRANCH 97 104
ATOM    107   O  NAG B   7       8.393  20.791  23.0260  0.00  0.00     0.000 O
ATOM    109  HD  NAG B   7       8.268  20.065  23.4800  0.00  0.00     0.000 HD
ATOM    109   O  NAG B   7       8.393  20.791  23.0260  0.00  0.00     0.000 O
ATOM    111  HD  NAG B   7       8.268  20.065  23.4800  0.00  0.00     0.000 HD
ENDBRANCH 95 98
ENDBRANCH 82 95
ENDBRANCH 81 85
ENDBRANCH 65 81
ENDBRANCH 64 67
ENDBRANCH 51 64
ENDBRANCH 50 54
ENDBRANCH 34 50
ENDBRANCH 33 36
ENDBRANCH 20 33
ENDBRANCH 19 23
ENDBRANCH 1 19
TORSDOF 19
ENDMDL
MODEL 6
REMARK VINA RESULT:      -6.5      6.104      8.431
ROOT
ATOM      1  C1  NAG B   1       5.679  21.689   8.6820  0.00  0.00     0.000 C
ATOM      2  C2  NAG B   1       4.531  21.522   9.6730  0.00  0.00     0.000 C
ATOM      3  C3  NAG B   1       3.809  22.830   9.9250  0.00  0.00     0.000 C
ATOM      4  C4  NAG B   1       4.877  23.795  10.4310  0.00  0.00     0.000 C
ATOM      5  C5  NAG B   1       5.922  24.011   9.3280  0.00  0.00     0.000 C
ATOM      6  O5  NAG B   1       6.576  22.771   8.9810  0.00  0.00     0.000 O
ATOM      7   O  NAG B   1       2.744  22.687  10.8930  0.00  0.00     0.000 O
ATOM      9  HD  NAG B   1       2.721  21.928  10.4770  0.00  0.00     0.000 HD
ATOM      9   O  NAG B   1       4.287  25.035  10.7820  0.00  0.00     0.000 O
ATOM     11  HD  NAG B   1       4.265  24.276  10.3670  0.00  0.00     0.000 HD
ATOM     11   C  NAG B   1       6.929  25.081   9.7650  0.00  0.00     0.000 C
ATOM     12   O  NAG B   1       8.204  24.870   9.1600  0.00  0.00     0.000 O
ATOM     14  HD  NAG B   1       8.182  24.110   8.7440  0.00  0.00     0.000 HD
ENDROOT
BRANCH 2 16
ATOM     14   N  NAG B   1       4.248  20.252  10.3640  0.00  0.00     0.000 N
ATOM     16  HD  NAG B   1       3.658  19.850  10.8540  0.00  0.00     0.000 HD
ATOM     16   C  NAG B   1       3.434  19.307   9.8610  0.00  0.00     0.000 C
ATOM     17   C  NAG B   1       2.741  19.536   8.5440  0.00  0.00     0.000 C
ATOM     18   O  NAG B   1       3.261  18.237  10.4440  0.00  0.00     0.000 OA
ENDBRANCH 2 16
BRANCH 1 19
ATOM     19  O4  BDP B   2       6.433  20.497   8.8560  0.00  0.00     0.000 O
BRANCH 19 23
ATOM     20  C1  BDP B   2      10.429  19.542   9.1040  0.00  0.00     0.000 C
ATOM     21  C2  BDP B   2       9.831  20.250  10.3020  0.00  0.00     0.000 C
ATOM     22  C3  BDP B   2       8.321  20.173  10.2870  0.00  0.00     0.000 C
ATOM     23  C4  BDP B   2       7.825  20.691   8.9400  0.00  0.00     0.000 C
ATOM     24  C5  BDP B   2       8.480  19.903   7.8230  0.00  0.00     0.000 C
ATOM     25  O5  BDP B   2       9.885  20.055   7.8970  0.00  0.00     0.000 O
ATOM     26   O  BDP B   2      10.324  19.688  11.4990  0.00  0.00     0.000 O
ATOM     28  HD  BDP B   2      10.857  19.324  10.9230  0.00  0.00     0.000 HD
ATOM     28   O  BDP B   2       7.797  20.935  11.3850  0.00  0.00     0.000 O
ATOM     30  HD  BDP B   2       8.330  20.570  10.8090  0.00  0.00     0.000 HD
BRANCH 24 30
ATOM     30   C  BDP B   2       8.047  20.367   6.4790  0.00  0.00     0.000 C
ATOM     31   O  BDP B   2       7.378  19.568   5.7840  0.00  0.00     0.000 OA
ATOM     32   O  BDP B   2       8.381  21.528   6.1070  0.00  0.00     0.000 OA
ENDBRANCH 24 30
BRANCH 20 33
ATOM     33  O3  NAG B   3      11.797  19.863   9.1680  0.00  0.00     0.000 O
BRANCH 33 36
ATOM     34  C1  NAG B   3      14.426  17.626   7.6720  0.00  0.00     0.000 C
ATOM     35  C2  NAG B   3      13.469  18.171   8.7160  0.00  0.00     0.000 C
ATOM     36  C3  NAG B   3      12.537  19.235   8.1170  0.00  0.00     0.000 C
ATOM     37  C4  NAG B   3      13.372  20.294   7.4010  0.00  0.00     0.000 C
ATOM     38  C5  NAG B   3      14.356  19.631   6.4410  0.00  0.00     0.000 C
ATOM     39  O5  NAG B   3      15.174  18.712   7.1450  0.00  0.00     0.000 O
ATOM     40   O  NAG B   3      12.515  21.183   6.6680  0.00  0.00     0.000 O
ATOM     42  HD  NAG B   3      13.037  20.951   6.0180  0.00  0.00     0.000 HD
ATOM     42   C  NAG B   3      15.323  20.607   5.7760  0.00  0.00     0.000 C
ATOM     43   O  NAG B   3      16.184  21.179   6.7680  0.00  0.00     0.000 O
ATOM     45  HD  NAG B   3      16.706  20.947   6.1180  0.00  0.00     0.000 HD
BRANCH 35 47
ATOM     45   N  NAG B   3      13.327  17.903  10.1410  0.00  0.00     0.000 N
ATOM     47  HD  NAG B   3      13.375  18.749   9.9640  0.00  0.00     0.000 HD
ATOM     47   C  NAG B   3      12.565  16.938  10.6170  0.00  0.00     0.000 C
ATOM     48   C  NAG B   3      12.514  16.812  12.1110  0.00  0.00     0.000 C
ATOM     49   O  NAG B   3      11.912  16.201   9.8810  0.00  0.00     0.000 OA
ENDBRANCH 35 47
BRANCH 34 50
ATOM     50  O4  BDP B   4      15.266  16.761   8.4080  0.00  0.00     0.000 O
BRANCH 50 54
ATOM     51  C1  BDP B   4      16.505  12.891   8.2160  0.00  0.00     0.000 C
ATOM     52  C2  BDP B   4      17.625  13.919   8.1010  0.00  0.00     0.000 C
ATOM     53  C3  BDP B   4      17.104  15.248   8.5550  0.00  0.00     0.000 C
ATOM     54  C4  BDP B   4      15.828  15.616   7.7450  0.00  0.00     0.000 C
ATOM     55  C5  BDP B   4      14.812  14.482   7.7160  0.00  0.00     0.000 C
ATOM     56  O5  BDP B   4      15.444  13.257   7.3540  0.00  0.00     0.000 O
ATOM     57   O  BDP B   4      18.719  13.545   8.9110  0.00  0.00     0.000 O
ATOM     59  HD  BDP B   4      19.302  13.226   8.3560  0.00  0.00     0.000 HD
ATOM     59   O  BDP B   4      18.121  16.224   8.2510  0.00  0.00     0.000 O
ATOM     61  HD  BDP B   4      18.704  15.906   7.6960  0.00  0.00     0.000 HD
BRANCH 55 61
ATOM     61   C  BDP B   4      13.730  14.804   6.7010  0.00  0.00     0.000 C
ATOM     62   O  BDP B   4      14.087  15.095   5.5290  0.00  0.00     0.000 OA
ATOM     63   O  BDP B   4      12.520  14.765   7.0800  0.00  0.00     0.000 OA
ENDBRANCH 55 61
BRANCH 51 64
ATOM     64  O3  NAG B   5      17.056  11.615   7.8350  0.00  0.00     0.000 O
BRANCH 64 67
ATOM     65  C1  NAG B   5      15.250   9.154   9.9030  0.00  0.00     0.000 C
ATOM     66  C2  NAG B   5      16.019  10.418   9.5590  0.00  0.00     0.000 C
ATOM     67  C3  NAG B   5      16.154  10.548   8.0470  0.00  0.00     0.000 C
ATOM     68  C4  NAG B   5      16.728   9.264   7.4330  0.00  0.00     0.000 C
ATOM     69  C5  NAG B   5      15.951   8.046   7.9080  0.00  0.00     0.000 C
ATOM     70  O5  NAG B   5      15.892   8.033   9.3410  0.00  0.00     0.000 O
ATOM     71   O  NAG B   5      16.689   9.379   6.0260  0.00  0.00     0.000 O
ATOM     73  HD  NAG B   5      17.475   9.022   6.0960  0.00  0.00     0.000 HD
ATOM     73   C  NAG B   5      16.534   6.704   7.4440  0.00  0.00     0.000 C
ATOM     74   O  NAG B   5      17.845   6.521   8.0190  0.00  0.00     0.000 O
ATOM     76  HD  NAG B   5      18.631   6.165   8.0890  0.00  0.00     0.000 HD
BRANCH 66 78
ATOM     76   N  NAG B   5      15.268  11.515  10.1980  0.00  0.00     0.000 N
ATOM     78  HD  NAG B   5      16.062  11.174  10.2480  0.00  0.00     0.000 HD
ATOM     78   C  NAG B   5      15.786  12.475  10.9800  0.00  0.00     0.000 C
ATOM     79   C  NAG B   5      14.764  13.467  11.4690  0.00  0.00     0.000 C
ATOM     80   O  NAG B   5      17.029  12.537  11.2890  0.00  0.00     0.000 OA
ENDBRANCH 66 78
BRANCH 65 81
ATOM     81  O4  BDP B   6      15.161   9.004  11.3260  0.00  0.00     0.000 O
BRANCH 81 85
ATOM     82  C1  BDP B   6      12.270   7.721  14.2170  0.00  0.00     0.000 C
ATOM     83  C2  BDP B   6      13.325   6.710  13.7780  0.00  0.00     0.000 C
ATOM     84  C3  BDP B   6      14.523   7.363  13.0830  0.00  0.00     0.000 C
ATOM     85  C4  BDP B   6      14.088   8.295  11.9500  0.00  0.00     0.000 C
ATOM     86  C5  BDP B   6      12.999   9.243  12.5050  0.00  0.00     0.000 C
ATOM     87  O5  BDP B   6      11.883   8.504  13.0970  0.00  0.00     0.000 O
ATOM     88   O  BDP B   6      13.760   6.069  14.9750  0.00  0.00     0.000 O
ATOM     90  HD  BDP B   6      14.485   5.793  15.3580  0.00  0.00     0.000 HD
ATOM     90   O  BDP B   6      15.409   6.350  12.6010  0.00  0.00     0.000 O
ATOM     92  HD  BDP B   6      16.135   6.073  12.9840  0.00  0.00     0.000 HD
BRANCH 86 92
ATOM     92   C  BDP B   6      12.358  10.027  11.3860  0.00  0.00     0.000 C
ATOM     93   O  BDP B   6      12.281  11.290  11.4730  0.00  0.00     0.000 OA
ATOM     94   O  BDP B   6      11.938   9.376  10.3800  0.00  0.00     0.000 OA
ENDBRANCH 86 92
BRANCH 82 95
ATOM     95  O3  NAG B   7      11.110   6.997  14.6730  0.00  0.00     0.000 O
BRANCH 95 98
ATOM     96  C1  NAG B   7       9.110   6.744  17.7190  0.00  0.00     0.000 C
ATOM     97  C2  NAG B   7       9.824   6.233  16.4750  0.00  0.00     0.000 C
ATOM     98  C3  NAG B   7      10.388   7.483  15.8040  0.00  0.00     0.000 C
ATOM     99  C4  NAG B   7       9.251   8.437  15.4430  0.00  0.00     0.000 C
ATOM    100  C5  NAG B   7       8.389   8.746  16.6680  0.00  0.00     0.000 C
ATOM    101  O5  NAG B   7       7.995   7.525  17.2730  0.00  0.00     0.000 O
BRANCH 97 104
ATOM    102   N  NAG B   7      11.034   5.405  16.5810  0.00  0.00     0.000 N
ATOM    104  HD  NAG B   7      11.823   5.075  16.4460  0.00  0.00     0.000 HD
ATOM    104   O  NAG B   7      12.272   3.511  16.4990  0.00  0.00     0.000 OA
ATOM    105   C  NAG B   7      11.160   4.072  16.4400  0.00  0.00     0.000 C
ATOM    106   C  NAG B   7       9.941   3.251  16.1920  0.00  0.00     0.000 C
ENDBRANCH 97 104
ATOM    107   O  NAG B   7       6.622  10.076  17.4500  0.00  0.00     0.000 O
ATOM    109  HD  NAG B   7       7.390   9.730  17.6500  0.00  0.00     0.000 HD
ATOM    109   O  NAG B   7       6.622  10.076  17.4500  0.00  0.00     0.000 O
ATOM    111  HD  NAG B   7       7.390   9.730  17.6500  0.00  0.00     0.000 HD
ENDBRANCH 95 98
ENDBRANCH 82 95
ENDBRANCH 81 85
ENDBRANCH 65 81
ENDBRANCH 64 67
ENDBRANCH 51 64
ENDBRANCH 50 54
ENDBRANCH 34 50
ENDBRANCH 33 36
ENDBRANCH 20 33
ENDBRANCH 19 23
ENDBRANCH 1 19
TORSDOF 19
ENDMDL
MODEL 7
REMARK VINA RESULT:      -6.4      1.752      2.778
ROOT
ATOM      1  C1  NAG B   1       6.748  22.155   7.1940  0.00  0.00     0.000 C
ATOM      2  C2  NAG B   1       6.015  22.004   5.8640  0.00  0.00     0.000 C
ATOM      3  C3  NAG B   1       4.513  21.951   6.0490  0.00  0.00     0.000 C
ATOM      4  C4  NAG B   1       4.259  20.776   6.9890  0.00  0.00     0.000 C
ATOM      5  C5  NAG B   1       4.916  21.065   8.3440  0.00  0.00     0.000 C
ATOM      6  O5  NAG B   1       6.345  21.220   8.2080  0.00  0.00     0.000 O
ATOM      7   O  NAG B   1       3.814  21.769   4.7960  0.00  0.00     0.000 O
ATOM      9  HD  NAG B   1       4.488  22.261   4.5650  0.00  0.00     0.000 HD
ATOM      9   O  NAG B   1       2.866  20.582   7.1620  0.00  0.00     0.000 O
ATOM     11  HD  NAG B   1       3.539  21.074   6.9300  0.00  0.00     0.000 HD
ATOM     11   C  NAG B   1       4.558  19.960   9.3460  0.00  0.00     0.000 C
ATOM     12   O  NAG B   1       5.583  19.796  10.3250  0.00  0.00     0.000 O
ATOM     14  HD  NAG B   1       6.257  20.288  10.0930  0.00  0.00     0.000 HD
ENDROOT
BRANCH 2 16
ATOM     14   N  NAG B   1       6.904  21.872   4.6950  0.00  0.00     0.000 N
ATOM     16  HD  NAG B   1       6.903  21.723   3.8420  0.00  0.00     0.000 HD
ATOM     16   C  NAG B   1       7.100  22.860   3.8050  0.00  0.00     0.000 C
ATOM     17   C  NAG B   1       6.374  24.169   3.9640  0.00  0.00     0.000 C
ATOM     18   O  NAG B   1       7.888  22.728   2.8690  0.00  0.00     0.000 OA
ENDBRANCH 2 16
BRANCH 1 19
ATOM     19  O4  BDP B   2       8.089  21.821   6.8650  0.00  0.00     0.000 O
BRANCH 19 23
ATOM     20  C1  BDP B   2      10.907  19.170   8.2710  0.00  0.00     0.000 C
ATOM     21  C2  BDP B   2       9.662  18.565   7.6560  0.00  0.00     0.000 C
ATOM     22  C3  BDP B   2       8.918  19.579   6.8160  0.00  0.00     0.000 C
ATOM     23  C4  BDP B   2       8.657  20.816   7.6710  0.00  0.00     0.000 C
ATOM     24  C5  BDP B   2       9.971  21.336   8.2200  0.00  0.00     0.000 C
ATOM     25  O5  BDP B   2      10.581  20.336   9.0140  0.00  0.00     0.000 O
ATOM     26   O  BDP B   2      10.001  17.448   6.8630  0.00  0.00     0.000 O
ATOM     28  HD  BDP B   2      10.751  17.582   7.2760  0.00  0.00     0.000 HD
ATOM     28   O  BDP B   2       7.701  18.991   6.3320  0.00  0.00     0.000 O
ATOM     30  HD  BDP B   2       8.450  19.124   6.7440  0.00  0.00     0.000 HD
BRANCH 24 30
ATOM     30   C  BDP B   2       9.786  22.538   9.0750  0.00  0.00     0.000 C
ATOM     31   O  BDP B   2      10.387  23.583   8.7340  0.00  0.00     0.000 OA
ATOM     32   O  BDP B   2       9.045  22.443  10.0950  0.00  0.00     0.000 OA
ENDBRANCH 24 30
BRANCH 20 33
ATOM     33  O3  NAG B   3      11.369  18.175   9.1520  0.00  0.00     0.000 O
BRANCH 33 36
ATOM     34  C1  NAG B   3      14.900  17.016   9.7300  0.00  0.00     0.000 C
ATOM     35  C2  NAG B   3      13.464  16.965   9.2450  0.00  0.00     0.000 C
ATOM     36  C3  NAG B   3      12.763  18.320   9.4300  0.00  0.00     0.000 C
ATOM     37  C4  NAG B   3      12.934  18.785  10.8740  0.00  0.00     0.000 C
ATOM     38  C5  NAG B   3      14.403  18.715  11.2820  0.00  0.00     0.000 C
ATOM     39  O5  NAG B   3      14.894  17.397  11.0980  0.00  0.00     0.000 O
ATOM     40   O  NAG B   3      12.463  20.134  11.0150  0.00  0.00     0.000 O
ATOM     42  HD  NAG B   3      13.258  20.247  11.3390  0.00  0.00     0.000 HD
ATOM     42   C  NAG B   3      14.651  19.038  12.7540  0.00  0.00     0.000 C
ATOM     43   O  NAG B   3      14.045  18.031  13.5740  0.00  0.00     0.000 O
ATOM     45  HD  NAG B   3      14.840  18.143  13.8980  0.00  0.00     0.000 HD
BRANCH 35 47
ATOM     45   N  NAG B   3      13.001  15.707   8.6730  0.00  0.00     0.000 N
ATOM     47  HD  NAG B   3      12.740  15.818   9.4910  0.00  0.00     0.000 HD
ATOM     47   C  NAG B   3      12.613  15.589   7.4190  0.00  0.00     0.000 C
ATOM     48   C  NAG B   3      12.147  14.227   6.9970  0.00  0.00     0.000 C
ATOM     49   O  NAG B   3      12.607  16.545   6.6460  0.00  0.00     0.000 OA
ENDBRANCH 35 47
BRANCH 34 50
ATOM     50  O4  BDP B   4      15.346  15.683   9.5930  0.00  0.00     0.000 O
BRANCH 50 54
ATOM     51  C1  BDP B   4      18.461  13.324   8.4590  0.00  0.00     0.000 C
ATOM     52  C2  BDP B   4      18.700  14.113   9.7410  0.00  0.00     0.000 C
ATOM     53  C3  BDP B   4      17.385  14.628  10.2400  0.00  0.00     0.000 C
ATOM     54  C4  BDP B   4      16.683  15.448   9.1200  0.00  0.00     0.000 C
ATOM     55  C5  BDP B   4      16.641  14.700   7.7940  0.00  0.00     0.000 C
ATOM     56  O5  BDP B   4      17.930  14.187   7.4700  0.00  0.00     0.000 O
ATOM     57   O  BDP B   4      19.282  13.285  10.7250  0.00  0.00     0.000 O
ATOM     59  HD  BDP B   4      20.118  13.511  10.7340  0.00  0.00     0.000 HD
ATOM     59   O  BDP B   4      17.672  15.524  11.3330  0.00  0.00     0.000 O
ATOM     61  HD  BDP B   4      18.508  15.749  11.3420  0.00  0.00     0.000 HD
BRANCH 55 61
ATOM     61   C  BDP B   4      16.192  15.650   6.6980  0.00  0.00     0.000 C
ATOM     62   O  BDP B   4      15.508  15.178   5.7520  0.00  0.00     0.000 OA
ATOM     63   O  BDP B   4      16.524  16.871   6.7870  0.00  0.00     0.000 OA
ENDBRANCH 55 61
BRANCH 51 64
ATOM     64  O3  NAG B   5      19.732  12.790   8.0420  0.00  0.00     0.000 O
BRANCH 64 67
ATOM     65  C1  NAG B   5      19.646   9.581   6.2300  0.00  0.00     0.000 C
ATOM     66  C2  NAG B   5      19.530  10.550   7.3930  0.00  0.00     0.000 C
ATOM     67  C3  NAG B   5      19.631  11.983   6.8860  0.00  0.00     0.000 C
ATOM     68  C4  NAG B   5      20.883  12.174   6.0190  0.00  0.00     0.000 C
ATOM     69  C5  NAG B   5      20.959  11.103   4.9420  0.00  0.00     0.000 C
ATOM     70  O5  NAG B   5      20.854   9.802   5.5380  0.00  0.00     0.000 O
ATOM     71   O  NAG B   5      20.848  13.466   5.4530  0.00  0.00     0.000 O
ATOM     73  HD  NAG B   5      21.688  13.449   5.6630  0.00  0.00     0.000 HD
ATOM     73   C  NAG B   5      22.246  11.137   4.1050  0.00  0.00     0.000 C
ATOM     74   O  NAG B   5      23.381  10.857   4.9510  0.00  0.00     0.000 O
ATOM     76  HD  NAG B   5      24.221  10.840   5.1610  0.00  0.00     0.000 HD
BRANCH 66 78
ATOM     76   N  NAG B   5      18.290  10.070   8.0340  0.00  0.00     0.000 N
ATOM     78  HD  NAG B   5      19.095  10.277   8.2780  0.00  0.00     0.000 HD
ATOM     78   C  NAG B   5      18.055  10.013   9.3540  0.00  0.00     0.000 C
ATOM     79   C  NAG B   5      16.685   9.493   9.6970  0.00  0.00     0.000 C
ATOM     80   O  NAG B   5      18.918  10.359  10.2380  0.00  0.00     0.000 OA
ENDBRANCH 66 78
BRANCH 65 81
ATOM     81  O4  BDP B   6      19.598   8.230   6.7080  0.00  0.00     0.000 O
BRANCH 81 85
ATOM     82  C1  BDP B   6      19.200   4.245   5.1830  0.00  0.00     0.000 C
ATOM     83  C2  BDP B   6      20.598   4.856   5.2030  0.00  0.00     0.000 C
ATOM     84  C3  BDP B   6      20.700   6.079   6.1180  0.00  0.00     0.000 C
ATOM     85  C4  BDP B   6      19.608   7.109   5.8210  0.00  0.00     0.000 C
ATOM     86  C5  BDP B   6      18.250   6.367   5.7930  0.00  0.00     0.000 C
ATOM     87  O5  BDP B   6      18.257   5.252   4.8450  0.00  0.00     0.000 O
ATOM     88   O  BDP B   6      21.457   3.826   5.6860  0.00  0.00     0.000 O
ATOM     90  HD  BDP B   6      22.126   3.713   6.2240  0.00  0.00     0.000 HD
ATOM     90   O  BDP B   6      22.000   6.662   5.9970  0.00  0.00     0.000 O
ATOM     92  HD  BDP B   6      22.669   6.549   6.5350  0.00  0.00     0.000 HD
BRANCH 86 92
ATOM     92   C  BDP B   6      17.161   7.274   5.2730  0.00  0.00     0.000 C
ATOM     93   O  BDP B   6      16.148   7.512   5.9980  0.00  0.00     0.000 OA
ATOM     94   O  BDP B   6      17.324   7.785   4.1220  0.00  0.00     0.000 OA
ENDBRANCH 86 92
BRANCH 82 95
ATOM     95  O3  NAG B   7      19.160   3.238   4.1530  0.00  0.00     0.000 O
BRANCH 95 98
ATOM     96  C1  NAG B   7      16.694   0.566   3.8080  0.00  0.00     0.000 C
ATOM     97  C2  NAG B   7      18.053   1.174   4.1250  0.00  0.00     0.000 C
ATOM     98  C3  NAG B   7      17.906   2.658   3.7960  0.00  0.00     0.000 C
ATOM     99  C4  NAG B   7      17.547   2.830   2.3220  0.00  0.00     0.000 C
ATOM    100  C5  NAG B   7      16.310   2.007   1.9620  0.00  0.00     0.000 C
ATOM    101  O5  NAG B   7      16.506   0.668   2.3920  0.00  0.00     0.000 O
BRANCH 97 104
ATOM    102   N  NAG B   7      18.456   1.101   5.5360  0.00  0.00     0.000 N
ATOM    104  HD  NAG B   7      18.662   1.320   6.3480  0.00  0.00     0.000 HD
ATOM    104   O  NAG B   7      19.824   0.676   7.2900  0.00  0.00     0.000 OA
ATOM    105   C  NAG B   7      19.595   0.617   6.0660  0.00  0.00     0.000 C
ATOM    106   C  NAG B   7      20.612   0.006   5.1630  0.00  0.00     0.000 C
ENDBRANCH 97 104
ATOM    107   O  NAG B   7      14.759   1.570   0.2560  0.00  0.00     0.000 O
ATOM    109  HD  NAG B   7      14.862   1.679   1.1090  0.00  0.00     0.000 HD
ATOM    109   O  NAG B   7      14.759   1.570   0.2560  0.00  0.00     0.000 O
ATOM    111  HD  NAG B   7      14.862   1.679   1.1090  0.00  0.00     0.000 HD
ENDBRANCH 95 98
ENDBRANCH 82 95
ENDBRANCH 81 85
ENDBRANCH 65 81
ENDBRANCH 64 67
ENDBRANCH 51 64
ENDBRANCH 50 54
ENDBRANCH 34 50
ENDBRANCH 33 36
ENDBRANCH 20 33
ENDBRANCH 19 23
ENDBRANCH 1 19
TORSDOF 19
ENDMDL
MODEL 8
REMARK VINA RESULT:      -6.4      5.656      6.961
ROOT
ATOM      1  C1  NAG B   1       5.845  21.627   8.5390  0.00  0.00     0.000 C
ATOM      2  C2  NAG B   1       4.649  21.654   9.4870  0.00  0.00     0.000 C
ATOM      3  C3  NAG B   1       3.967  23.007   9.4960  0.00  0.00     0.000 C
ATOM      4  C4  NAG B   1       5.048  24.006   9.8960  0.00  0.00     0.000 C
ATOM      5  C5  NAG B   1       6.147  24.012   8.8250  0.00  0.00     0.000 C
ATOM      6  O5  NAG B   1       6.768  22.714   8.7090  0.00  0.00     0.000 O
ATOM      7   O  NAG B   1       2.856  23.052  10.4210  0.00  0.00     0.000 O
ATOM      9  HD  NAG B   1       2.823  22.237  10.1280  0.00  0.00     0.000 HD
ATOM      9   O  NAG B   1       4.491  25.304  10.0200  0.00  0.00     0.000 O
ATOM     11  HD  NAG B   1       4.458  24.489   9.7280  0.00  0.00     0.000 HD
ATOM     11   C  NAG B   1       7.175  25.107   9.1370  0.00  0.00     0.000 C
ATOM     12   O  NAG B   1       8.466  24.764   8.6360  0.00  0.00     0.000 O
ATOM     14  HD  NAG B   1       8.432  23.949   8.3440  0.00  0.00     0.000 HD
ENDROOT
BRANCH 2 16
ATOM     14   N  NAG B   1       4.271  20.529  10.3610  0.00  0.00     0.000 N
ATOM     16  HD  NAG B   1       3.633  20.233  10.8660  0.00  0.00     0.000 HD
ATOM     16   C  NAG B   1       3.461  19.531   9.9650  0.00  0.00     0.000 C
ATOM     17   C  NAG B   1       2.874  19.544   8.5790  0.00  0.00     0.000 C
ATOM     18   O  NAG B   1       3.208  18.582  10.7070  0.00  0.00     0.000 OA
ENDBRANCH 2 16
BRANCH 1 19
ATOM     19  O4  BDP B   2       6.544  20.454   8.9340  0.00  0.00     0.000 O
BRANCH 19 23
ATOM     20  C1  BDP B   2      10.505  19.385   9.2690  0.00  0.00     0.000 C
ATOM     21  C2  BDP B   2       9.919  20.170  10.4250  0.00  0.00     0.000 C
ATOM     22  C3  BDP B   2       8.408  20.140  10.3980  0.00  0.00     0.000 C
ATOM     23  C4  BDP B   2       7.941  20.608   9.0230  0.00  0.00     0.000 C
ATOM     24  C5  BDP B   2       8.580  19.745   7.9520  0.00  0.00     0.000 C
ATOM     25  O5  BDP B   2       9.988  19.856   8.0330  0.00  0.00     0.000 O
ATOM     26   O  BDP B   2      10.383  19.652  11.6530  0.00  0.00     0.000 O
ATOM     28  HD  BDP B   2      10.910  19.242  11.1010  0.00  0.00     0.000 HD
ATOM     28   O  BDP B   2       7.899  20.972  11.4530  0.00  0.00     0.000 O
ATOM     30  HD  BDP B   2       8.426  20.562  10.9000  0.00  0.00     0.000 HD
BRANCH 24 30
ATOM     30   C  BDP B   2       8.174  20.156   6.5820  0.00  0.00     0.000 C
ATOM     31   O  BDP B   2       7.514  19.332   5.9070  0.00  0.00     0.000 OA
ATOM     32   O  BDP B   2       8.519  21.301   6.1710  0.00  0.00     0.000 OA
ENDBRANCH 24 30
BRANCH 20 33
ATOM     33  O3  NAG B   3      11.882  19.664   9.3310  0.00  0.00     0.000 O
BRANCH 33 36
ATOM     34  C1  NAG B   3      14.423  17.272   7.9260  0.00  0.00     0.000 C
ATOM     35  C2  NAG B   3      13.477  17.885   8.9420  0.00  0.00     0.000 C
ATOM     36  C3  NAG B   3      12.607  18.980   8.3060  0.00  0.00     0.000 C
ATOM     37  C4  NAG B   3      13.504  19.982   7.5830  0.00  0.00     0.000 C
ATOM     38  C5  NAG B   3      14.470  19.252   6.6530  0.00  0.00     0.000 C
ATOM     39  O5  NAG B   3      15.231  18.310   7.3900  0.00  0.00     0.000 O
ATOM     40   O  NAG B   3      12.703  20.895   6.8180  0.00  0.00     0.000 O
ATOM     42  HD  NAG B   3      13.223  20.625   6.1810  0.00  0.00     0.000 HD
ATOM     42   C  NAG B   3      15.494  20.167   5.9850  0.00  0.00     0.000 C
ATOM     43   O  NAG B   3      16.366  20.717   6.9810  0.00  0.00     0.000 O
ATOM     45  HD  NAG B   3      16.886  20.446   6.3430  0.00  0.00     0.000 HD
BRANCH 35 47
ATOM     45   N  NAG B   3      13.237  17.705  10.3680  0.00  0.00     0.000 N
ATOM     47  HD  NAG B   3      13.263  18.539  10.1370  0.00  0.00     0.000 HD
ATOM     47   C  NAG B   3      12.484  16.738  10.8520  0.00  0.00     0.000 C
ATOM     48   C  NAG B   3      12.324  16.707  12.3430  0.00  0.00     0.000 C
ATOM     49   O  NAG B   3      11.921  15.923  10.1230  0.00  0.00     0.000 OA
ENDBRANCH 35 47
BRANCH 34 50
ATOM     50  O4  BDP B   4      15.208  16.384   8.6940  0.00  0.00     0.000 O
BRANCH 50 54
ATOM     51  C1  BDP B   4      17.041  12.758   8.4900  0.00  0.00     0.000 C
ATOM     52  C2  BDP B   4      17.976  13.949   8.3130  0.00  0.00     0.000 C
ATOM     53  C3  BDP B   4      17.268  15.186   8.7750  0.00  0.00     0.000 C
ATOM     54  C4  BDP B   4      15.917  15.331   8.0180  0.00  0.00     0.000 C
ATOM     55  C5  BDP B   4      15.095  14.050   8.0480  0.00  0.00     0.000 C
ATOM     56  O5  BDP B   4      15.898  12.935   7.6720  0.00  0.00     0.000 O
ATOM     57   O  BDP B   4      19.149  13.768   9.0770  0.00  0.00     0.000 O
ATOM     59  HD  BDP B   4      19.752  13.537   8.5000  0.00  0.00     0.000 HD
ATOM     59   O  BDP B   4      18.103  16.306   8.4150  0.00  0.00     0.000 O
ATOM     61  HD  BDP B   4      18.705  16.074   7.8370  0.00  0.00     0.000 HD
BRANCH 55 61
ATOM     61   C  BDP B   4      13.933  14.177   7.0790  0.00  0.00     0.000 C
ATOM     62   O  BDP B   4      12.769  14.010   7.5280  0.00  0.00     0.000 OA
ATOM     63   O  BDP B   4      14.189  14.447   5.8660  0.00  0.00     0.000 OA
ENDBRANCH 55 61
BRANCH 51 64
ATOM     64  O3  NAG B   5      17.772  11.579   8.0980  0.00  0.00     0.000 O
BRANCH 64 67
ATOM     65  C1  NAG B   5      16.728   8.403   9.6520  0.00  0.00     0.000 C
ATOM     66  C2  NAG B   5      17.334   9.792   9.5440  0.00  0.00     0.000 C
ATOM     67  C3  NAG B   5      16.995  10.402   8.1900  0.00  0.00     0.000 C
ATOM     68  C4  NAG B   5      17.373   9.450   7.0470  0.00  0.00     0.000 C
ATOM     69  C5  NAG B   5      16.799   8.063   7.2900  0.00  0.00     0.000 C
ATOM     70  O5  NAG B   5      17.184   7.596   8.5910  0.00  0.00     0.000 O
ATOM     71   O  NAG B   5      16.901   9.993   5.8320  0.00  0.00     0.000 O
ATOM     73  HD  NAG B   5      17.677   9.727   5.5520  0.00  0.00     0.000 HD
ATOM     73   C  NAG B   5      17.232   7.010   6.2610  0.00  0.00     0.000 C
ATOM     74   O  NAG B   5      18.659   6.811   6.3430  0.00  0.00     0.000 O
ATOM     76  HD  NAG B   5      19.434   6.545   6.0630  0.00  0.00     0.000 HD
BRANCH 66 78
ATOM     76   N  NAG B   5      16.846  10.391  10.8010  0.00  0.00     0.000 N
ATOM     78  HD  NAG B   5      17.595  10.336  10.3710  0.00  0.00     0.000 HD
ATOM     78   C  NAG B   5      17.516  11.260  11.5740  0.00  0.00     0.000 C
ATOM     79   C  NAG B   5      16.743  11.707  12.7850  0.00  0.00     0.000 C
ATOM     80   O  NAG B   5      18.705  11.663  11.3100  0.00  0.00     0.000 OA
ENDBRANCH 66 78
BRANCH 65 81
ATOM     81  O4  BDP B   6      17.083   7.806  10.9060  0.00  0.00     0.000 O
BRANCH 81 85
ATOM     82  C1  BDP B   6      15.505   4.793  13.5120  0.00  0.00     0.000 C
ATOM     83  C2  BDP B   6      16.705   4.419  12.6480  0.00  0.00     0.000 C
ATOM     84  C3  BDP B   6      17.433   5.641  12.0790  0.00  0.00     0.000 C
ATOM     85  C4  BDP B   6      16.472   6.602  11.3760  0.00  0.00     0.000 C
ATOM     86  C5  BDP B   6      15.288   6.876  12.3320  0.00  0.00     0.000 C
ATOM     87  O5  BDP B   6      14.639   5.637  12.7670  0.00  0.00     0.000 O
ATOM     88   O  BDP B   6      17.584   3.699  13.5080  0.00  0.00     0.000 O
ATOM     90  HD  BDP B   6      18.427   3.629  13.6940  0.00  0.00     0.000 HD
ATOM     90   O  BDP B   6      18.470   5.213  11.1930  0.00  0.00     0.000 O
ATOM     92  HD  BDP B   6      19.312   5.143  11.3790  0.00  0.00     0.000 HD
BRANCH 86 92
ATOM     92   C  BDP B   6      14.190   7.624  11.6160  0.00  0.00     0.000 C
ATOM     93   O  BDP B   6      14.071   8.875  11.7880  0.00  0.00     0.000 OA
ATOM     94   O  BDP B   6      13.435   6.957  10.8410  0.00  0.00     0.000 OA
ENDBRANCH 86 92
BRANCH 82 95
ATOM     95  O3  NAG B   7      14.781   3.588  13.8290  0.00  0.00     0.000 O
BRANCH 95 98
ATOM     96  C1  NAG B   7      13.143   2.307  16.8320  0.00  0.00     0.000 C
ATOM     97  C2  NAG B   7      14.082   2.269  15.6340  0.00  0.00     0.000 C
ATOM     98  C3  NAG B   7      13.856   3.597  14.9150  0.00  0.00     0.000 C
ATOM     99  C4  NAG B   7      12.397   3.709  14.4790  0.00  0.00     0.000 C
ATOM    100  C5  NAG B   7      11.455   3.497  15.6640  0.00  0.00     0.000 C
ATOM    101  O5  NAG B   7      11.806   2.288  16.3200  0.00  0.00     0.000 O
BRANCH 97 104
ATOM    102   N  NAG B   7      15.520   2.240  15.9340  0.00  0.00     0.000 N
ATOM    104  HD  NAG B   7      16.359   2.451  15.9800  0.00  0.00     0.000 HD
ATOM    104   O  NAG B   7      17.646   1.462  15.8580  0.00  0.00     0.000 OA
ATOM    105   C  NAG B   7      16.439   1.322  15.5790  0.00  0.00     0.000 C
ATOM    106   C  NAG B   7      16.002   0.115  14.8210  0.00  0.00     0.000 C
ENDBRANCH 97 104
ATOM    107   O  NAG B   7       9.208   3.582  16.3320  0.00  0.00     0.000 O
ATOM    109  HD  NAG B   7      10.024   3.749  16.5690  0.00  0.00     0.000 HD
ATOM    109   O  NAG B   7       9.208   3.582  16.3320  0.00  0.00     0.000 O
ATOM    111  HD  NAG B   7      10.024   3.749  16.5690  0.00  0.00     0.000 HD
ENDBRANCH 95 98
ENDBRANCH 82 95
ENDBRANCH 81 85
ENDBRANCH 65 81
ENDBRANCH 64 67
ENDBRANCH 51 64
ENDBRANCH 50 54
ENDBRANCH 34 50
ENDBRANCH 33 36
ENDBRANCH 20 33
ENDBRANCH 19 23
ENDBRANCH 1 19
TORSDOF 19
ENDMDL
MODEL 9
REMARK VINA RESULT:      -6.3     10.853     18.241
ROOT
ATOM      1  C1  NAG B   1       7.639   2.742  20.5100  0.00  0.00     0.000 C
ATOM      2  C2  NAG B   1       8.224   1.979  21.6950  0.00  0.00     0.000 C
ATOM      3  C3  NAG B   1       7.245   0.964  22.2510  0.00  0.00     0.000 C
ATOM      4  C4  NAG B   1       6.002   1.762  22.6300  0.00  0.00     0.000 C
ATOM      5  C5  NAG B   1       5.401   2.388  21.3650  0.00  0.00     0.000 C
ATOM      6  O5  NAG B   1       6.334   3.296  20.7400  0.00  0.00     0.000 O
ATOM      7   O  NAG B   1       7.778   0.264  23.3990  0.00  0.00     0.000 O
ATOM      9  HD  NAG B   1       8.483   0.383  22.9090  0.00  0.00     0.000 HD
ATOM      9   O  NAG B   1       5.047   0.914  23.2460  0.00  0.00     0.000 O
ATOM     11  HD  NAG B   1       5.751   1.033  22.7560  0.00  0.00     0.000 HD
ATOM     11   C  NAG B   1       4.075   3.081  21.7020  0.00  0.00     0.000 C
ATOM     12   O  NAG B   1       3.821   4.172  20.8190  0.00  0.00     0.000 O
ATOM     14  HD  NAG B   1       4.525   4.291  20.3300  0.00  0.00     0.000 HD
ENDROOT
BRANCH 2 16
ATOM     14   N  NAG B   1       9.523   1.480  21.2100  0.00  0.00     0.000 N
ATOM     16  HD  NAG B   1      10.236   1.719  20.7810  0.00  0.00     0.000 HD
ATOM     16   C  NAG B   1      10.684   1.716  21.8440  0.00  0.00     0.000 C
ATOM     17   C  NAG B   1      10.699   2.547  23.0990  0.00  0.00     0.000 C
ATOM     18   O  NAG B   1      11.743   1.241  21.4350  0.00  0.00     0.000 OA
ENDBRANCH 2 16
BRANCH 1 19
ATOM     19  O4  BDP B   2       8.517   3.852  20.3750  0.00  0.00     0.000 O
BRANCH 19 23
ATOM     20  C1  BDP B   2       9.344   6.531  17.3620  0.00  0.00     0.000 C
ATOM     21  C2  BDP B   2       8.223   6.908  18.3090  0.00  0.00     0.000 C
ATOM     22  C3  BDP B   2       8.285   6.095  19.5820  0.00  0.00     0.000 C
ATOM     23  C4  BDP B   2       8.319   4.616  19.2090  0.00  0.00     0.000 C
ATOM     24  C5  BDP B   2       9.483   4.358  18.2730  0.00  0.00     0.000 C
ATOM     25  O5  BDP B   2       9.329   5.135  17.1000  0.00  0.00     0.000 O
ATOM     26   O  BDP B   2       8.286   8.283  18.6190  0.00  0.00     0.000 O
ATOM     28  HD  BDP B   2       8.850   8.244  17.9630  0.00  0.00     0.000 HD
ATOM     28   O  BDP B   2       7.154   6.418  20.4060  0.00  0.00     0.000 O
ATOM     30  HD  BDP B   2       7.718   6.379  19.7500  0.00  0.00     0.000 HD
BRANCH 24 30
ATOM     30   C  BDP B   2       9.568   2.933  17.8600  0.00  0.00     0.000 C
ATOM     31   O  BDP B   2       8.698   2.513  17.0620  0.00  0.00     0.000 OA
ATOM     32   O  BDP B   2      10.499   2.223  18.3370  0.00  0.00     0.000 OA
ENDBRANCH 24 30
BRANCH 20 33
ATOM     33  O3  NAG B   3       9.037   7.227  16.1780  0.00  0.00     0.000 O
BRANCH 33 36
ATOM     34  C1  NAG B   3      11.410   9.014  13.8700  0.00  0.00     0.000 C
ATOM     35  C2  NAG B   3      10.338   8.843  14.9300  0.00  0.00     0.000 C
ATOM     36  C3  NAG B   3      10.184   7.369  15.3360  0.00  0.00     0.000 C
ATOM     37  C4  NAG B   3       9.988   6.517  14.0850  0.00  0.00     0.000 C
ATOM     38  C5  NAG B   3      11.070   6.832  13.0550  0.00  0.00     0.000 C
ATOM     39  O5  NAG B   3      11.058   8.216  12.7490  0.00  0.00     0.000 O
ATOM     40   O  NAG B   3      10.044   5.124  14.4260  0.00  0.00     0.000 O
ATOM     42  HD  NAG B   3      10.649   5.123  13.8070  0.00  0.00     0.000 HD
ATOM     42   C  NAG B   3      10.876   6.119  11.7190  0.00  0.00     0.000 C
ATOM     43   O  NAG B   3       9.685   6.604  11.0860  0.00  0.00     0.000 O
ATOM     45  HD  NAG B   3      10.290   6.603  10.4670  0.00  0.00     0.000 HD
BRANCH 35 47
ATOM     45   N  NAG B   3       9.583   9.983  15.4350  0.00  0.00     0.000 N
ATOM     47  HD  NAG B   3       9.105   9.461  14.9360  0.00  0.00     0.000 HD
ATOM     47   C  NAG B   3       9.746  10.469  16.6490  0.00  0.00     0.000 C
ATOM     48   C  NAG B   3       8.874  11.633  17.0170  0.00  0.00     0.000 C
ATOM     49   O  NAG B   3      10.547   9.982  17.4440  0.00  0.00     0.000 OA
ENDBRANCH 35 47
BRANCH 34 50
ATOM     50  O4  BDP B   4      11.337  10.385  13.5400  0.00  0.00     0.000 O
BRANCH 50 54
ATOM     51  C1  BDP B   4      13.446  13.485  11.9590  0.00  0.00     0.000 C
ATOM     52  C2  BDP B   4      13.560  12.180  11.1790  0.00  0.00     0.000 C
ATOM     53  C3  BDP B   4      12.473  11.254  11.6310  0.00  0.00     0.000 C
ATOM     54  C4  BDP B   4      12.546  11.071  13.1740  0.00  0.00     0.000 C
ATOM     55  C5  BDP B   4      12.632  12.401  13.9120  0.00  0.00     0.000 C
ATOM     56  O5  BDP B   4      13.643  13.225  13.3370  0.00  0.00     0.000 O
ATOM     57   O  BDP B   4      13.423  12.423   9.7950  0.00  0.00     0.000 O
ATOM     59  HD  BDP B   4      14.231  12.381   9.4850  0.00  0.00     0.000 HD
ATOM     59   O  BDP B   4      12.729   9.974  11.0190  0.00  0.00     0.000 O
ATOM     61  HD  BDP B   4      13.537   9.932  10.7090  0.00  0.00     0.000 HD
BRANCH 55 61
ATOM     61   C  BDP B   4      12.967  12.143  15.3700  0.00  0.00     0.000 C
ATOM     62   O  BDP B   4      13.826  11.261  15.6320  0.00  0.00     0.000 OA
ATOM     63   O  BDP B   4      12.369  12.830  16.2540  0.00  0.00     0.000 OA
ENDBRANCH 55 61
BRANCH 51 64
ATOM     64  O3  NAG B   5      14.463  14.373  11.4570  0.00  0.00     0.000 O
BRANCH 64 67
ATOM     65  C1  NAG B   5      13.934  17.843  10.3290  0.00  0.00     0.000 C
ATOM     66  C2  NAG B   5      14.057  16.332  10.2410  0.00  0.00     0.000 C
ATOM     67  C3  NAG B   5      14.134  15.736  11.6410  0.00  0.00     0.000 C
ATOM     68  C4  NAG B   5      15.230  16.418  12.4710  0.00  0.00     0.000 C
ATOM     69  C5  NAG B   5      15.078  17.930  12.4230  0.00  0.00     0.000 C
ATOM     70  O5  NAG B   5      15.017  18.372  11.0590  0.00  0.00     0.000 O
ATOM     71   O  NAG B   5      15.157  15.939  13.7970  0.00  0.00     0.000 O
ATOM     73  HD  NAG B   5      16.019  15.927  13.7120  0.00  0.00     0.000 HD
ATOM     73   C  NAG B   5      16.206  18.702  13.1220  0.00  0.00     0.000 C
ATOM     74   O  NAG B   5      17.454  18.459  12.4380  0.00  0.00     0.000 O
ATOM     76  HD  NAG B   5      18.315  18.448  12.3530  0.00  0.00     0.000 HD
BRANCH 66 78
ATOM     76   N  NAG B   5      13.963  15.738   8.8940  0.00  0.00     0.000 N
ATOM     78  HD  NAG B   5      13.516  15.710   9.6350  0.00  0.00     0.000 HD
ATOM     78   C  NAG B   5      12.910  15.068   8.3990  0.00  0.00     0.000 C
ATOM     79   C  NAG B   5      13.109  14.600   6.9830  0.00  0.00     0.000 C
ATOM     80   O  NAG B   5      11.841  14.842   9.0710  0.00  0.00     0.000 OA
ENDBRANCH 66 78
BRANCH 65 81
ATOM     81  O4  BDP B   6      13.908  18.413   9.0140  0.00  0.00     0.000 O
BRANCH 81 85
ATOM     82  C1  BDP B   6      12.211  21.721   6.8840  0.00  0.00     0.000 C
ATOM     83  C2  BDP B   6      13.303  22.026   7.9050  0.00  0.00     0.000 C
ATOM     84  C3  BDP B   6      14.112  20.787   8.2980  0.00  0.00     0.000 C
ATOM     85  C4  BDP B   6      13.210  19.626   8.7240  0.00  0.00     0.000 C
ATOM     86  C5  BDP B   6      12.129  19.438   7.6330  0.00  0.00     0.000 C
ATOM     87  O5  BDP B   6      11.388  20.675   7.3810  0.00  0.00     0.000 O
ATOM     88   O  BDP B   6      14.160  22.974   7.2740  0.00  0.00     0.000 O
ATOM     90  HD  BDP B   6      15.002  23.152   7.1790  0.00  0.00     0.000 HD
ATOM     90   O  BDP B   6      15.035  21.126   9.3370  0.00  0.00     0.000 O
ATOM     92  HD  BDP B   6      15.876  21.305   9.2420  0.00  0.00     0.000 HD
BRANCH 86 92
ATOM     92   C  BDP B   6      11.068  18.472   8.0990  0.00  0.00     0.000 C
ATOM     93   O  BDP B   6      10.714  17.520   7.3390  0.00  0.00     0.000 OA
ATOM     94   O  BDP B   6      10.586  18.646   9.2610  0.00  0.00     0.000 OA
ENDBRANCH 86 92
BRANCH 82 95
ATOM     95  O3  NAG B   7      11.390  22.896   6.7330  0.00  0.00     0.000 O
BRANCH 95 98
ATOM     96  C1  NAG B   7      10.240  24.965   3.9510  0.00  0.00     0.000 C
ATOM     97  C2  NAG B   7      10.826  24.683   5.3290  0.00  0.00     0.000 C
ATOM     98  C3  NAG B   7      10.783  23.163   5.4700  0.00  0.00     0.000 C
ATOM     99  C4  NAG B   7       9.341  22.673   5.3650  0.00  0.00     0.000 C
ATOM    100  C5  NAG B   7       8.685  23.178   4.0790  0.00  0.00     0.000 C
ATOM    101  O5  NAG B   7       8.861  24.584   3.9940  0.00  0.00     0.000 O
BRANCH 97 104
ATOM    102   N  NAG B   7      12.240  25.025   5.5350  0.00  0.00     0.000 N
ATOM    104  HD  NAG B   7      13.086  24.969   5.7110  0.00  0.00     0.000 HD
ATOM    104   O  NAG B   7      14.013  26.044   6.5090  0.00  0.00     0.000 OA
ATOM    105   C  NAG B   7      12.779  25.901   6.4040  0.00  0.00     0.000 C
ATOM    106   C  NAG B   7      11.876  26.709   7.2720  0.00  0.00     0.000 C
ENDBRANCH 97 104
ATOM    107   O  NAG B   7       6.759  23.015   2.7490  0.00  0.00     0.000 O
ATOM    109  HD  NAG B   7       7.623  23.078   2.7400  0.00  0.00     0.000 HD
ATOM    109   O  NAG B   7       6.759  23.015   2.7490  0.00  0.00     0.000 O
ATOM    111  HD  NAG B   7       7.623  23.078   2.7400  0.00  0.00     0.000 HD
ENDBRANCH 95 98
ENDBRANCH 82 95
ENDBRANCH 81 85
ENDBRANCH 65 81
ENDBRANCH 64 67
ENDBRANCH 51 64
ENDBRANCH 50 54
ENDBRANCH 34 50
ENDBRANCH 33 36
ENDBRANCH 20 33
ENDBRANCH 19 23
ENDBRANCH 1 19
TORSDOF 19
ENDMDL
MODEL 10
REMARK VINA RESULT:      -6.3      9.303     18.948
ROOT
ATOM      1  C1  NAG B   1      19.078   5.054   3.6740  0.00  0.00     0.000 C
ATOM      2  C2  NAG B   1      18.359   4.615   2.4010  0.00  0.00     0.000 C
ATOM      3  C3  NAG B   1      19.178   4.909   1.1610  0.00  0.00     0.000 C
ATOM      4  C4  NAG B   1      19.441   6.412   1.1920  0.00  0.00     0.000 C
ATOM      5  C5  NAG B   1      20.279   6.750   2.4310  0.00  0.00     0.000 C
ATOM      6  O5  NAG B   1      19.580   6.400   3.6440  0.00  0.00     0.000 O
ATOM      7   O  NAG B   1      18.487   4.532  -0.0520  0.00  0.00     0.000 O
ATOM      9  HD  NAG B   1      18.231   3.922   0.5070  0.00  0.00     0.000 HD
ATOM      9   O  NAG B   1      20.132   6.810   0.0200  0.00  0.00     0.000 O
ATOM     11  HD  NAG B   1      19.876   6.200   0.5790  0.00  0.00     0.000 HD
ATOM     11   C  NAG B   1      20.670   8.233   2.4090  0.00  0.00     0.000 C
ATOM     12   O  NAG B   1      20.840   8.743   3.7300  0.00  0.00     0.000 O
ATOM     14  HD  NAG B   1      20.584   8.133   4.2890  0.00  0.00     0.000 HD
ENDROOT
BRANCH 2 16
ATOM     14   N  NAG B   1      16.994   4.076   2.5310  0.00  0.00     0.000 N
ATOM     16  HD  NAG B   1      16.338   3.744   2.0740  0.00  0.00     0.000 HD
ATOM     16   C  NAG B   1      16.721   2.760   2.5390  0.00  0.00     0.000 C
ATOM     17   C  NAG B   1      17.837   1.761   2.3830  0.00  0.00     0.000 C
ATOM     18   O  NAG B   1      15.573   2.347   2.7000  0.00  0.00     0.000 OA
ENDBRANCH 2 16
BRANCH 1 19
ATOM     19  O4  BDP B   2      18.044   5.044   4.6490  0.00  0.00     0.000 O
BRANCH 19 23
ATOM     20  C1  BDP B   2      17.084   7.321   7.9410  0.00  0.00     0.000 C
ATOM     21  C2  BDP B   2      16.754   7.919   6.5890  0.00  0.00     0.000 C
ATOM     22  C3  BDP B   2      16.752   6.862   5.5080  0.00  0.00     0.000 C
ATOM     23  C4  BDP B   2      18.084   6.120   5.5560  0.00  0.00     0.000 C
ATOM     24  C5  BDP B   2      18.299   5.558   6.9480  0.00  0.00     0.000 C
ATOM     25  O5  BDP B   2      18.315   6.615   7.8880  0.00  0.00     0.000 O
ATOM     26   O  BDP B   2      15.497   8.559   6.6310  0.00  0.00     0.000 O
ATOM     28  HD  BDP B   2      15.632   8.422   7.4760  0.00  0.00     0.000 HD
ATOM     28   O  BDP B   2      16.528   7.488   4.2350  0.00  0.00     0.000 O
ATOM     30  HD  BDP B   2      16.663   7.351   5.0790  0.00  0.00     0.000 HD
BRANCH 24 30
ATOM     30   C  BDP B   2      19.589   4.829   7.0670  0.00  0.00     0.000 C
ATOM     31   O  BDP B   2      19.539   3.625   7.4080  0.00  0.00     0.000 OA
ATOM     32   O  BDP B   2      20.659   5.458   6.8270  0.00  0.00     0.000 OA
ENDBRANCH 24 30
BRANCH 20 33
ATOM     33  O3  NAG B   3      17.228   8.439   8.7820  0.00  0.00     0.000 O
BRANCH 33 36
ATOM     34  C1  NAG B   3      16.028   8.524  12.3470  0.00  0.00     0.000 C
ATOM     35  C2  NAG B   3      15.984   8.711  10.8420  0.00  0.00     0.000 C
ATOM     36  C3  NAG B   3      17.204   8.069  10.1630  0.00  0.00     0.000 C
ATOM     37  C4  NAG B   3      18.479   8.574  10.8330  0.00  0.00     0.000 C
ATOM     38  C5  NAG B   3      18.380   8.417  12.3480  0.00  0.00     0.000 C
ATOM     39  O5  NAG B   3      17.234   9.098  12.8300  0.00  0.00     0.000 O
ATOM     40   O  NAG B   3      19.613   7.837  10.3490  0.00  0.00     0.000 O
ATOM     42  HD  NAG B   3      19.734   7.707  11.1970  0.00  0.00     0.000 HD
ATOM     42   C  NAG B   3      19.559   9.016  13.1090  0.00  0.00     0.000 C
ATOM     43   O  NAG B   3      19.566  10.439  12.9380  0.00  0.00     0.000 O
ATOM     45  HD  NAG B   3      19.687  10.309  13.7850  0.00  0.00     0.000 HD
BRANCH 35 47
ATOM     45   N  NAG B   3      14.909   9.437  10.1780  0.00  0.00     0.000 N
ATOM     47  HD  NAG B   3      15.665   9.858  10.1460  0.00  0.00     0.000 HD
ATOM     47   C  NAG B   3      13.971   8.839   9.4700  0.00  0.00     0.000 C
ATOM     48   C  NAG B   3      12.950   9.736   8.8360  0.00  0.00     0.000 C
ATOM     49   O  NAG B   3      13.949   7.620   9.3150  0.00  0.00     0.000 OA
ENDBRANCH 35 47
BRANCH 34 50
ATOM     50  O4  BDP B   4      14.914   9.260  12.8070  0.00  0.00     0.000 O
BRANCH 50 54
ATOM     51  C1  BDP B   4      12.169   9.484  15.8020  0.00  0.00     0.000 C
ATOM     52  C2  BDP B   4      13.593   9.202  16.2690  0.00  0.00     0.000 C
ATOM     53  C3  BDP B   4      14.536   9.514  15.1480  0.00  0.00     0.000 C
ATOM     54  C4  BDP B   4      14.124   8.717  13.8780  0.00  0.00     0.000 C
ATOM     55  C5  BDP B   4      12.643   8.865  13.5560  0.00  0.00     0.000 C
ATOM     56  O5  BDP B   4      11.854   8.627  14.7190  0.00  0.00     0.000 O
ATOM     57   O  BDP B   4      13.910  10.006  17.3850  0.00  0.00     0.000 O
ATOM     59  HD  BDP B   4      13.855   9.470  18.0630  0.00  0.00     0.000 HD
ATOM     59   O  BDP B   4      15.841   9.055  15.5570  0.00  0.00     0.000 O
ATOM     61  HD  BDP B   4      15.785   8.519  16.2350  0.00  0.00     0.000 HD
BRANCH 55 61
ATOM     61   C  BDP B   4      12.261   7.863  12.4820  0.00  0.00     0.000 C
ATOM     62   O  BDP B   4      12.861   6.756  12.4660  0.00  0.00     0.000 OA
ATOM     63   O  BDP B   4      11.356   8.186  11.6530  0.00  0.00     0.000 OA
ENDBRANCH 55 61
BRANCH 51 64
ATOM     64  O3  NAG B   5      11.296   9.236  16.9210  0.00  0.00     0.000 O
BRANCH 64 67
ATOM     65  C1  NAG B   5       8.495  11.416  17.9210  0.00  0.00     0.000 C
ATOM     66  C2  NAG B   5       9.914  10.875  17.8600  0.00  0.00     0.000 C
ATOM     67  C3  NAG B   5      10.022   9.829  16.7580  0.00  0.00     0.000 C
ATOM     68  C4  NAG B   5       8.936   8.755  16.9090  0.00  0.00     0.000 C
ATOM     69  C5  NAG B   5       7.564   9.395  17.0550  0.00  0.00     0.000 C
ATOM     70  O5  NAG B   5       7.586  10.358  18.1190  0.00  0.00     0.000 O
ATOM     71   O  NAG B   5       8.985   7.902  15.7850  0.00  0.00     0.000 O
ATOM     73  HD  NAG B   5       8.872   7.295  16.3920  0.00  0.00     0.000 HD
ATOM     73   C  NAG B   5       6.430   8.400  17.3390  0.00  0.00     0.000 C
ATOM     74   O  NAG B   5       6.652   7.764  18.6150  0.00  0.00     0.000 O
ATOM     76  HD  NAG B   5       6.539   7.157  19.2220  0.00  0.00     0.000 HD
BRANCH 66 78
ATOM     76   N  NAG B   5      10.778  12.053  17.6520  0.00  0.00     0.000 N
ATOM     78  HD  NAG B   5      10.671  11.439  18.2540  0.00  0.00     0.000 HD
ATOM     78   C  NAG B   5      11.867  12.369  18.3710  0.00  0.00     0.000 C
ATOM     79   C  NAG B   5      12.550  13.626  17.9030  0.00  0.00     0.000 C
ATOM     80   O  NAG B   5      12.280  11.673  19.3650  0.00  0.00     0.000 OA
ENDBRANCH 66 78
BRANCH 65 81
ATOM     81  O4  BDP B   6       8.376  12.367  18.9870  0.00  0.00     0.000 O
BRANCH 81 85
ATOM     82  C1  BDP B   6       5.711  15.404  20.4140  0.00  0.00     0.000 C
ATOM     83  C2  BDP B   6       5.268  13.951  20.5600  0.00  0.00     0.000 C
ATOM     84  C3  BDP B   6       6.424  12.958  20.4100  0.00  0.00     0.000 C
ATOM     85  C4  BDP B   6       7.228  13.206  19.1320  0.00  0.00     0.000 C
ATOM     86  C5  BDP B   6       7.587  14.711  19.0810  0.00  0.00     0.000 C
ATOM     87  O5  BDP B   6       6.398  15.559  19.1810  0.00  0.00     0.000 O
ATOM     88   O  BDP B   6       4.721  13.850  21.8720  0.00  0.00     0.000 O
ATOM     90  HD  BDP B   6       4.716  13.317  22.5540  0.00  0.00     0.000 HD
ATOM     90   O  BDP B   6       5.916  11.622  20.4440  0.00  0.00     0.000 O
ATOM     92  HD  BDP B   6       5.911  11.088  21.1260  0.00  0.00     0.000 HD
BRANCH 86 92
ATOM     92   C  BDP B   6       8.173  15.070  17.7370  0.00  0.00     0.000 C
ATOM     93   O  BDP B   6       9.385  14.792  17.4900  0.00  0.00     0.000 OA
ATOM     94   O  BDP B   6       7.404  15.624  16.8910  0.00  0.00     0.000 OA
ENDBRANCH 86 92
BRANCH 82 95
ATOM     95  O3  NAG B   7       4.534  16.235  20.3730  0.00  0.00     0.000 O
BRANCH 95 98
ATOM     96  C1  NAG B   7       4.134  19.817  20.9640  0.00  0.00     0.000 C
ATOM     97  C2  NAG B   7       3.927  18.330  21.2230  0.00  0.00     0.000 C
ATOM     98  C3  NAG B   7       4.676  17.627  20.0940  0.00  0.00     0.000 C
ATOM     99  C4  NAG B   7       4.095  18.046  18.7450  0.00  0.00     0.000 C
ATOM    100  C5  NAG B   7       4.084  19.569  18.6050  0.00  0.00     0.000 C
ATOM    101  O5  NAG B   7       3.452  20.131  19.7450  0.00  0.00     0.000 O
BRANCH 97 104
ATOM    102   N  NAG B   7       4.493  17.855  22.4930  0.00  0.00     0.000 N
ATOM    104  HD  NAG B   7       5.000  17.464  23.0760  0.00  0.00     0.000 HD
ATOM    104   O  NAG B   7       4.548  16.713  24.4480  0.00  0.00     0.000 OA
ATOM    105   C  NAG B   7       3.918  17.091  23.4410  0.00  0.00     0.000 C
ATOM    106   C  NAG B   7       2.496  16.676  23.2730  0.00  0.00     0.000 C
ENDBRANCH 97 104
ATOM    107   O  NAG B   7       3.669  21.327  17.1090  0.00  0.00     0.000 O
ATOM    109  HD  NAG B   7       4.184  21.046  17.7450  0.00  0.00     0.000 HD
ATOM    109   O  NAG B   7       3.669  21.327  17.1090  0.00  0.00     0.000 O
ATOM    111  HD  NAG B   7       4.184  21.046  17.7450  0.00  0.00     0.000 HD
ENDBRANCH 95 98
ENDBRANCH 82 95
ENDBRANCH 81 85
ENDBRANCH 65 81
ENDBRANCH 64 67
ENDBRANCH 51 64
ENDBRANCH 50 54
ENDBRANCH 34 50
ENDBRANCH 33 36
ENDBRANCH 20 33
ENDBRANCH 19 23
ENDBRANCH 1 19
TORSDOF 19
ENDMDL
MODEL 11
REMARK VINA RESULT:      -6.3      7.526     10.219
ROOT
ATOM      1  C1  NAG B   1       6.293  24.627   3.2010  0.00  0.00     0.000 C
ATOM      2  C2  NAG B   1       6.481  25.755   2.1900  0.00  0.00     0.000 C
ATOM      3  C3  NAG B   1       5.171  26.438   1.8560  0.00  0.00     0.000 C
ATOM      4  C4  NAG B   1       4.258  25.334   1.3310  0.00  0.00     0.000 C
ATOM      5  C5  NAG B   1       4.013  24.311   2.4480  0.00  0.00     0.000 C
ATOM      6  O5  NAG B   1       5.249  23.697   2.8720  0.00  0.00     0.000 O
ATOM      7   O  NAG B   1       5.336  27.482   0.8700  0.00  0.00     0.000 O
ATOM      9  HD  NAG B   1       6.073  27.534   1.3210  0.00  0.00     0.000 HD
ATOM      9   O  NAG B   1       3.023  25.884   0.9040  0.00  0.00     0.000 O
ATOM     11  HD  NAG B   1       3.760  25.935   1.3560  0.00  0.00     0.000 HD
ATOM     11   C  NAG B   1       2.989  23.267   1.9850  0.00  0.00     0.000 C
ATOM     12   O  NAG B   1       3.201  22.013   2.6320  0.00  0.00     0.000 O
ATOM     14  HD  NAG B   1       3.938  22.064   3.0840  0.00  0.00     0.000 HD
ENDROOT
BRANCH 2 16
ATOM     14   N  NAG B   1       7.753  26.098   1.5290  0.00  0.00     0.000 N
ATOM     16  HD  NAG B   1       8.147  26.720   1.0740  0.00  0.00     0.000 HD
ATOM     16   C  NAG B   1       8.676  26.902   2.0830  0.00  0.00     0.000 C
ATOM     17   C  NAG B   1       8.422  27.521   3.4320  0.00  0.00     0.000 C
ATOM     18   O  NAG B   1       9.748  27.125   1.5210  0.00  0.00     0.000 OA
ENDBRANCH 2 16
BRANCH 1 19
ATOM     19  O4  BDP B   2       7.510  23.899   3.1040  0.00  0.00     0.000 O
BRANCH 19 23
ATOM     20  C1  BDP B   2       9.706  22.458   6.2730  0.00  0.00     0.000 C
ATOM     21  C2  BDP B   2       8.422  23.184   6.6190  0.00  0.00     0.000 C
ATOM     22  C3  BDP B   2       7.512  23.290   5.4160  0.00  0.00     0.000 C
ATOM     23  C4  BDP B   2       8.298  23.920   4.2700  0.00  0.00     0.000 C
ATOM     24  C5  BDP B   2       9.550  23.105   4.0090  0.00  0.00     0.000 C
ATOM     25  O5  BDP B   2      10.353  23.083   5.1740  0.00  0.00     0.000 O
ATOM     26   O  BDP B   2       7.750  22.518   7.6660  0.00  0.00     0.000 O
ATOM     28  HD  BDP B   2       8.516  22.115   7.6900  0.00  0.00     0.000 HD
ATOM     28   O  BDP B   2       6.354  24.064   5.7650  0.00  0.00     0.000 O
ATOM     30  HD  BDP B   2       7.120  23.662   5.7890  0.00  0.00     0.000 HD
BRANCH 24 30
ATOM     30   C  BDP B   2      10.371  23.673   2.9070  0.00  0.00     0.000 C
ATOM     31   O  BDP B   2      10.262  23.142   1.7770  0.00  0.00     0.000 OA
ATOM     32   O  BDP B   2      11.134  24.646   3.1660  0.00  0.00     0.000 OA
ENDBRANCH 24 30
BRANCH 20 33
ATOM     33  O3  NAG B   3      10.502  22.608   7.4240  0.00  0.00     0.000 O
BRANCH 33 36
ATOM     34  C1  NAG B   3      12.780  19.788   8.4270  0.00  0.00     0.000 C
ATOM     35  C2  NAG B   3      11.489  20.574   8.2870  0.00  0.00     0.000 C
ATOM     36  C3  NAG B   3      11.673  21.790   7.3670  0.00  0.00     0.000 C
ATOM     37  C4  NAG B   3      12.870  22.608   7.8440  0.00  0.00     0.000 C
ATOM     38  C5  NAG B   3      14.087  21.706   8.0320  0.00  0.00     0.000 C
ATOM     39  O5  NAG B   3      13.777  20.660   8.9380  0.00  0.00     0.000 O
ATOM     40   O  NAG B   3      13.179  23.632   6.8850  0.00  0.00     0.000 O
ATOM     42  HD  NAG B   3      13.961  23.264   6.9280  0.00  0.00     0.000 HD
ATOM     42   C  NAG B   3      15.297  22.418   8.6320  0.00  0.00     0.000 C
ATOM     43   O  NAG B   3      14.996  22.828   9.9710  0.00  0.00     0.000 O
ATOM     45  HD  NAG B   3      15.778  22.459  10.0140  0.00  0.00     0.000 HD
BRANCH 35 47
ATOM     45   N  NAG B   3      10.420  19.714   7.7950  0.00  0.00     0.000 N
ATOM     47  HD  NAG B   3      11.200  19.343   7.7350  0.00  0.00     0.000 HD
ATOM     47   C  NAG B   3       9.232  19.651   8.3630  0.00  0.00     0.000 C
ATOM     48   C  NAG B   3       8.253  18.700   7.7430  0.00  0.00     0.000 C
ATOM     49   O  NAG B   3       8.951  20.313   9.3600  0.00  0.00     0.000 OA
ENDBRANCH 35 47
BRANCH 34 50
ATOM     50  O4  BDP B   4      12.463  18.792   9.3770  0.00  0.00     0.000 O
BRANCH 50 54
ATOM     51  C1  BDP B   4      13.212  14.960  10.5190  0.00  0.00     0.000 C
ATOM     52  C2  BDP B   4      14.271  15.967  10.9540  0.00  0.00     0.000 C
ATOM     53  C3  BDP B   4      13.707  17.347  10.8100  0.00  0.00     0.000 C
ATOM     54  C4  BDP B   4      13.201  17.559   9.3540  0.00  0.00     0.000 C
ATOM     55  C5  BDP B   4      12.301  16.424   8.8840  0.00  0.00     0.000 C
ATOM     56  O5  BDP B   4      12.907  15.163   9.1520  0.00  0.00     0.000 O
ATOM     57   O  BDP B   4      14.632  15.748  12.3010  0.00  0.00     0.000 O
ATOM     59  HD  BDP B   4      15.398  15.347  12.2590  0.00  0.00     0.000 HD
ATOM     59   O  BDP B   4      14.791  18.270  11.0420  0.00  0.00     0.000 O
ATOM     61  HD  BDP B   4      15.557  17.869  11.0000  0.00  0.00     0.000 HD
BRANCH 55 61
ATOM     61   C  BDP B   4      12.066  16.558   7.3900  0.00  0.00     0.000 C
ATOM     62   O  BDP B   4      10.890  16.767   6.9930  0.00  0.00     0.000 OA
ATOM     63   O  BDP B   4      13.064  16.456   6.6130  0.00  0.00     0.000 OA
ENDBRANCH 55 61
BRANCH 51 64
ATOM     64  O3  NAG B   5      13.761  13.645  10.7310  0.00  0.00     0.000 O
BRANCH 64 67
ATOM     65  C1  NAG B   5      12.088  10.713  12.2120  0.00  0.00     0.000 C
ATOM     66  C2  NAG B   5      12.958  11.956  12.1370  0.00  0.00     0.000 C
ATOM     67  C3  NAG B   5      12.765  12.643  10.7920  0.00  0.00     0.000 C
ATOM     68  C4  NAG B   5      12.964  11.654   9.6340  0.00  0.00     0.000 C
ATOM     69  C5  NAG B   5      12.124  10.405   9.8450  0.00  0.00     0.000 C
ATOM     70  O5  NAG B   5      12.390   9.849  11.1410  0.00  0.00     0.000 O
ATOM     71   O  NAG B   5      12.627  12.300   8.4260  0.00  0.00     0.000 O
ATOM     73  HD  NAG B   5      13.338  11.891   8.1490  0.00  0.00     0.000 HD
ATOM     73   C  NAG B   5      12.355   9.304   8.8000  0.00  0.00     0.000 C
ATOM     74   O  NAG B   5      13.713   8.826   8.8940  0.00  0.00     0.000 O
ATOM     76  HD  NAG B   5      14.424   8.416   8.6170  0.00  0.00     0.000 HD
BRANCH 66 78
ATOM     76   N  NAG B   5      12.567  12.682  13.3610  0.00  0.00     0.000 N
ATOM     78  HD  NAG B   5      13.299  12.407  12.9900  0.00  0.00     0.000 HD
ATOM     78   C  NAG B   5      13.398  13.325  14.1960  0.00  0.00     0.000 C
ATOM     79   C  NAG B   5      12.694  13.988  15.3490  0.00  0.00     0.000 C
ATOM     80   O  NAG B   5      14.669  13.362  14.0330  0.00  0.00     0.000 OA
ENDBRANCH 66 78
BRANCH 65 81
ATOM     81  O4  BDP B   6      12.300  10.037  13.4580  0.00  0.00     0.000 O
BRANCH 81 85
ATOM     82  C1  BDP B   6      10.493   7.011  15.8960  0.00  0.00     0.000 C
ATOM     83  C2  BDP B   6      11.327   6.551  14.7030  0.00  0.00     0.000 C
ATOM     84  C3  BDP B   6      12.242   7.650  14.1580  0.00  0.00     0.000 C
ATOM     85  C4  BDP B   6      11.478   8.947  13.8820  0.00  0.00     0.000 C
ATOM     86  C5  BDP B   6      10.649   9.288  15.1430  0.00  0.00     0.000 C
ATOM     87  O5  BDP B   6       9.775   8.182  15.5380  0.00  0.00     0.000 O
ATOM     88   O  BDP B   6      12.117   5.468  15.1860  0.00  0.00     0.000 O
ATOM     90  HD  BDP B   6      12.923   5.155  15.1340  0.00  0.00     0.000 HD
ATOM     90   O  BDP B   6      12.902   7.184  12.9780  0.00  0.00     0.000 O
ATOM     92  HD  BDP B   6      13.708   6.871  12.9260  0.00  0.00     0.000 HD
BRANCH 86 92
ATOM     92   C  BDP B   6       9.692  10.420  14.8580  0.00  0.00     0.000 C
ATOM     93   O  BDP B   6      10.033  11.610  15.1310  0.00  0.00     0.000 OA
ATOM     94   O  BDP B   6       8.576  10.124  14.3270  0.00  0.00     0.000 OA
ENDBRANCH 86 92
BRANCH 82 95
ATOM     95  O3  NAG B   7       9.534   5.980  16.2030  0.00  0.00     0.000 O
BRANCH 95 98
ATOM     96  C1  NAG B   7       8.776   3.777  19.0160  0.00  0.00     0.000 C
ATOM     97  C2  NAG B   7       8.974   4.150  17.5530  0.00  0.00     0.000 C
ATOM     98  C3  NAG B   7       9.287   5.645  17.5680  0.00  0.00     0.000 C
ATOM     99  C4  NAG B   7       8.123   6.413  18.1890  0.00  0.00     0.000 C
ATOM    100  C5  NAG B   7       7.776   5.855  19.5700  0.00  0.00     0.000 C
ATOM    101  O5  NAG B   7       7.597   4.451  19.4670  0.00  0.00     0.000 O
BRANCH 97 104
ATOM    102   N  NAG B   7      10.075   3.714  16.6830  0.00  0.00     0.000 N
ATOM    104  HD  NAG B   7      10.650   3.672  16.0370  0.00  0.00     0.000 HD
ATOM    104   O  NAG B   7      11.189   2.344  15.2650  0.00  0.00     0.000 OA
ATOM    105   C  NAG B   7      10.219   2.551  16.0200  0.00  0.00     0.000 C
ATOM    106   C  NAG B   7       9.182   1.492  16.1830  0.00  0.00     0.000 C
ENDBRANCH 97 104
ATOM    107   O  NAG B   7       6.451   6.209  21.4740  0.00  0.00     0.000 O
ATOM    109  HD  NAG B   7       7.230   5.958  21.1890  0.00  0.00     0.000 HD
ATOM    109   O  NAG B   7       6.451   6.209  21.4740  0.00  0.00     0.000 O
ATOM    111  HD  NAG B   7       7.230   5.958  21.1890  0.00  0.00     0.000 HD
ENDBRANCH 95 98
ENDBRANCH 82 95
ENDBRANCH 81 85
ENDBRANCH 65 81
ENDBRANCH 64 67
ENDBRANCH 51 64
ENDBRANCH 50 54
ENDBRANCH 34 50
ENDBRANCH 33 36
ENDBRANCH 20 33
ENDBRANCH 19 23
ENDBRANCH 1 19
TORSDOF 19
ENDMDL
MODEL 12
REMARK VINA RESULT:      -6.2      1.961      2.995
ROOT
ATOM      1  C1  NAG B   1       7.127  21.975   7.4480  0.00  0.00     0.000 C
ATOM      2  C2  NAG B   1       6.881  23.220   6.5990  0.00  0.00     0.000 C
ATOM      3  C3  NAG B   1       5.437  23.674   6.6700  0.00  0.00     0.000 C
ATOM      4  C4  NAG B   1       4.610  22.480   6.2030  0.00  0.00     0.000 C
ATOM      5  C5  NAG B   1       4.812  21.316   7.1820  0.00  0.00     0.000 C
ATOM      6  O5  NAG B   1       6.195  20.905   7.2250  0.00  0.00     0.000 O
ATOM      7   O  NAG B   1       5.188  24.830   5.8380  0.00  0.00     0.000 O
ATOM      9  HD  NAG B   1       5.995  24.971   6.1170  0.00  0.00     0.000 HD
ATOM      9   O  NAG B   1       3.237  22.828   6.1480  0.00  0.00     0.000 O
ATOM     11  HD  NAG B   1       4.045  22.970   6.4270  0.00  0.00     0.000 HD
ATOM     11   C  NAG B   1       3.885  20.152   6.8090  0.00  0.00     0.000 C
ATOM     12   O  NAG B   1       4.445  18.899   7.2000  0.00  0.00     0.000 O
ATOM     14  HD  NAG B   1       5.252  19.040   7.4790  0.00  0.00     0.000 HD
ENDROOT
BRANCH 2 16
ATOM     14   N  NAG B   1       7.879  24.218   7.0210  0.00  0.00     0.000 N
ATOM     16  HD  NAG B   1       8.713  24.311   7.2370  0.00  0.00     0.000 HD
ATOM     16   C  NAG B   1       8.772  24.766   6.1780  0.00  0.00     0.000 C
ATOM     17   C  NAG B   1       8.799  24.342   4.7330  0.00  0.00     0.000 C
ATOM     18   O  NAG B   1       9.558  25.634   6.5560  0.00  0.00     0.000 OA
ENDBRANCH 2 16
BRANCH 1 19
ATOM     19  O4  BDP B   2       8.383  21.505   6.9760  0.00  0.00     0.000 O
BRANCH 19 23
ATOM     20  C1  BDP B   2      11.289  18.959   8.3950  0.00  0.00     0.000 C
ATOM     21  C2  BDP B   2      10.053  18.309   7.8080  0.00  0.00     0.000 C
ATOM     22  C3  BDP B   2       9.271  19.286   6.9590  0.00  0.00     0.000 C
ATOM     23  C4  BDP B   2       8.988  20.532   7.7930  0.00  0.00     0.000 C
ATOM     24  C5  BDP B   2      10.294  21.098   8.3150  0.00  0.00     0.000 C
ATOM     25  O5  BDP B   2      10.942  20.131   9.1190  0.00  0.00     0.000 O
ATOM     26   O  BDP B   2      10.412  17.186   7.0320  0.00  0.00     0.000 O
ATOM     28  HD  BDP B   2      11.163  17.348   7.4320  0.00  0.00     0.000 HD
ATOM     28   O  BDP B   2       8.064  18.656   6.5030  0.00  0.00     0.000 O
ATOM     30  HD  BDP B   2       8.815  18.817   6.9020  0.00  0.00     0.000 HD
BRANCH 24 30
ATOM     30   C  BDP B   2      10.088  22.311   9.1480  0.00  0.00     0.000 C
ATOM     31   O  BDP B   2       9.471  22.167  10.2290  0.00  0.00     0.000 OA
ATOM     32   O  BDP B   2      10.533  23.415   8.7240  0.00  0.00     0.000 OA
ENDBRANCH 24 30
BRANCH 20 33
ATOM     33  O3  NAG B   3      11.789  17.994   9.2880  0.00  0.00     0.000 O
BRANCH 33 36
ATOM     34  C1  NAG B   3      15.254  16.559   9.5850  0.00  0.00     0.000 C
ATOM     35  C2  NAG B   3      13.764  16.593   9.3020  0.00  0.00     0.000 C
ATOM     36  C3  NAG B   3      13.217  18.028   9.3580  0.00  0.00     0.000 C
ATOM     37  C4  NAG B   3      13.632  18.676  10.6760  0.00  0.00     0.000 C
ATOM     38  C5  NAG B   3      15.133  18.509  10.8990  0.00  0.00     0.000 C
ATOM     39  O5  NAG B   3      15.476  17.134  10.8650  0.00  0.00     0.000 O
ATOM     40   O  NAG B   3      13.305  20.074  10.6600  0.00  0.00     0.000 O
ATOM     42  HD  NAG B   3      14.145  20.147  10.8580  0.00  0.00     0.000 HD
ATOM     42   C  NAG B   3      15.616  19.014  12.2560  0.00  0.00     0.000 C
ATOM     43   O  NAG B   3      15.049  18.208  13.2960  0.00  0.00     0.000 O
ATOM     45  HD  NAG B   3      15.889  18.281  13.4940  0.00  0.00     0.000 HD
BRANCH 35 47
ATOM     45   N  NAG B   3      13.575  15.858   8.0580  0.00  0.00     0.000 N
ATOM     47  HD  NAG B   3      14.406  15.895   8.3010  0.00  0.00     0.000 HD
ATOM     47   C  NAG B   3      12.544  15.065   7.8420  0.00  0.00     0.000 C
ATOM     48   C  NAG B   3      12.514  14.367   6.5150  0.00  0.00     0.000 C
ATOM     49   O  NAG B   3      11.672  14.886   8.6900  0.00  0.00     0.000 OA
ENDBRANCH 35 47
BRANCH 34 50
ATOM     50  O4  BDP B   4      15.558  15.180   9.6060  0.00  0.00     0.000 O
BRANCH 50 54
ATOM     51  C1  BDP B   4      18.411  12.455   8.6120  0.00  0.00     0.000 C
ATOM     52  C2  BDP B   4      18.537  13.015  10.0240  0.00  0.00     0.000 C
ATOM     53  C3  BDP B   4      17.252  13.694  10.3870  0.00  0.00     0.000 C
ATOM     54  C4  BDP B   4      16.904  14.767   9.3160  0.00  0.00     0.000 C
ATOM     55  C5  BDP B   4      16.984  14.217   7.8980  0.00  0.00     0.000 C
ATOM     56  O5  BDP B   4      18.213  13.522   7.7020  0.00  0.00     0.000 O
ATOM     57   O  BDP B   4      18.792  11.974  10.9430  0.00  0.00     0.000 O
ATOM     59  HD  BDP B   4      19.638  12.039  11.1180  0.00  0.00     0.000 HD
ATOM     59   O  BDP B   4      17.475  14.373  11.6400  0.00  0.00     0.000 O
ATOM     61  HD  BDP B   4      18.321  14.438  11.8150  0.00  0.00     0.000 HD
BRANCH 55 61
ATOM     61   C  BDP B   4      16.898  15.366   6.9100  0.00  0.00     0.000 C
ATOM     62   O  BDP B   4      15.891  15.423   6.1560  0.00  0.00     0.000 OA
ATOM     63   O  BDP B   4      17.842  16.214   6.8900  0.00  0.00     0.000 OA
ENDBRANCH 55 61
BRANCH 51 64
ATOM     64  O3  NAG B   5      19.636  11.756   8.3200  0.00  0.00     0.000 O
BRANCH 64 67
ATOM     65  C1  NAG B   5      19.651   8.824   6.0830  0.00  0.00     0.000 C
ATOM     66  C2  NAG B   5      19.462   9.629   7.3580  0.00  0.00     0.000 C
ATOM     67  C3  NAG B   5      19.609  11.115   7.0590  0.00  0.00     0.000 C
ATOM     68  C4  NAG B   5      20.920  11.401   6.3130  0.00  0.00     0.000 C
ATOM     69  C5  NAG B   5      21.063  10.485   5.1080  0.00  0.00     0.000 C
ATOM     70  O5  NAG B   5      20.906   9.117   5.5120  0.00  0.00     0.000 O
ATOM     71   O  NAG B   5      20.935  12.759   5.9280  0.00  0.00     0.000 O
ATOM     73  HD  NAG B   5      21.758  12.699   6.1900  0.00  0.00     0.000 HD
ATOM     73   C  NAG B   5      22.405  10.611   4.3730  0.00  0.00     0.000 C
ATOM     74   O  NAG B   5      23.476  10.199   5.2470  0.00  0.00     0.000 O
ATOM     76  HD  NAG B   5      24.299  10.139   5.5090  0.00  0.00     0.000 HD
BRANCH 66 78
ATOM     76   N  NAG B   5      18.173   9.100   7.8420  0.00  0.00     0.000 N
ATOM     78  HD  NAG B   5      18.965   9.241   8.1640  0.00  0.00     0.000 HD
ATOM     78   C  NAG B   5      17.851   8.855   9.1220  0.00  0.00     0.000 C
ATOM     79   C  NAG B   5      16.450   8.335   9.2990  0.00  0.00     0.000 C
ATOM     80   O  NAG B   5      18.662   9.038  10.0990  0.00  0.00     0.000 OA
ENDBRANCH 66 78
BRANCH 65 81
ATOM     81  O4  BDP B   6      19.560   7.422   6.3680  0.00  0.00     0.000 O
BRANCH 81 85
ATOM     82  C1  BDP B   6      18.281   3.833   4.4060  0.00  0.00     0.000 C
ATOM     83  C2  BDP B   6      19.767   4.177   4.3490  0.00  0.00     0.000 C
ATOM     84  C3  BDP B   6      20.178   5.218   5.3940  0.00  0.00     0.000 C
ATOM     85  C4  BDP B   6      19.281   6.457   5.3510  0.00  0.00     0.000 C
ATOM     86  C5  BDP B   6      17.809   5.980   5.3790  0.00  0.00     0.000 C
ATOM     87  O5  BDP B   6      17.523   5.030   4.3030  0.00  0.00     0.000 O
ATOM     88   O  BDP B   6      20.451   2.953   4.6010  0.00  0.00     0.000 O
ATOM     90  HD  BDP B   6      21.129   2.646   5.0440  0.00  0.00     0.000 HD
ATOM     90   O  BDP B   6      21.550   5.572   5.2060  0.00  0.00     0.000 O
ATOM     92  HD  BDP B   6      22.228   5.265   5.6480  0.00  0.00     0.000 HD
BRANCH 86 92
ATOM     92   C  BDP B   6      16.874   7.131   5.1000  0.00  0.00     0.000 C
ATOM     93   O  BDP B   6      16.858   7.658   3.9470  0.00  0.00     0.000 OA
ATOM     94   O  BDP B   6      16.115   7.512   6.0450  0.00  0.00     0.000 OA
ENDBRANCH 86 92
BRANCH 82 95
ATOM     95  O3  NAG B   7      17.963   3.008   3.2680  0.00  0.00     0.000 O
BRANCH 95 98
ATOM     96  C1  NAG B   7      15.926   0.053   2.5940  0.00  0.00     0.000 C
ATOM     97  C2  NAG B   7      17.152   0.950   2.4990  0.00  0.00     0.000 C
ATOM     98  C3  NAG B   7      16.790   2.196   3.3050  0.00  0.00     0.000 C
ATOM     99  C4  NAG B   7      15.559   2.866   2.7010  0.00  0.00     0.000 C
ATOM    100  C5  NAG B   7      14.403   1.872   2.5750  0.00  0.00     0.000 C
ATOM    101  O5  NAG B   7      14.864   0.714   1.8970  0.00  0.00     0.000 O
BRANCH 97 104
ATOM    102   N  NAG B   7      18.394   0.480   3.1280  0.00  0.00     0.000 N
ATOM    104  HD  NAG B   7      19.103   0.435   3.6230  0.00  0.00     0.000 HD
ATOM    104   O  NAG B   7      20.562  -0.167   3.2230  0.00  0.00     0.000 OA
ATOM    105   C  NAG B   7      19.567   0.163   2.5480  0.00  0.00     0.000 C
ATOM    106   C  NAG B   7      19.681   0.223   1.0630  0.00  0.00     0.000 C
ENDBRANCH 97 104
ATOM    107   O  NAG B   7      12.128   1.675   2.0360  0.00  0.00     0.000 O
ATOM    109  HD  NAG B   7      12.756   1.405   2.5680  0.00  0.00     0.000 HD
ATOM    109   O  NAG B   7      12.128   1.675   2.0360  0.00  0.00     0.000 O
ATOM    111  HD  NAG B   7      12.756   1.405   2.5680  0.00  0.00     0.000 HD
ENDBRANCH 95 98
ENDBRANCH 82 95
ENDBRANCH 81 85
ENDBRANCH 65 81
ENDBRANCH 64 67
ENDBRANCH 51 64
ENDBRANCH 50 54
ENDBRANCH 34 50
ENDBRANCH 33 36
ENDBRANCH 20 33
ENDBRANCH 19 23
ENDBRANCH 1 19
TORSDOF 19
ENDMDL
MODEL 13
REMARK VINA RESULT:      -6.2      8.555     19.027
ROOT
ATOM      1  C1  NAG B   1      17.919   3.954   3.9670  0.00  0.00     0.000 C
ATOM      2  C2  NAG B   1      17.978   3.599   2.4840  0.00  0.00     0.000 C
ATOM      3  C3  NAG B   1      16.968   2.531   2.1190  0.00  0.00     0.000 C
ATOM      4  C4  NAG B   1      17.291   1.340   3.0150  0.00  0.00     0.000 C
ATOM      5  C5  NAG B   1      17.080   1.741   4.4800  0.00  0.00     0.000 C
ATOM      6  O5  NAG B   1      17.957   2.826   4.8540  0.00  0.00     0.000 O
ATOM      7   O  NAG B   1      17.045   2.162   0.7230  0.00  0.00     0.000 O
ATOM      9  HD  NAG B   1      17.228   3.008   0.7020  0.00  0.00     0.000 HD
ATOM      9   O  NAG B   1      16.453   0.244   2.6910  0.00  0.00     0.000 O
ATOM     11  HD  NAG B   1      16.636   1.090   2.6710  0.00  0.00     0.000 HD
ATOM     11   C  NAG B   1      17.268   0.520   5.3890  0.00  0.00     0.000 C
ATOM     12   O  NAG B   1      17.730   0.904   6.6830  0.00  0.00     0.000 O
ATOM     14  HD  NAG B   1      17.913   1.750   6.6630  0.00  0.00     0.000 HD
ENDROOT
BRANCH 2 16
ATOM     14   N  NAG B   1      17.832   4.844   1.7090  0.00  0.00     0.000 N
ATOM     16  HD  NAG B   1      18.057   5.681   1.6990  0.00  0.00     0.000 HD
ATOM     16   C  NAG B   1      18.784   5.311   0.8820  0.00  0.00     0.000 C
ATOM     17   C  NAG B   1      20.085   4.566   0.7370  0.00  0.00     0.000 C
ATOM     18   O  NAG B   1      18.606   6.328   0.2130  0.00  0.00     0.000 OA
ENDBRANCH 2 16
BRANCH 1 19
ATOM     19  O4  BDP B   2      19.134   4.660   4.1790  0.00  0.00     0.000 O
BRANCH 19 23
ATOM     20  C1  BDP B   2      17.848   6.517   7.6210  0.00  0.00     0.000 C
ATOM     21  C2  BDP B   2      17.663   7.289   6.3300  0.00  0.00     0.000 C
ATOM     22  C3  BDP B   2      17.768   6.378   5.1280  0.00  0.00     0.000 C
ATOM     23  C4  BDP B   2      19.085   5.611   5.2160  0.00  0.00     0.000 C
ATOM     24  C5  BDP B   2      19.150   4.873   6.5380  0.00  0.00     0.000 C
ATOM     25  O5  BDP B   2      19.075   5.801   7.6040  0.00  0.00     0.000 O
ATOM     26   O  BDP B   2      16.412   7.941   6.3250  0.00  0.00     0.000 O
ATOM     28  HD  BDP B   2      16.458   7.696   7.1540  0.00  0.00     0.000 HD
ATOM     28   O  BDP B   2      17.682   7.165   3.9290  0.00  0.00     0.000 O
ATOM     30  HD  BDP B   2      17.727   6.919   4.7580  0.00  0.00     0.000 HD
BRANCH 24 30
ATOM     30   C  BDP B   2      20.417   4.111   6.6950  0.00  0.00     0.000 C
ATOM     31   O  BDP B   2      20.325   2.893   6.9720  0.00  0.00     0.000 OA
ATOM     32   O  BDP B   2      21.511   4.728   6.5490  0.00  0.00     0.000 OA
ENDBRANCH 24 30
BRANCH 20 33
ATOM     33  O3  NAG B   3      17.909   7.516   8.6090  0.00  0.00     0.000 O
BRANCH 33 36
ATOM     34  C1  NAG B   3      16.407   7.389  12.0550  0.00  0.00     0.000 C
ATOM     35  C2  NAG B   3      16.548   7.774  10.5950  0.00  0.00     0.000 C
ATOM     36  C3  NAG B   3      17.677   6.984   9.9150  0.00  0.00     0.000 C
ATOM     37  C4  NAG B   3      18.956   7.119  10.7380  0.00  0.00     0.000 C
ATOM     38  C5  NAG B   3      18.679   6.791  12.2030  0.00  0.00     0.000 C
ATOM     39  O5  NAG B   3      17.649   7.629  12.7000  0.00  0.00     0.000 O
ATOM     40   O  NAG B   3      19.962   6.229  10.2320  0.00  0.00     0.000 O
ATOM     42  HD  NAG B   3      19.971   5.968  11.0570  0.00  0.00     0.000 HD
ATOM     42   C  NAG B   3      19.873   7.025  13.1250  0.00  0.00     0.000 C
ATOM     43   O  NAG B   3      20.179   8.425  13.1650  0.00  0.00     0.000 O
ATOM     45  HD  NAG B   3      20.188   8.164  13.9910  0.00  0.00     0.000 HD
BRANCH 35 47
ATOM     45   N  NAG B   3      15.730   8.791   9.9460  0.00  0.00     0.000 N
ATOM     47  HD  NAG B   3      16.563   9.022  10.0070  0.00  0.00     0.000 HD
ATOM     47   C  NAG B   3      14.745   8.500   9.1200  0.00  0.00     0.000 C
ATOM     48   C  NAG B   3      14.016   9.667   8.5230  0.00  0.00     0.000 C
ATOM     49   O  NAG B   3      14.458   7.340   8.8330  0.00  0.00     0.000 OA
ENDBRANCH 35 47
BRANCH 34 50
ATOM     50  O4  BDP B   4      15.421   8.277  12.5400  0.00  0.00     0.000 O
BRANCH 50 54
ATOM     51  C1  BDP B   4      12.500   8.710  15.3380  0.00  0.00     0.000 C
ATOM     52  C2  BDP B   4      13.810   8.145  15.8750  0.00  0.00     0.000 C
ATOM     53  C3  BDP B   4      14.886   8.385  14.8620  0.00  0.00     0.000 C
ATOM     54  C4  BDP B   4      14.460   7.787  13.4900  0.00  0.00     0.000 C
ATOM     55  C5  BDP B   4      13.058   8.218  13.0810  0.00  0.00     0.000 C
ATOM     56  O5  BDP B   4      12.143   8.020  14.1550  0.00  0.00     0.000 O
ATOM     57   O  BDP B   4      14.158   8.780  17.0870  0.00  0.00     0.000 O
ATOM     59  HD  BDP B   4      13.955   8.204  17.7010  0.00  0.00     0.000 HD
ATOM     59   O  BDP B   4      16.056   7.672  15.3140  0.00  0.00     0.000 O
ATOM     61  HD  BDP B   4      15.853   7.096  15.9290  0.00  0.00     0.000 HD
BRANCH 55 61
ATOM     61   C  BDP B   4      12.611   7.396  11.8850  0.00  0.00     0.000 C
ATOM     62   O  BDP B   4      13.018   6.208  11.8000  0.00  0.00     0.000 OA
ATOM     63   O  BDP B   4      11.848   7.943  11.0320  0.00  0.00     0.000 OA
ENDBRANCH 55 61
BRANCH 51 64
ATOM     64  O3  NAG B   5      11.502   8.520  16.3610  0.00  0.00     0.000 O
BRANCH 64 67
ATOM     65  C1  NAG B   5       9.118  11.196  17.2270  0.00  0.00     0.000 C
ATOM     66  C2  NAG B   5      10.420  10.414  17.2100  0.00  0.00     0.000 C
ATOM     67  C3  NAG B   5      10.353   9.318  16.1540  0.00  0.00     0.000 C
ATOM     68  C4  NAG B   5       9.095   8.458  16.3330  0.00  0.00     0.000 C
ATOM     69  C5  NAG B   5       7.855   9.332  16.4320  0.00  0.00     0.000 C
ATOM     70  O5  NAG B   5       8.036  10.322  17.4550  0.00  0.00     0.000 O
ATOM     71   O  NAG B   5       9.003   7.561  15.2460  0.00  0.00     0.000 O
ATOM     73  HD  NAG B   5       8.781   7.010  15.8760  0.00  0.00     0.000 HD
ATOM     73   C  NAG B   5       6.562   8.564  16.7390  0.00  0.00     0.000 C
ATOM     74   O  NAG B   5       6.660   7.956  18.0440  0.00  0.00     0.000 O
ATOM     76  HD  NAG B   5       6.438   7.404  18.6740  0.00  0.00     0.000 HD
BRANCH 66 78
ATOM     76   N  NAG B   5      11.509  11.371  16.9310  0.00  0.00     0.000 N
ATOM     78  HD  NAG B   5      11.253  10.871  17.5910  0.00  0.00     0.000 HD
ATOM     78   C  NAG B   5      12.600  11.566  17.6880  0.00  0.00     0.000 C
ATOM     79   C  NAG B   5      13.541  12.599  17.1290  0.00  0.00     0.000 C
ATOM     80   O  NAG B   5      12.816  10.940  18.7860  0.00  0.00     0.000 OA
ENDBRANCH 66 78
BRANCH 65 81
ATOM     81  O4  BDP B   6       9.159  12.199  18.2500  0.00  0.00     0.000 O
BRANCH 81 85
ATOM     82  C1  BDP B   6       7.587  16.089  19.1220  0.00  0.00     0.000 C
ATOM     83  C2  BDP B   6       6.587  14.968  18.8520  0.00  0.00     0.000 C
ATOM     84  C3  BDP B   6       7.211  13.575  18.9590  0.00  0.00     0.000 C
ATOM     85  C4  BDP B   6       8.482  13.451  18.1150  0.00  0.00     0.000 C
ATOM     86  C5  BDP B   6       9.395  14.654  18.4510  0.00  0.00     0.000 C
ATOM     87  O5  BDP B   6       8.705  15.932  18.2610  0.00  0.00     0.000 O
ATOM     88   O  BDP B   6       5.574  15.115  19.8440  0.00  0.00     0.000 O
ATOM     90  HD  BDP B   6       5.090  14.636  20.3790  0.00  0.00     0.000 HD
ATOM     90   O  BDP B   6       6.248  12.587  18.5830  0.00  0.00     0.000 O
ATOM     92  HD  BDP B   6       5.764  12.108  19.1170  0.00  0.00     0.000 HD
BRANCH 86 92
ATOM     92   C  BDP B   6      10.554  14.725  17.4870  0.00  0.00     0.000 C
ATOM     93   O  BDP B   6      10.439  14.212  16.3330  0.00  0.00     0.000 OA
ATOM     94   O  BDP B   6      11.604  15.326  17.8750  0.00  0.00     0.000 OA
ENDBRANCH 86 92
BRANCH 82 95
ATOM     95  O3  NAG B   7       6.957  17.346  18.8040  0.00  0.00     0.000 O
BRANCH 95 98
ATOM     96  C1  NAG B   7       6.485  20.567  20.4600  0.00  0.00     0.000 C
ATOM     97  C2  NAG B   7       6.076  19.344  19.6490  0.00  0.00     0.000 C
ATOM     98  C3  NAG B   7       7.355  18.521  19.5090  0.00  0.00     0.000 C
ATOM     99  C4  NAG B   7       8.422  19.339  18.7870  0.00  0.00     0.000 C
ATOM    100  C5  NAG B   7       8.644  20.683  19.4820  0.00  0.00     0.000 C
ATOM    101  O5  NAG B   7       7.390  21.326  19.6500  0.00  0.00     0.000 O
BRANCH 97 104
ATOM    102   N  NAG B   7       5.137  18.385  20.2460  0.00  0.00     0.000 N
ATOM    104  HD  NAG B   7       4.773  17.651  20.5280  0.00  0.00     0.000 HD
ATOM    104   O  NAG B   7       3.204  17.224  20.4590  0.00  0.00     0.000 OA
ATOM    105   C  NAG B   7       3.866  18.115  19.8920  0.00  0.00     0.000 C
ATOM    106   C  NAG B   7       3.241  18.894  18.7850  0.00  0.00     0.000 C
ENDBRANCH 97 104
ATOM    107   O  NAG B   7       9.993  22.602  19.5030  0.00  0.00     0.000 O
ATOM    109  HD  NAG B   7       9.572  22.027  19.9950  0.00  0.00     0.000 HD
ATOM    109   O  NAG B   7       9.993  22.602  19.5030  0.00  0.00     0.000 O
ATOM    111  HD  NAG B   7       9.572  22.027  19.9950  0.00  0.00     0.000 HD
ENDBRANCH 95 98
ENDBRANCH 82 95
ENDBRANCH 81 85
ENDBRANCH 65 81
ENDBRANCH 64 67
ENDBRANCH 51 64
ENDBRANCH 50 54
ENDBRANCH 34 50
ENDBRANCH 33 36
ENDBRANCH 20 33
ENDBRANCH 19 23
ENDBRANCH 1 19
TORSDOF 19
ENDMDL
MODEL 14
REMARK VINA RESULT:      -6.1      1.510      2.801
ROOT
ATOM      1  C1  NAG B   1       6.319  21.825   6.2080  0.00  0.00     0.000 C
ATOM      2  C2  NAG B   1       5.827  22.592   4.9840  0.00  0.00     0.000 C
ATOM      3  C3  NAG B   1       4.391  23.047   5.1430  0.00  0.00     0.000 C
ATOM      4  C4  NAG B   1       3.586  21.776   5.3950  0.00  0.00     0.000 C
ATOM      5  C5  NAG B   1       4.052  21.138   6.7090  0.00  0.00     0.000 C
ATOM      6  O5  NAG B   1       5.447  20.771   6.6440  0.00  0.00     0.000 O
ATOM      7   O  NAG B   1       3.905  23.741   3.9710  0.00  0.00     0.000 O
ATOM      9  HD  NAG B   1       4.737  23.980   3.9980  0.00  0.00     0.000 HD
ATOM      9   O  NAG B   1       2.204  22.081   5.4730  0.00  0.00     0.000 O
ATOM     11  HD  NAG B   1       3.036  22.320   5.5000  0.00  0.00     0.000 HD
ATOM     11   C  NAG B   1       3.164  19.935   7.0510  0.00  0.00     0.000 C
ATOM     12   O  NAG B   1       3.880  18.962   7.8110  0.00  0.00     0.000 O
ATOM     14  HD  NAG B   1       4.711  19.201   7.8380  0.00  0.00     0.000 HD
ENDROOT
BRANCH 2 16
ATOM     14   N  NAG B   1       6.807  22.672   3.8860  0.00  0.00     0.000 N
ATOM     16  HD  NAG B   1       6.906  22.940   3.0680  0.00  0.00     0.000 HD
ATOM     16   C  NAG B   1       7.485  23.793   3.5860  0.00  0.00     0.000 C
ATOM     17   C  NAG B   1       7.237  25.054   4.3710  0.00  0.00     0.000 C
ATOM     18   O  NAG B   1       8.332  23.808   2.6930  0.00  0.00     0.000 OA
ENDBRANCH 2 16
BRANCH 1 19
ATOM     19  O4  BDP B   2       7.499  21.187   5.7370  0.00  0.00     0.000 O
BRANCH 19 23
ATOM     20  C1  BDP B   2      10.892  19.612   7.4540  0.00  0.00     0.000 C
ATOM     21  C2  BDP B   2       9.604  18.849   7.6860  0.00  0.00     0.000 C
ATOM     22  C3  BDP B   2       8.538  19.259   6.6960  0.00  0.00     0.000 C
ATOM     23  C4  BDP B   2       8.386  20.777   6.7490  0.00  0.00     0.000 C
ATOM     24  C5  BDP B   2       9.731  21.428   6.4920  0.00  0.00     0.000 C
ATOM     25  O5  BDP B   2      10.656  21.012   7.4790  0.00  0.00     0.000 O
ATOM     26   O  BDP B   2       9.833  17.460   7.5910  0.00  0.00     0.000 O
ATOM     28  HD  BDP B   2      10.648  17.753   7.6110  0.00  0.00     0.000 HD
ATOM     28   O  BDP B   2       7.312  18.583   7.0130  0.00  0.00     0.000 O
ATOM     30  HD  BDP B   2       8.126  18.875   7.0330  0.00  0.00     0.000 HD
BRANCH 24 30
ATOM     30   C  BDP B   2       9.656  22.911   6.5410  0.00  0.00     0.000 C
ATOM     31   O  BDP B   2      10.201  23.546   5.6080  0.00  0.00     0.000 OA
ATOM     32   O  BDP B   2       9.060  23.451   7.5170  0.00  0.00     0.000 OA
ENDBRANCH 24 30
BRANCH 20 33
ATOM     33  O3  NAG B   3      11.699  19.259   8.5510  0.00  0.00     0.000 O
BRANCH 33 36
ATOM     34  C1  NAG B   3      15.342  18.370   8.2570  0.00  0.00     0.000 C
ATOM     35  C2  NAG B   3      13.842  18.156   8.3220  0.00  0.00     0.000 C
ATOM     36  C3  NAG B   3      13.085  19.492   8.2840  0.00  0.00     0.000 C
ATOM     37  C4  NAG B   3      13.645  20.421   9.3580  0.00  0.00     0.000 C
ATOM     38  C5  NAG B   3      15.166  20.496   9.2520  0.00  0.00     0.000 C
ATOM     39  O5  NAG B   3      15.721  19.195   9.3490  0.00  0.00     0.000 O
ATOM     40   O  NAG B   3      13.090  21.737   9.2060  0.00  0.00     0.000 O
ATOM     42  HD  NAG B   3      13.929  21.954   9.1920  0.00  0.00     0.000 HD
ATOM     42   C  NAG B   3      15.823  21.302  10.3690  0.00  0.00     0.000 C
ATOM     43   O  NAG B   3      15.625  20.635  11.6220  0.00  0.00     0.000 O
ATOM     45  HD  NAG B   3      16.463  20.852  11.6080  0.00  0.00     0.000 HD
BRANCH 35 47
ATOM     45   N  NAG B   3      13.350  16.785   8.3860  0.00  0.00     0.000 N
ATOM     47  HD  NAG B   3      13.329  17.184   9.1550  0.00  0.00     0.000 HD
ATOM     47   C  NAG B   3      12.626  16.238   7.4310  0.00  0.00     0.000 C
ATOM     48   C  NAG B   3      12.183  14.824   7.6640  0.00  0.00     0.000 C
ATOM     49   O  NAG B   3      12.308  16.858   6.4180  0.00  0.00     0.000 OA
ENDBRANCH 35 47
BRANCH 34 50
ATOM     50  O4  BDP B   4      15.873  17.070   8.4150  0.00  0.00     0.000 O
BRANCH 50 54
ATOM     51  C1  BDP B   4      18.509  14.397   6.8480  0.00  0.00     0.000 C
ATOM     52  C2  BDP B   4      19.111  15.352   7.8730  0.00  0.00     0.000 C
ATOM     53  C3  BDP B   4      17.997  16.008   8.6290  0.00  0.00     0.000 C
ATOM     54  C4  BDP B   4      17.018  16.693   7.6330  0.00  0.00     0.000 C
ATOM     55  C5  BDP B   4      16.593  15.762   6.5060  0.00  0.00     0.000 C
ATOM     56  O5  BDP B   4      17.731  15.134   5.9220  0.00  0.00     0.000 O
ATOM     57   O  BDP B   4      19.936  14.646   8.7740  0.00  0.00     0.000 O
ATOM     59  HD  BDP B   4      20.744  14.822   8.5150  0.00  0.00     0.000 HD
ATOM     59   O  BDP B   4      18.593  17.037   9.4450  0.00  0.00     0.000 O
ATOM     61  HD  BDP B   4      19.401  17.213   9.1860  0.00  0.00     0.000 HD
BRANCH 55 61
ATOM     61   C  BDP B   4      15.865  16.564   5.4420  0.00  0.00     0.000 C
ATOM     62   O  BDP B   4      14.854  16.045   4.9000  0.00  0.00     0.000 OA
ATOM     63   O  BDP B   4      16.307  17.717   5.1500  0.00  0.00     0.000 OA
ENDBRANCH 55 61
BRANCH 51 64
ATOM     64  O3  NAG B   5      19.604  13.737   6.1840  0.00  0.00     0.000 O
BRANCH 64 67
ATOM     65  C1  NAG B   5      19.326  10.378   4.6890  0.00  0.00     0.000 C
ATOM     66  C2  NAG B   5      19.541  11.436   5.7580  0.00  0.00     0.000 C
ATOM     67  C3  NAG B   5      19.169  12.808   5.2100  0.00  0.00     0.000 C
ATOM     68  C4  NAG B   5      19.888  13.086   3.8830  0.00  0.00     0.000 C
ATOM     69  C5  NAG B   5      19.692  11.931   2.9130  0.00  0.00     0.000 C
ATOM     70  O5  NAG B   5      20.074  10.697   3.5380  0.00  0.00     0.000 O
ATOM     71   O  NAG B   5      19.395  14.294   3.3460  0.00  0.00     0.000 O
ATOM     73  HD  NAG B   5      20.234  14.420   3.1750  0.00  0.00     0.000 HD
ATOM     73   C  NAG B   5      20.481  12.064   1.6040  0.00  0.00     0.000 C
ATOM     74   O  NAG B   5      21.896  12.038   1.8870  0.00  0.00     0.000 O
ATOM     76  HD  NAG B   5      22.735  12.164   1.7160  0.00  0.00     0.000 HD
BRANCH 66 78
ATOM     76   N  NAG B   5      18.726  10.995   6.9060  0.00  0.00     0.000 N
ATOM     78  HD  NAG B   5      19.562  11.150   6.7400  0.00  0.00     0.000 HD
ATOM     78   C  NAG B   5      19.143  10.898   8.1780  0.00  0.00     0.000 C
ATOM     79   C  NAG B   5      18.070  10.436   9.1270  0.00  0.00     0.000 C
ATOM     80   O  NAG B   5      20.341  11.164   8.5480  0.00  0.00     0.000 OA
ENDBRANCH 66 78
BRANCH 65 81
ATOM     81  O4  BDP B   6      19.719   9.091   5.1840  0.00  0.00     0.000 O
BRANCH 81 85
ATOM     82  C1  BDP B   6      19.167   4.931   4.3170  0.00  0.00     0.000 C
ATOM     83  C2  BDP B   6      20.159   5.706   3.4540  0.00  0.00     0.000 C
ATOM     84  C3  BDP B   6      20.584   7.035   4.0840  0.00  0.00     0.000 C
ATOM     85  C4  BDP B   6      19.380   7.879   4.5060  0.00  0.00     0.000 C
ATOM     86  C5  BDP B   6      18.437   6.980   5.3400  0.00  0.00     0.000 C
ATOM     87  O5  BDP B   6      18.058   5.766   4.6150  0.00  0.00     0.000 O
ATOM     88   O  BDP B   6      21.294   4.855   3.3220  0.00  0.00     0.000 O
ATOM     90  HD  BDP B   6      22.160   4.891   3.3320  0.00  0.00     0.000 HD
ATOM     90   O  BDP B   6      21.419   7.753   3.1710  0.00  0.00     0.000 O
ATOM     92  HD  BDP B   6      22.284   7.789   3.1810  0.00  0.00     0.000 HD
BRANCH 86 92
ATOM     92   C  BDP B   6      17.121   7.677   5.5880  0.00  0.00     0.000 C
ATOM     93   O  BDP B   6      16.991   8.419   6.6070  0.00  0.00     0.000 OA
ATOM     94   O  BDP B   6      16.196   7.503   4.7350  0.00  0.00     0.000 OA
ENDBRANCH 86 92
BRANCH 82 95
ATOM     95  O3  NAG B   7      18.683   3.808   3.5550  0.00  0.00     0.000 O
BRANCH 95 98
ATOM     96  C1  NAG B   7      17.944   0.237   3.7660  0.00  0.00     0.000 C
ATOM     97  C2  NAG B   7      17.993   1.613   3.1160  0.00  0.00     0.000 C
ATOM     98  C3  NAG B   7      18.579   2.532   4.1860  0.00  0.00     0.000 C
ATOM     99  C4  NAG B   7      17.681   2.530   5.4210  0.00  0.00     0.000 C
ATOM    100  C5  NAG B   7      17.440   1.103   5.9170  0.00  0.00     0.000 C
ATOM    101  O5  NAG B   7      16.989   0.308   4.8320  0.00  0.00     0.000 O
BRANCH 97 104
ATOM    102   N  NAG B   7      18.884   1.943   1.9960  0.00  0.00     0.000 N
ATOM    104  HD  NAG B   7      19.411   2.370   1.4570  0.00  0.00     0.000 HD
ATOM    104   O  NAG B   7      19.475   2.269  -0.1660  0.00  0.00     0.000 OA
ATOM    105   C  NAG B   7      18.631   1.900   0.6740  0.00  0.00     0.000 C
ATOM    106   C  NAG B   7      17.303   1.412   0.2060  0.00  0.00     0.000 C
ENDBRANCH 97 104
ATOM    107   O  NAG B   7      16.496  -0.161   7.6540  0.00  0.00     0.000 O
ATOM    109  HD  NAG B   7      17.164  -0.097   7.1070  0.00  0.00     0.000 HD
ATOM    109   O  NAG B   7      16.496  -0.161   7.6540  0.00  0.00     0.000 O
ATOM    111  HD  NAG B   7      17.164  -0.097   7.1070  0.00  0.00     0.000 HD
ENDBRANCH 95 98
ENDBRANCH 82 95
ENDBRANCH 81 85
ENDBRANCH 65 81
ENDBRANCH 64 67
ENDBRANCH 51 64
ENDBRANCH 50 54
ENDBRANCH 34 50
ENDBRANCH 33 36
ENDBRANCH 20 33
ENDBRANCH 19 23
ENDBRANCH 1 19
TORSDOF 19
ENDMDL
MODEL 15
REMARK VINA RESULT:      -6.1      2.190      3.594
ROOT
ATOM      1  C1  NAG B   1       4.567  21.660   7.6290  0.00  0.00     0.000 C
ATOM      2  C2  NAG B   1       3.401  21.537   6.6520  0.00  0.00     0.000 C
ATOM      3  C3  NAG B   1       2.079  21.367   7.3700  0.00  0.00     0.000 C
ATOM      4  C4  NAG B   1       2.243  20.124   8.2380  0.00  0.00     0.000 C
ATOM      5  C5  NAG B   1       3.342  20.377   9.2780  0.00  0.00     0.000 C
ATOM      6  O5  NAG B   1       4.610  20.641   8.6400  0.00  0.00     0.000 O
ATOM      7   O  NAG B   1       0.974  21.211   6.4500  0.00  0.00     0.000 O
ATOM      9  HD  NAG B   1       1.492  21.762   6.0280  0.00  0.00     0.000 HD
ATOM      9   O  NAG B   1       1.022  19.821   8.8940  0.00  0.00     0.000 O
ATOM     11  HD  NAG B   1       1.540  20.373   8.4720  0.00  0.00     0.000 HD
ATOM     11   C  NAG B   1       3.429  19.193  10.2470  0.00  0.00     0.000 C
ATOM     12   O  NAG B   1       4.750  19.044  10.7660  0.00  0.00     0.000 O
ATOM     14  HD  NAG B   1       5.268  19.595  10.3440  0.00  0.00     0.000 HD
ENDROOT
BRANCH 2 16
ATOM     14   N  NAG B   1       3.716  21.510   5.2120  0.00  0.00     0.000 N
ATOM     16  HD  NAG B   1       3.352  21.462   4.4280  0.00  0.00     0.000 HD
ATOM     16   C  NAG B   1       3.607  22.587   4.4150  0.00  0.00     0.000 C
ATOM     17   C  NAG B   1       3.118  23.894   4.9810  0.00  0.00     0.000 C
ATOM     18   O  NAG B   1       3.927  22.538   3.2280  0.00  0.00     0.000 OA
ENDBRANCH 2 16
BRANCH 1 19
ATOM     19  O4  BDP B   2       5.705  21.442   6.8050  0.00  0.00     0.000 O
BRANCH 19 23
ATOM     20  C1  BDP B   2       9.653  20.486   7.4670  0.00  0.00     0.000 C
ATOM     21  C2  BDP B   2       8.673  19.331   7.4620  0.00  0.00     0.000 C
ATOM     22  C3  BDP B   2       7.367  19.724   6.8090  0.00  0.00     0.000 C
ATOM     23  C4  BDP B   2       6.846  20.985   7.4910  0.00  0.00     0.000 C
ATOM     24  C5  BDP B   2       7.903  22.069   7.4230  0.00  0.00     0.000 C
ATOM     25  O5  BDP B   2       9.076  21.629   8.0810  0.00  0.00     0.000 O
ATOM     26   O  BDP B   2       9.227  18.221   6.7890  0.00  0.00     0.000 O
ATOM     28  HD  BDP B   2       9.928  18.724   6.8670  0.00  0.00     0.000 HD
ATOM     28   O  BDP B   2       6.439  18.632   6.9120  0.00  0.00     0.000 O
ATOM     30  HD  BDP B   2       7.140  19.135   6.9890  0.00  0.00     0.000 HD
BRANCH 24 30
ATOM     30   C  BDP B   2       7.462  23.327   8.0820  0.00  0.00     0.000 C
ATOM     31   O  BDP B   2       7.378  23.321   9.3320  0.00  0.00     0.000 OA
ATOM     32   O  BDP B   2       7.191  24.324   7.3540  0.00  0.00     0.000 OA
ENDBRANCH 24 30
BRANCH 20 33
ATOM     33  O3  NAG B   3      10.719  20.024   8.2590  0.00  0.00     0.000 O
BRANCH 33 36
ATOM     34  C1  NAG B   3      14.371  19.452   7.5600  0.00  0.00     0.000 C
ATOM     35  C2  NAG B   3      12.961  19.139   8.0220  0.00  0.00     0.000 C
ATOM     36  C3  NAG B   3      11.984  20.260   7.6350  0.00  0.00     0.000 C
ATOM     37  C4  NAG B   3      12.533  21.599   8.1210  0.00  0.00     0.000 C
ATOM     38  C5  NAG B   3      13.982  21.771   7.6730  0.00  0.00     0.000 C
ATOM     39  O5  NAG B   3      14.765  20.687   8.1410  0.00  0.00     0.000 O
ATOM     40   O  NAG B   3      11.739  22.675   7.5970  0.00  0.00     0.000 O
ATOM     42  HD  NAG B   3      12.514  22.947   7.3220  0.00  0.00     0.000 HD
ATOM     42   C  NAG B   3      14.654  23.025   8.2250  0.00  0.00     0.000 C
ATOM     43   O  NAG B   3      14.773  22.917   9.6490  0.00  0.00     0.000 O
ATOM     45  HD  NAG B   3      15.548  23.190   9.3740  0.00  0.00     0.000 HD
BRANCH 35 47
ATOM     45   N  NAG B   3      12.631  17.924   8.7570  0.00  0.00     0.000 N
ATOM     47  HD  NAG B   3      12.564  18.638   9.2440  0.00  0.00     0.000 HD
ATOM     47   C  NAG B   3      11.975  16.916   8.2190  0.00  0.00     0.000 C
ATOM     48   C  NAG B   3      11.700  15.750   9.1210  0.00  0.00     0.000 C
ATOM     49   O  NAG B   3      11.588  16.939   7.0530  0.00  0.00     0.000 OA
ENDBRANCH 35 47
BRANCH 34 50
ATOM     50  O4  BDP B   4      15.139  18.392   8.0890  0.00  0.00     0.000 O
BRANCH 50 54
ATOM     51  C1  BDP B   4      17.872  15.604   6.9410  0.00  0.00     0.000 C
ATOM     52  C2  BDP B   4      18.449  16.757   7.7550  0.00  0.00     0.000 C
ATOM     53  C3  BDP B   4      17.322  17.487   8.4180  0.00  0.00     0.000 C
ATOM     54  C4  BDP B   4      16.283  17.932   7.3490  0.00  0.00     0.000 C
ATOM     55  C5  BDP B   4      15.879  16.792   6.4240  0.00  0.00     0.000 C
ATOM     56  O5  BDP B   4      17.033  16.123   5.9250  0.00  0.00     0.000 O
ATOM     57   O  BDP B   4      19.333  16.267   8.7400  0.00  0.00     0.000 O
ATOM     59  HD  BDP B   4      20.123  16.431   8.4260  0.00  0.00     0.000 HD
ATOM     59   O  BDP B   4      17.883  18.675   9.0130  0.00  0.00     0.000 O
ATOM     61  HD  BDP B   4      18.673  18.839   8.6990  0.00  0.00     0.000 HD
BRANCH 55 61
ATOM     61   C  BDP B   4      15.083  17.351   5.2580  0.00  0.00     0.000 C
ATOM     62   O  BDP B   4      15.626  18.231   4.5390  0.00  0.00     0.000 OA
ATOM     63   O  BDP B   4      13.911  16.905   5.0620  0.00  0.00     0.000 OA
ENDBRANCH 55 61
BRANCH 51 64
ATOM     64  O3  NAG B   5      18.983  14.886   6.3700  0.00  0.00     0.000 O
BRANCH 64 67
ATOM     65  C1  NAG B   5      18.676  11.514   4.9110  0.00  0.00     0.000 C
ATOM     66  C2  NAG B   5      18.858  12.583   5.9750  0.00  0.00     0.000 C
ATOM     67  C3  NAG B   5      18.580  13.958   5.3820  0.00  0.00     0.000 C
ATOM     68  C4  NAG B   5      19.402  14.183   4.1050  0.00  0.00     0.000 C
ATOM     69  C5  NAG B   5      19.227  13.020   3.1420  0.00  0.00     0.000 C
ATOM     70  O5  NAG B   5      19.515  11.784   3.8110  0.00  0.00     0.000 O
ATOM     71   O  NAG B   5      18.996  15.400   3.5160  0.00  0.00     0.000 O
ATOM     73  HD  NAG B   5      19.850  15.490   3.4030  0.00  0.00     0.000 HD
ATOM     73   C  NAG B   5      20.112  13.098   1.8900  0.00  0.00     0.000 C
ATOM     74   O  NAG B   5      21.501  13.022   2.2730  0.00  0.00     0.000 O
ATOM     76  HD  NAG B   5      22.355  13.112   2.1600  0.00  0.00     0.000 HD
BRANCH 66 78
ATOM     76   N  NAG B   5      19.155  12.187   7.3650  0.00  0.00     0.000 N
ATOM     78  HD  NAG B   5      18.493  12.536   6.9310  0.00  0.00     0.000 HD
ATOM     78   C  NAG B   5      18.268  12.104   8.3700  0.00  0.00     0.000 C
ATOM     79   C  NAG B   5      18.875  11.653   9.6700  0.00  0.00     0.000 C
ATOM     80   O  NAG B   5      17.026  12.392   8.2360  0.00  0.00     0.000 OA
ENDBRANCH 66 78
BRANCH 65 81
ATOM     81  O4  BDP B   6      18.981  10.222   5.4520  0.00  0.00     0.000 O
BRANCH 81 85
ATOM     82  C1  BDP B   6      18.640   6.088   4.3770  0.00  0.00     0.000 C
ATOM     83  C2  BDP B   6      19.054   7.070   3.2840  0.00  0.00     0.000 C
ATOM     84  C3  BDP B   6      19.538   8.411   3.8410  0.00  0.00     0.000 C
ATOM     85  C4  BDP B   6      18.538   9.014   4.8300  0.00  0.00     0.000 C
ATOM     86  C5  BDP B   6      18.171   7.920   5.8610  0.00  0.00     0.000 C
ATOM     87  O5  BDP B   6      17.672   6.705   5.2140  0.00  0.00     0.000 O
ATOM     88   O  BDP B   6      20.119   6.432   2.5840  0.00  0.00     0.000 O
ATOM     90  HD  BDP B   6      20.891   6.612   2.2360  0.00  0.00     0.000 HD
ATOM     90   O  BDP B   6      19.798   9.313   2.7620  0.00  0.00     0.000 O
ATOM     92  HD  BDP B   6      20.570   9.493   2.4140  0.00  0.00     0.000 HD
BRANCH 86 92
ATOM     92   C  BDP B   6      17.015   8.370   6.7220  0.00  0.00     0.000 C
ATOM     93   O  BDP B   6      15.835   8.020   6.4140  0.00  0.00     0.000 OA
ATOM     94   O  BDP B   6      17.284   9.071   7.7450  0.00  0.00     0.000 OA
ENDBRANCH 86 92
BRANCH 82 95
ATOM     95  O3  NAG B   7      18.021   4.947   3.7520  0.00  0.00     0.000 O
BRANCH 95 98
ATOM     96  C1  NAG B   7      18.297   1.306   3.6850  0.00  0.00     0.000 C
ATOM     97  C2  NAG B   7      17.982   2.689   3.1320  0.00  0.00     0.000 C
ATOM     98  C3  NAG B   7      18.255   3.647   4.2900  0.00  0.00     0.000 C
ATOM     99  C4  NAG B   7      17.356   3.300   5.4730  0.00  0.00     0.000 C
ATOM    100  C5  NAG B   7      17.505   1.828   5.8600  0.00  0.00     0.000 C
ATOM    101  O5  NAG B   7      17.328   1.028   4.7010  0.00  0.00     0.000 O
BRANCH 97 104
ATOM    102   N  NAG B   7      18.664   3.462   2.0840  0.00  0.00     0.000 N
ATOM    104  HD  NAG B   7      18.895   4.101   1.5480  0.00  0.00     0.000 HD
ATOM    104   O  NAG B   7      19.326   3.984  -0.0180  0.00  0.00     0.000 OA
ATOM    105   C  NAG B   7      18.761   3.198   0.7670  0.00  0.00     0.000 C
ATOM    106   C  NAG B   7      18.165   1.939   0.2350  0.00  0.00     0.000 C
ENDBRANCH 97 104
ATOM    107   O  NAG B   7      16.896   0.220   7.4560  0.00  0.00     0.000 O
ATOM    109  HD  NAG B   7      17.537   0.508   6.9500  0.00  0.00     0.000 HD
ATOM    109   O  NAG B   7      16.896   0.220   7.4560  0.00  0.00     0.000 O
ATOM    111  HD  NAG B   7      17.537   0.508   6.9500  0.00  0.00     0.000 HD
ENDBRANCH 95 98
ENDBRANCH 82 95
ENDBRANCH 81 85
ENDBRANCH 65 81
ENDBRANCH 64 67
ENDBRANCH 51 64
ENDBRANCH 50 54
ENDBRANCH 34 50
ENDBRANCH 33 36
ENDBRANCH 20 33
ENDBRANCH 19 23
ENDBRANCH 1 19
TORSDOF 19
ENDMDL
MODEL 16
REMARK VINA RESULT:      -6.0     11.010     18.096
ROOT
ATOM      1  C1  NAG B   1      18.150   6.200   4.3690  0.00  0.00     0.000 C
ATOM      2  C2  NAG B   1      18.649   6.294   2.9290  0.00  0.00     0.000 C
ATOM      3  C3  NAG B   1      17.791   5.481   1.9810  0.00  0.00     0.000 C
ATOM      4  C4  NAG B   1      17.829   4.054   2.5180  0.00  0.00     0.000 C
ATOM      5  C5  NAG B   1      17.190   4.024   3.9130  0.00  0.00     0.000 C
ATOM      6  O5  NAG B   1      17.918   4.862   4.8360  0.00  0.00     0.000 O
ATOM      7   O  NAG B   1      18.281   5.534   0.6220  0.00  0.00     0.000 O
ATOM      9  HD  NAG B   1      18.464   6.327   0.9170  0.00  0.00     0.000 HD
ATOM      9   O  NAG B   1      17.122   3.186   1.6480  0.00  0.00     0.000 O
ATOM     11  HD  NAG B   1      17.305   3.979   1.9430  0.00  0.00     0.000 HD
ATOM     11   C  NAG B   1      17.093   2.578   4.4130  0.00  0.00     0.000 C
ATOM     12   O  NAG B   1      17.149   2.518   5.8380  0.00  0.00     0.000 O
ATOM     14  HD  NAG B   1      17.332   3.311   6.1330  0.00  0.00     0.000 HD
ENDROOT
BRANCH 2 16
ATOM     14   N  NAG B   1      18.737   7.667   2.4020  0.00  0.00     0.000 N
ATOM     16  HD  NAG B   1      18.838   8.493   2.6420  0.00  0.00     0.000 HD
ATOM     16   C  NAG B   1      19.902   8.316   2.2330  0.00  0.00     0.000 C
ATOM     17   C  NAG B   1      21.197   7.648   2.6170  0.00  0.00     0.000 C
ATOM     18   O  NAG B   1      19.940   9.444   1.7430  0.00  0.00     0.000 OA
ENDBRANCH 2 16
BRANCH 1 19
ATOM     19  O4  BDP B   2      19.248   6.693   5.1250  0.00  0.00     0.000 O
BRANCH 19 23
ATOM     20  C1  BDP B   2      17.471   8.364   8.4400  0.00  0.00     0.000 C
ATOM     21  C2  BDP B   2      17.042   8.916   7.0960  0.00  0.00     0.000 C
ATOM     22  C3  BDP B   2      17.419   7.977   5.9720  0.00  0.00     0.000 C
ATOM     23  C4  BDP B   2      18.910   7.673   6.0770  0.00  0.00     0.000 C
ATOM     24  C5  BDP B   2      19.216   7.118   7.4550  0.00  0.00     0.000 C
ATOM     25  O5  BDP B   2      18.861   8.070   8.4390  0.00  0.00     0.000 O
ATOM     26   O  BDP B   2      15.649   9.141   7.0810  0.00  0.00     0.000 O
ATOM     28  HD  BDP B   2      15.776   9.000   7.9260  0.00  0.00     0.000 HD
ATOM     28   O  BDP B   2      17.078   8.583   4.7150  0.00  0.00     0.000 O
ATOM     30  HD  BDP B   2      17.206   8.442   5.5600  0.00  0.00     0.000 HD
BRANCH 24 30
ATOM     30   C  BDP B   2      20.660   6.809   7.6280  0.00  0.00     0.000 C
ATOM     31   O  BDP B   2      20.967   5.623   7.8870  0.00  0.00     0.000 OA
ATOM     32   O  BDP B   2      21.494   7.752   7.5150  0.00  0.00     0.000 OA
ENDBRANCH 24 30
BRANCH 20 33
ATOM     33  O3  NAG B   3      17.222   9.420   9.3360  0.00  0.00     0.000 O
BRANCH 33 36
ATOM     34  C1  NAG B   3      16.573   8.724  12.9750  0.00  0.00     0.000 C
ATOM     35  C2  NAG B   3      16.269   8.894  11.4990  0.00  0.00     0.000 C
ATOM     36  C3  NAG B   3      17.558   9.063  10.6790  0.00  0.00     0.000 C
ATOM     37  C4  NAG B   3      18.403  10.178  11.2900  0.00  0.00     0.000 C
ATOM     38  C5  NAG B   3      18.573   9.952  12.7900  0.00  0.00     0.000 C
ATOM     39  O5  NAG B   3      17.302   9.862  13.4120  0.00  0.00     0.000 O
ATOM     40   O  NAG B   3      19.694  10.216  10.6630  0.00  0.00     0.000 O
ATOM     42  HD  NAG B   3      19.958  10.154  11.4860  0.00  0.00     0.000 HD
ATOM     42   C  NAG B   3      19.295  11.089  13.5080  0.00  0.00     0.000 C
ATOM     43   O  NAG B   3      18.494  12.276  13.4540  0.00  0.00     0.000 O
ATOM     45  HD  NAG B   3      18.758  12.214  14.2770  0.00  0.00     0.000 HD
BRANCH 35 47
ATOM     45   N  NAG B   3      14.902   8.902  10.9960  0.00  0.00     0.000 N
ATOM     47  HD  NAG B   3      15.277   9.681  10.9540  0.00  0.00     0.000 HD
ATOM     47   C  NAG B   3      14.388   7.909  10.2980  0.00  0.00     0.000 C
ATOM     48   C  NAG B   3      12.971   8.086   9.8390  0.00  0.00     0.000 C
ATOM     49   O  NAG B   3      15.041   6.906  10.0150  0.00  0.00     0.000 OA
ENDBRANCH 35 47
BRANCH 34 50
ATOM     50  O4  BDP B   4      15.296   8.697  13.5780  0.00  0.00     0.000 O
BRANCH 50 54
ATOM     51  C1  BDP B   4      13.064   7.038  16.5480  0.00  0.00     0.000 C
ATOM     52  C2  BDP B   4      14.279   7.821  17.0330  0.00  0.00     0.000 C
ATOM     53  C3  BDP B   4      14.782   8.672  15.9070  0.00  0.00     0.000 C
ATOM     54  C4  BDP B   4      15.065   7.782  14.6620  0.00  0.00     0.000 C
ATOM     55  C5  BDP B   4      13.896   6.865  14.3280  0.00  0.00     0.000 C
ATOM     56  O5  BDP B   4      13.453   6.176  15.4940  0.00  0.00     0.000 O
ATOM     57   O  BDP B   4      13.927   8.647  18.1220  0.00  0.00     0.000 O
ATOM     59  HD  BDP B   4      14.235   8.235  18.8180  0.00  0.00     0.000 HD
ATOM     59   O  BDP B   4      16.034   9.243  16.3390  0.00  0.00     0.000 O
ATOM     61  HD  BDP B   4      16.342   8.830  17.0350  0.00  0.00     0.000 HD
BRANCH 55 61
ATOM     61   C  BDP B   4      14.336   5.852  13.2860  0.00  0.00     0.000 C
ATOM     62   O  BDP B   4      15.558   5.553  13.2330  0.00  0.00     0.000 OA
ATOM     63   O  BDP B   4      13.454   5.354  12.5220  0.00  0.00     0.000 OA
ENDBRANCH 55 61
BRANCH 51 64
ATOM     64  O3  NAG B   5      12.568   6.282  17.6690  0.00  0.00     0.000 O
BRANCH 64 67
ATOM     65  C1  NAG B   5       8.956   5.822  18.2490  0.00  0.00     0.000 C
ATOM     66  C2  NAG B   5      10.315   6.501  18.2650  0.00  0.00     0.000 C
ATOM     67  C3  NAG B   5      11.301   5.705  17.4190  0.00  0.00     0.000 C
ATOM     68  C4  NAG B   5      11.321   4.229  17.8370  0.00  0.00     0.000 C
ATOM     69  C5  NAG B   5       9.910   3.664  17.8810  0.00  0.00     0.000 C
ATOM     70  O5  NAG B   5       9.077   4.494  18.7040  0.00  0.00     0.000 O
ATOM     71   O  NAG B   5      12.130   3.513  16.9290  0.00  0.00     0.000 O
ATOM     73  HD  NAG B   5      12.405   3.136  17.6580  0.00  0.00     0.000 HD
ATOM     73   C  NAG B   5       9.820   2.227  18.4130  0.00  0.00     0.000 C
ATOM     74   O  NAG B   5      10.248   2.193  19.7910  0.00  0.00     0.000 O
ATOM     76  HD  NAG B   5      10.523   1.817  20.5200  0.00  0.00     0.000 HD
BRANCH 66 78
ATOM     76   N  NAG B   5      10.107   7.871  17.7590  0.00  0.00     0.000 N
ATOM     78  HD  NAG B   5      10.354   7.496  18.5000  0.00  0.00     0.000 HD
ATOM     78   C  NAG B   5      10.484   9.004  18.3720  0.00  0.00     0.000 C
ATOM     79   C  NAG B   5      10.147  10.248  17.5950  0.00  0.00     0.000 C
ATOM     80   O  NAG B   5      11.067   9.025  19.5140  0.00  0.00     0.000 OA
ENDBRANCH 66 78
BRANCH 65 81
ATOM     81  O4  BDP B   6       8.036   6.541  19.0810  0.00  0.00     0.000 O
BRANCH 81 85
ATOM     82  C1  BDP B   6       3.838   7.321  19.4410  0.00  0.00     0.000 C
ATOM     83  C2  BDP B   6       4.281   5.862  19.3700  0.00  0.00     0.000 C
ATOM     84  C3  BDP B   6       5.774   5.679  19.6540  0.00  0.00     0.000 C
ATOM     85  C4  BDP B   6       6.638   6.603  18.7920  0.00  0.00     0.000 C
ATOM     86  C5  BDP B   6       6.072   8.038  18.9190  0.00  0.00     0.000 C
ATOM     87  O5  BDP B   6       4.651   8.096  18.5720  0.00  0.00     0.000 O
ATOM     88   O  BDP B   6       3.520   5.185  20.3660  0.00  0.00     0.000 O
ATOM     90  HD  BDP B   6       3.612   4.582  20.9810  0.00  0.00     0.000 HD
ATOM     90   O  BDP B   6       6.136   4.310  19.4580  0.00  0.00     0.000 O
ATOM     92  HD  BDP B   6       6.228   3.707  20.0730  0.00  0.00     0.000 HD
BRANCH 86 92
ATOM     92   C  BDP B   6       6.726   8.955  17.9140  0.00  0.00     0.000 C
ATOM     93   O  BDP B   6       7.100   8.490  16.7950  0.00  0.00     0.000 OA
ATOM     94   O  BDP B   6       6.853  10.178  18.2320  0.00  0.00     0.000 OA
ENDBRANCH 86 92
BRANCH 82 95
ATOM     95  O3  NAG B   7       2.479   7.406  18.9680  0.00  0.00     0.000 O
BRANCH 95 98
ATOM     96  C1  NAG B   7      -0.069  10.022  18.9010  0.00  0.00     0.000 C
ATOM     97  C2  NAG B   7       0.496   8.634  19.1750  0.00  0.00     0.000 C
ATOM     98  C3  NAG B   7       1.931   8.685  18.6540  0.00  0.00     0.000 C
ATOM     99  C4  NAG B   7       1.930   9.004  17.1610  0.00  0.00     0.000 C
ATOM    100  C5  NAG B   7       1.140  10.281  16.8750  0.00  0.00     0.000 C
ATOM    101  O5  NAG B   7      -0.140  10.174  17.4790  0.00  0.00     0.000 O
BRANCH 97 104
ATOM    102   N  NAG B   7       0.335   7.675  20.2760  0.00  0.00     0.000 N
ATOM    104  HD  NAG B   7      -0.008   7.111  20.8360  0.00  0.00     0.000 HD
ATOM    104   O  NAG B   7       0.314   6.960  22.4250  0.00  0.00     0.000 OA
ATOM    105   C  NAG B   7       0.553   7.856  21.5930  0.00  0.00     0.000 C
ATOM    106   C  NAG B   7       1.081   9.168  22.0660  0.00  0.00     0.000 C
ENDBRANCH 97 104
ATOM    107   O  NAG B   7       0.575  11.821  15.1980  0.00  0.00     0.000 O
ATOM    109  HD  NAG B   7       0.788  11.729  16.0330  0.00  0.00     0.000 HD
ATOM    109   O  NAG B   7       0.575  11.821  15.1980  0.00  0.00     0.000 O
ATOM    111  HD  NAG B   7       0.788  11.729  16.0330  0.00  0.00     0.000 HD
ENDBRANCH 95 98
ENDBRANCH 82 95
ENDBRANCH 81 85
ENDBRANCH 65 81
ENDBRANCH 64 67
ENDBRANCH 51 64
ENDBRANCH 50 54
ENDBRANCH 34 50
ENDBRANCH 33 36
ENDBRANCH 20 33
ENDBRANCH 19 23
ENDBRANCH 1 19
TORSDOF 19
ENDMDL
MODEL 17
REMARK VINA RESULT:      -6.0      7.180      9.870
ROOT
ATOM      1  C1  NAG B   1       4.592  22.644   6.9700  0.00  0.00     0.000 C
ATOM      2  C2  NAG B   1       3.235  22.532   6.2810  0.00  0.00     0.000 C
ATOM      3  C3  NAG B   1       2.430  21.361   6.8060  0.00  0.00     0.000 C
ATOM      4  C4  NAG B   1       3.302  20.131   6.5760  0.00  0.00     0.000 C
ATOM      5  C5  NAG B   1       4.585  20.262   7.4060  0.00  0.00     0.000 C
ATOM      6  O5  NAG B   1       5.346  21.422   7.0080  0.00  0.00     0.000 O
ATOM      7   O  NAG B   1       1.159  21.226   6.1300  0.00  0.00     0.000 O
ATOM      9  HD  NAG B   1       1.268  22.085   6.1520  0.00  0.00     0.000 HD
ATOM      9   O  NAG B   1       2.601  18.959   6.9570  0.00  0.00     0.000 O
ATOM     11  HD  NAG B   1       2.710  19.818   6.9790  0.00  0.00     0.000 HD
ATOM     11   C  NAG B   1       5.412  18.975   7.2970  0.00  0.00     0.000 C
ATOM     12   O  NAG B   1       6.805  19.240   7.4540  0.00  0.00     0.000 O
ATOM     14  HD  NAG B   1       6.915  20.099   7.4760  0.00  0.00     0.000 HD
ENDROOT
BRANCH 2 16
ATOM     14   N  NAG B   1       2.809  23.941   6.3620  0.00  0.00     0.000 N
ATOM     16  HD  NAG B   1       3.036  24.744   6.1300  0.00  0.00     0.000 HD
ATOM     16   C  NAG B   1       2.200  24.584   5.3500  0.00  0.00     0.000 C
ATOM     17   C  NAG B   1       1.949  23.870   4.0490  0.00  0.00     0.000 C
ATOM     18   O  NAG B   1       1.815  25.746   5.4730  0.00  0.00     0.000 OA
ENDBRANCH 2 16
BRANCH 1 19
ATOM     19  O4  BDP B   2       5.315  23.524   6.1200  0.00  0.00     0.000 O
BRANCH 19 23
ATOM     20  C1  BDP B   2       9.008  22.605   7.6890  0.00  0.00     0.000 C
ATOM     21  C2  BDP B   2       8.270  23.758   8.3360  0.00  0.00     0.000 C
ATOM     22  C3  BDP B   2       6.801  23.737   7.9810  0.00  0.00     0.000 C
ATOM     23  C4  BDP B   2       6.671  23.684   6.4610  0.00  0.00     0.000 C
ATOM     24  C5  BDP B   2       7.437  22.488   5.9310  0.00  0.00     0.000 C
ATOM     25  O5  BDP B   2       8.803  22.606   6.2830  0.00  0.00     0.000 O
ATOM     26   O  BDP B   2       8.422  23.711   9.7380  0.00  0.00     0.000 O
ATOM     28  HD  BDP B   2       9.012  23.125   9.4970  0.00  0.00     0.000 HD
ATOM     28   O  BDP B   2       6.162  24.897   8.5370  0.00  0.00     0.000 O
ATOM     30  HD  BDP B   2       6.752  24.311   8.2960  0.00  0.00     0.000 HD
BRANCH 24 30
ATOM     30   C  BDP B   2       7.362  22.384   4.4500  0.00  0.00     0.000 C
ATOM     31   O  BDP B   2       6.652  21.468   3.9740  0.00  0.00     0.000 OA
ATOM     32   O  BDP B   2       8.017  23.212   3.7550  0.00  0.00     0.000 OA
ENDBRANCH 24 30
BRANCH 20 33
ATOM     33  O3  NAG B   3      10.363  22.874   7.9580  0.00  0.00     0.000 O
BRANCH 33 36
ATOM     34  C1  NAG B   3      12.635  19.877   8.0080  0.00  0.00     0.000 C
ATOM     35  C2  NAG B   3      11.563  20.838   8.4840  0.00  0.00     0.000 C
ATOM     36  C3  NAG B   3      11.221  21.874   7.4030  0.00  0.00     0.000 C
ATOM     37  C4  NAG B   3      12.506  22.541   6.9170  0.00  0.00     0.000 C
ATOM     38  C5  NAG B   3      13.542  21.484   6.5450  0.00  0.00     0.000 C
ATOM     39  O5  NAG B   3      13.784  20.633   7.6530  0.00  0.00     0.000 O
ATOM     40   O  NAG B   3      12.230  23.362   5.7720  0.00  0.00     0.000 O
ATOM     42  HD  NAG B   3      12.861  22.879   5.4280  0.00  0.00     0.000 HD
ATOM     42   C  NAG B   3      14.905  22.060   6.1720  0.00  0.00     0.000 C
ATOM     43   O  NAG B   3      15.490  22.689   7.3190  0.00  0.00     0.000 O
ATOM     45  HD  NAG B   3      16.121  22.206   6.9750  0.00  0.00     0.000 HD
BRANCH 35 47
ATOM     45   N  NAG B   3      10.909  20.907   9.7840  0.00  0.00     0.000 N
ATOM     47  HD  NAG B   3      11.293  21.651   9.5640  0.00  0.00     0.000 HD
ATOM     47   C  NAG B   3       9.758  20.317  10.0410  0.00  0.00     0.000 C
ATOM     48   C  NAG B   3       9.213  20.506  11.4260  0.00  0.00     0.000 C
ATOM     49   O  NAG B   3       9.153  19.672   9.1880  0.00  0.00     0.000 OA
ENDBRANCH 35 47
BRANCH 34 50
ATOM     50  O4  BDP B   4      12.901  19.082   9.1450  0.00  0.00     0.000 O
BRANCH 50 54
ATOM     51  C1  BDP B   4      13.585  15.195  10.1330  0.00  0.00     0.000 C
ATOM     52  C2  BDP B   4      14.804  16.103  10.2570  0.00  0.00     0.000 C
ATOM     53  C3  BDP B   4      14.344  17.528  10.2360  0.00  0.00     0.000 C
ATOM     54  C4  BDP B   4      13.497  17.788   8.9570  0.00  0.00     0.000 C
ATOM     55  C5  BDP B   4      12.410  16.739   8.7600  0.00  0.00     0.000 C
ATOM     56  O5  BDP B   4      12.954  15.428   8.8870  0.00  0.00     0.000 O
ATOM     57   O  BDP B   4      15.482  15.849  11.4690  0.00  0.00     0.000 O
ATOM     59  HD  BDP B   4      16.174  15.381  11.2380  0.00  0.00     0.000 HD
ATOM     59   O  BDP B   4      15.527  18.350  10.1590  0.00  0.00     0.000 O
ATOM     61  HD  BDP B   4      16.218  17.882   9.9280  0.00  0.00     0.000 HD
BRANCH 55 61
ATOM     61   C  BDP B   4      11.807  16.897   7.3750  0.00  0.00     0.000 C
ATOM     62   O  BDP B   4      12.580  16.834   6.3840  0.00  0.00     0.000 OA
ATOM     63   O  BDP B   4      10.556  17.083   7.2830  0.00  0.00     0.000 OA
ENDBRANCH 55 61
BRANCH 51 64
ATOM     64  O3  NAG B   5      14.054  13.836  10.2220  0.00  0.00     0.000 O
BRANCH 64 67
ATOM     65  C1  NAG B   5      12.276  11.041  11.8400  0.00  0.00     0.000 C
ATOM     66  C2  NAG B   5      13.221  12.221  11.6980  0.00  0.00     0.000 C
ATOM     67  C3  NAG B   5      12.999  12.904  10.3540  0.00  0.00     0.000 C
ATOM     68  C4  NAG B   5      13.065  11.891   9.2030  0.00  0.00     0.000 C
ATOM     69  C5  NAG B   5      12.156  10.703   9.4800  0.00  0.00     0.000 C
ATOM     70  O5  NAG B   5      12.458  10.146  10.7670  0.00  0.00     0.000 O
ATOM     71   O  NAG B   5      12.703  12.544   8.0050  0.00  0.00     0.000 O
ATOM     73  HD  NAG B   5      13.368  12.084   7.6950  0.00  0.00     0.000 HD
ATOM     73   C  NAG B   5      12.254   9.577   8.4410  0.00  0.00     0.000 C
ATOM     74   O  NAG B   5      13.580   9.010   8.4660  0.00  0.00     0.000 O
ATOM     76  HD  NAG B   5      14.245   8.550   8.1560  0.00  0.00     0.000 HD
BRANCH 66 78
ATOM     76   N  NAG B   5      12.954  12.954  12.9500  0.00  0.00     0.000 N
ATOM     78  HD  NAG B   5      13.646  12.666  12.5160  0.00  0.00     0.000 HD
ATOM     78   C  NAG B   5      13.868  13.582  13.7070  0.00  0.00     0.000 C
ATOM     79   C  NAG B   5      13.282  14.257  14.9180  0.00  0.00     0.000 C
ATOM     80   O  NAG B   5      15.120  13.597  13.4310  0.00  0.00     0.000 OA
ENDBRANCH 66 78
BRANCH 65 81
ATOM     81  O4  BDP B   6      12.513  10.367  13.0830  0.00  0.00     0.000 O
BRANCH 81 85
ATOM     82  C1  BDP B   6      10.877   7.222  15.4910  0.00  0.00     0.000 C
ATOM     83  C2  BDP B   6      11.608   6.824  14.2120  0.00  0.00     0.000 C
ATOM     84  C3  BDP B   6      12.488   7.946  13.6550  0.00  0.00     0.000 C
ATOM     85  C4  BDP B   6      11.716   9.260  13.5120  0.00  0.00     0.000 C
ATOM     86  C5  BDP B   6      10.996   9.537  14.8530  0.00  0.00     0.000 C
ATOM     87  O5  BDP B   6      10.145   8.416  15.2560  0.00  0.00     0.000 O
ATOM     88   O  BDP B   6      12.424   5.712  14.5700  0.00  0.00     0.000 O
ATOM     90  HD  BDP B   6      13.219   5.398  14.4370  0.00  0.00     0.000 HD
ATOM     90   O  BDP B   6      13.046   7.541  12.4020  0.00  0.00     0.000 O
ATOM     92  HD  BDP B   6      13.842   7.227  12.2690  0.00  0.00     0.000 HD
BRANCH 86 92
ATOM     92   C  BDP B   6      10.030  10.688  14.7070  0.00  0.00     0.000 C
ATOM     93   O  BDP B   6       9.252  10.727  13.7060  0.00  0.00     0.000 OA
ATOM     94   O  BDP B   6      10.025  11.568  15.6230  0.00  0.00     0.000 OA
ENDBRANCH 86 92
BRANCH 82 95
ATOM     95  O3  NAG B   7       9.936   6.182  15.8190  0.00  0.00     0.000 O
BRANCH 95 98
ATOM     96  C1  NAG B   7       9.222   4.048  18.6960  0.00  0.00     0.000 C
ATOM     97  C2  NAG B   7       9.431   4.378  17.2240  0.00  0.00     0.000 C
ATOM     98  C3  NAG B   7       9.677   5.885  17.1900  0.00  0.00     0.000 C
ATOM     99  C4  NAG B   7       8.468   6.621  17.7620  0.00  0.00     0.000 C
ATOM    100  C5  NAG B   7       8.119   6.098  19.1560  0.00  0.00     0.000 C
ATOM    101  O5  NAG B   7       8.005   4.684  19.1010  0.00  0.00     0.000 O
BRANCH 97 104
ATOM    102   N  NAG B   7      10.599   3.919  16.4590  0.00  0.00     0.000 N
ATOM    104  HD  NAG B   7      11.253   3.883  15.8930  0.00  0.00     0.000 HD
ATOM    104   O  NAG B   7      11.769   2.593  15.0440  0.00  0.00     0.000 OA
ATOM    105   C  NAG B   7      10.725   2.824  15.6860  0.00  0.00     0.000 C
ATOM    106   C  NAG B   7       9.583   1.872  15.5850  0.00  0.00     0.000 C
ENDBRANCH 97 104
ATOM    107   O  NAG B   7       6.743   6.459  21.0210  0.00  0.00     0.000 O
ATOM    109  HD  NAG B   7       7.537   6.234  20.7600  0.00  0.00     0.000 HD
ATOM    109   O  NAG B   7       6.743   6.459  21.0210  0.00  0.00     0.000 O
ATOM    111  HD  NAG B   7       7.537   6.234  20.7600  0.00  0.00     0.000 HD
ENDBRANCH 95 98
ENDBRANCH 82 95
ENDBRANCH 81 85
ENDBRANCH 65 81
ENDBRANCH 64 67
ENDBRANCH 51 64
ENDBRANCH 50 54
ENDBRANCH 34 50
ENDBRANCH 33 36
ENDBRANCH 20 33
ENDBRANCH 19 23
ENDBRANCH 1 19
TORSDOF 19
ENDMDL
MODEL 18
REMARK VINA RESULT:      -5.9      9.574     19.434
ROOT
ATOM      1  C1  NAG B   1      17.906   6.114   4.5060  0.00  0.00     0.000 C
ATOM      2  C2  NAG B   1      18.517   6.292   3.1190  0.00  0.00     0.000 C
ATOM      3  C3  NAG B   1      17.812   5.446   2.0790  0.00  0.00     0.000 C
ATOM      4  C4  NAG B   1      17.919   4.009   2.5810  0.00  0.00     0.000 C
ATOM      5  C5  NAG B   1      17.168   3.885   3.9120  0.00  0.00     0.000 C
ATOM      6  O5  NAG B   1      17.743   4.747   4.9170  0.00  0.00     0.000 O
ATOM      7   O  NAG B   1      18.410   5.580   0.7690  0.00  0.00     0.000 O
ATOM      9  HD  NAG B   1      18.503   6.375   1.1000  0.00  0.00     0.000 HD
ATOM      9   O  NAG B   1      17.361   3.118   1.6300  0.00  0.00     0.000 O
ATOM     11  HD  NAG B   1      17.454   3.913   1.9600  0.00  0.00     0.000 HD
ATOM     11   C  NAG B   1      17.146   2.420   4.3660  0.00  0.00     0.000 C
ATOM     12   O  NAG B   1      17.083   2.319   5.7880  0.00  0.00     0.000 O
ATOM     14  HD  NAG B   1      17.176   3.114   6.1180  0.00  0.00     0.000 HD
ENDROOT
BRANCH 2 16
ATOM     14   N  NAG B   1      18.585   7.623   2.4890  0.00  0.00     0.000 N
ATOM     16  HD  NAG B   1      18.506   8.469   2.6550  0.00  0.00     0.000 HD
ATOM     16   C  NAG B   1      19.657   8.428   2.5870  0.00  0.00     0.000 C
ATOM     17   C  NAG B   1      20.852   7.993   3.3930  0.00  0.00     0.000 C
ATOM     18   O  NAG B   1      19.697   9.512   2.0060  0.00  0.00     0.000 OA
ENDBRANCH 2 16
BRANCH 1 19
ATOM     19  O4  BDP B   2      18.891   6.667   5.3680  0.00  0.00     0.000 O
BRANCH 19 23
ATOM     20  C1  BDP B   2      16.323   7.463   8.4840  0.00  0.00     0.000 C
ATOM     21  C2  BDP B   2      16.445   8.536   7.4220  0.00  0.00     0.000 C
ATOM     22  C3  BDP B   2      17.058   7.984   6.1550  0.00  0.00     0.000 C
ATOM     23  C4  BDP B   2      18.377   7.305   6.5120  0.00  0.00     0.000 C
ATOM     24  C5  BDP B   2      18.129   6.248   7.5710  0.00  0.00     0.000 C
ATOM     25  O5  BDP B   2      17.584   6.855   8.7270  0.00  0.00     0.000 O
ATOM     26   O  BDP B   2      15.178   9.088   7.1360  0.00  0.00     0.000 O
ATOM     28  HD  BDP B   2      14.994   8.634   7.8510  0.00  0.00     0.000 HD
ATOM     28   O  BDP B   2      17.240   9.053   5.2130  0.00  0.00     0.000 O
ATOM     30  HD  BDP B   2      17.057   8.600   5.9280  0.00  0.00     0.000 HD
BRANCH 24 30
ATOM     30   C  BDP B   2      19.379   5.552   7.9740  0.00  0.00     0.000 C
ATOM     31   O  BDP B   2      20.366   6.267   8.2640  0.00  0.00     0.000 OA
ATOM     32   O  BDP B   2      19.383   4.289   7.9970  0.00  0.00     0.000 OA
ENDBRANCH 24 30
BRANCH 20 33
ATOM     33  O3  NAG B   3      15.920   8.167   9.6340  0.00  0.00     0.000 O
BRANCH 33 36
ATOM     34  C1  NAG B   3      13.358   7.366  12.2690  0.00  0.00     0.000 C
ATOM     35  C2  NAG B   3      14.033   8.137  11.1510  0.00  0.00     0.000 C
ATOM     36  C3  NAG B   3      15.190   7.333  10.5360  0.00  0.00     0.000 C
ATOM     37  C4  NAG B   3      16.127   6.866  11.6470  0.00  0.00     0.000 C
ATOM     38  C5  NAG B   3      15.333   6.181  12.7560  0.00  0.00     0.000 C
ATOM     39  O5  NAG B   3      14.337   7.059  13.2510  0.00  0.00     0.000 O
ATOM     40   O  NAG B   3      17.097   5.949  11.1180  0.00  0.00     0.000 O
ATOM     42  HD  NAG B   3      16.792   5.450  11.7560  0.00  0.00     0.000 HD
ATOM     42   C  NAG B   3      16.175   5.796  13.9700  0.00  0.00     0.000 C
ATOM     43   O  NAG B   3      16.659   6.982  14.6120  0.00  0.00     0.000 O
ATOM     45  HD  NAG B   3      16.354   6.483  15.2510  0.00  0.00     0.000 HD
BRANCH 35 47
ATOM     45   N  NAG B   3      13.606   9.476  10.7680  0.00  0.00     0.000 N
ATOM     47  HD  NAG B   3      14.382   9.471  11.1530  0.00  0.00     0.000 HD
ATOM     47   C  NAG B   3      12.955   9.730   9.6510  0.00  0.00     0.000 C
ATOM     48   C  NAG B   3      12.607  11.167   9.3990  0.00  0.00     0.000 C
ATOM     49   O  NAG B   3      12.671   8.844   8.8470  0.00  0.00     0.000 OA
ENDBRANCH 35 47
BRANCH 34 50
ATOM     50  O4  BDP B   4      12.415   8.282  12.7840  0.00  0.00     0.000 O
BRANCH 50 54
ATOM     51  C1  BDP B   4      10.134   9.136  16.0430  0.00  0.00     0.000 C
ATOM     52  C2  BDP B   4      11.571   8.741  16.3630  0.00  0.00     0.000 C
ATOM     53  C3  BDP B   4      12.382   8.822  15.1070  0.00  0.00     0.000 C
ATOM     54  C4  BDP B   4      11.724   7.949  14.0000  0.00  0.00     0.000 C
ATOM     55  C5  BDP B   4      10.236   8.234  13.8460  0.00  0.00     0.000 C
ATOM     56  O5  BDP B   4       9.591   8.213  15.1160  0.00  0.00     0.000 O
ATOM     57   O  BDP B   4      12.116   9.615  17.3290  0.00  0.00     0.000 O
ATOM     59  HD  BDP B   4      12.098   9.164  18.0670  0.00  0.00     0.000 HD
ATOM     59   O  BDP B   4      13.676   8.259  15.4050  0.00  0.00     0.000 O
ATOM     61  HD  BDP B   4      13.658   7.807  16.1440  0.00  0.00     0.000 HD
BRANCH 55 61
ATOM     61   C  BDP B   4       9.613   7.176  12.9530  0.00  0.00     0.000 C
ATOM     62   O  BDP B   4       8.985   7.560  11.9310  0.00  0.00     0.000 OA
ATOM     63   O  BDP B   4       9.756   5.957  13.2760  0.00  0.00     0.000 OA
ENDBRANCH 55 61
BRANCH 51 64
ATOM     64  O3  NAG B   5       9.398   9.110  17.2810  0.00  0.00     0.000 O
BRANCH 64 67
ATOM     65  C1  NAG B   5       7.167  11.818  18.4140  0.00  0.00     0.000 C
ATOM     66  C2  NAG B   5       8.455  11.038  18.2160  0.00  0.00     0.000 C
ATOM     67  C3  NAG B   5       8.224   9.898  17.2320  0.00  0.00     0.000 C
ATOM     68  C4  NAG B   5       7.019   9.044  17.6510  0.00  0.00     0.000 C
ATOM     69  C5  NAG B   5       5.805   9.921  17.9150  0.00  0.00     0.000 C
ATOM     70  O5  NAG B   5       6.144  10.954  18.8520  0.00  0.00     0.000 O
ATOM     71   O  NAG B   5       6.757   8.102  16.6330  0.00  0.00     0.000 O
ATOM     73  HD  NAG B   5       6.645   7.578  17.3130  0.00  0.00     0.000 HD
ATOM     73   C  NAG B   5       4.586   9.166  18.4620  0.00  0.00     0.000 C
ATOM     74   O  NAG B   5       4.901   8.613  19.7580  0.00  0.00     0.000 O
ATOM     76  HD  NAG B   5       4.789   8.089  20.4380  0.00  0.00     0.000 HD
BRANCH 66 78
ATOM     76   N  NAG B   5       9.650  11.588  18.8840  0.00  0.00     0.000 N
ATOM     78  HD  NAG B   5       9.392  11.424  18.0740  0.00  0.00     0.000 HD
ATOM     78   C  NAG B   5      10.675  12.211  18.2820  0.00  0.00     0.000 C
ATOM     79   C  NAG B   5      11.739  12.677  19.2380  0.00  0.00     0.000 C
ATOM     80   O  NAG B   5      10.744  12.385  17.0130  0.00  0.00     0.000 OA
ENDBRANCH 66 78
BRANCH 65 81
ATOM     81  O4  BDP B   6       7.367  12.864  19.3740  0.00  0.00     0.000 O
BRANCH 81 85
ATOM     82  C1  BDP B   6       6.093  16.870  20.2040  0.00  0.00     0.000 C
ATOM     83  C2  BDP B   6       5.061  15.757  20.3540  0.00  0.00     0.000 C
ATOM     84  C3  BDP B   6       5.694  14.365  20.4390  0.00  0.00     0.000 C
ATOM     85  C4  BDP B   6       6.676  14.113  19.2930  0.00  0.00     0.000 C
ATOM     86  C5  BDP B   6       7.643  15.318  19.2200  0.00  0.00     0.000 C
ATOM     87  O5  BDP B   6       6.924  16.587  19.0880  0.00  0.00     0.000 O
ATOM     88   O  BDP B   6       4.369  16.041  21.5670  0.00  0.00     0.000 O
ATOM     90  HD  BDP B   6       4.055  15.638  22.2670  0.00  0.00     0.000 HD
ATOM     90   O  BDP B   6       4.667  13.371  20.4620  0.00  0.00     0.000 O
ATOM     92  HD  BDP B   6       4.354  12.968  21.1620  0.00  0.00     0.000 HD
BRANCH 86 92
ATOM     92   C  BDP B   6       8.483  15.249  17.9690  0.00  0.00     0.000 C
ATOM     93   O  BDP B   6       9.725  15.497  18.0360  0.00  0.00     0.000 OA
ATOM     94   O  BDP B   6       7.901  14.917  16.8900  0.00  0.00     0.000 OA
ENDBRANCH 86 92
BRANCH 82 95
ATOM     95  O3  NAG B   7       5.396  18.103  19.9350  0.00  0.00     0.000 O
BRANCH 95 98
ATOM     96  C1  NAG B   7       5.998  21.541  21.0080  0.00  0.00     0.000 C
ATOM     97  C2  NAG B   7       5.211  20.246  20.8590  0.00  0.00     0.000 C
ATOM     98  C3  NAG B   7       6.107  19.337  20.0210  0.00  0.00     0.000 C
ATOM     99  C4  NAG B   7       6.380  19.984  18.6650  0.00  0.00     0.000 C
ATOM    100  C5  NAG B   7       6.946  21.394  18.8370  0.00  0.00     0.000 C
ATOM    101  O5  NAG B   7       6.095  22.128  19.7050  0.00  0.00     0.000 O
BRANCH 97 104
ATOM    102   N  NAG B   7       4.339  19.470  21.7510  0.00  0.00     0.000 N
ATOM    104  HD  NAG B   7       3.670  19.224  22.2430  0.00  0.00     0.000 HD
ATOM    104   O  NAG B   7       3.715  18.432  23.6650  0.00  0.00     0.000 OA
ATOM    105   C  NAG B   7       4.582  19.034  23.0010  0.00  0.00     0.000 C
ATOM    106   C  NAG B   7       5.918  19.292  23.6110  0.00  0.00     0.000 C
ENDBRANCH 97 104
ATOM    107   O  NAG B   7       7.873  23.214  17.6830  0.00  0.00     0.000 O
ATOM    109  HD  NAG B   7       7.915  22.738  18.4050  0.00  0.00     0.000 HD
ATOM    109   O  NAG B   7       7.873  23.214  17.6830  0.00  0.00     0.000 O
ATOM    111  HD  NAG B   7       7.915  22.738  18.4050  0.00  0.00     0.000 HD
ENDBRANCH 95 98
ENDBRANCH 82 95
ENDBRANCH 81 85
ENDBRANCH 65 81
ENDBRANCH 64 67
ENDBRANCH 51 64
ENDBRANCH 50 54
ENDBRANCH 34 50
ENDBRANCH 33 36
ENDBRANCH 20 33
ENDBRANCH 19 23
ENDBRANCH 1 19
TORSDOF 19
ENDMDL
MODEL 19
REMARK VINA RESULT:      -5.8      5.737     15.611
ROOT
ATOM      1  C1  NAG B   1      11.261   7.036  14.0170  0.00  0.00     0.000 C
ATOM      2  C2  NAG B   1      10.657   6.234  15.1670  0.00  0.00     0.000 C
ATOM      3  C3  NAG B   1       9.754   7.086  16.0350  0.00  0.00     0.000 C
ATOM      4  C4  NAG B   1      10.626   8.238  16.5240  0.00  0.00     0.000 C
ATOM      5  C5  NAG B   1      11.082   9.070  15.3190  0.00  0.00     0.000 C
ATOM      6  O5  NAG B   1      11.871   8.276  14.4070  0.00  0.00     0.000 O
ATOM      7   O  NAG B   1       9.209   6.343  17.1490  0.00  0.00     0.000 O
ATOM      9  HD  NAG B   1       9.242   5.745  16.5240  0.00  0.00     0.000 HD
ATOM      9   O  NAG B   1       9.895   9.056  17.4230  0.00  0.00     0.000 O
ATOM     11  HD  NAG B   1       9.927   8.458  16.7970  0.00  0.00     0.000 HD
ATOM     11   C  NAG B   1      11.846  10.311  15.7980  0.00  0.00     0.000 C
ATOM     12   O  NAG B   1      12.808  10.731  14.8330  0.00  0.00     0.000 O
ATOM     14  HD  NAG B   1      12.841  10.133  14.2080  0.00  0.00     0.000 HD
ENDROOT
BRANCH 2 16
ATOM     14   N  NAG B   1       9.995   5.049  14.5940  0.00  0.00     0.000 N
ATOM     16  HD  NAG B   1      10.075   4.444  13.9800  0.00  0.00     0.000 HD
ATOM     16   C  NAG B   1      10.361   3.789  14.8870  0.00  0.00     0.000 C
ATOM     17   C  NAG B   1      11.516   3.540  15.8200  0.00  0.00     0.000 C
ATOM     18   O  NAG B   1       9.751   2.824  14.4270  0.00  0.00     0.000 OA
ENDBRANCH 2 16
BRANCH 1 19
ATOM     19  O4  BDP B   2      12.320   6.204  13.5640  0.00  0.00     0.000 O
BRANCH 19 23
ATOM     20  C1  BDP B   2      13.661   8.403  10.3530  0.00  0.00     0.000 C
ATOM     21  C2  BDP B   2      12.290   7.774  10.2130  0.00  0.00     0.000 C
ATOM     22  C3  BDP B   2      11.734   7.366  11.5580  0.00  0.00     0.000 C
ATOM     23  C4  BDP B   2      12.762   6.479  12.2560  0.00  0.00     0.000 C
ATOM     24  C5  BDP B   2      14.084   7.215  12.3480  0.00  0.00     0.000 C
ATOM     25  O5  BDP B   2      14.542   7.531  11.0470  0.00  0.00     0.000 O
ATOM     26   O  BDP B   2      11.401   8.673   9.5840  0.00  0.00     0.000 O
ATOM     28  HD  BDP B   2      12.156   9.075   9.4470  0.00  0.00     0.000 HD
ATOM     28   O  BDP B   2      10.480   6.692  11.3680  0.00  0.00     0.000 O
ATOM     30  HD  BDP B   2      11.235   7.095  11.2300  0.00  0.00     0.000 HD
BRANCH 24 30
ATOM     30   C  BDP B   2      15.136   6.399  13.0090  0.00  0.00     0.000 C
ATOM     31   O  BDP B   2      15.765   6.930  13.9540  0.00  0.00     0.000 OA
ATOM     32   O  BDP B   2      15.345   5.228  12.5830  0.00  0.00     0.000 OA
ENDBRANCH 24 30
BRANCH 20 33
ATOM     33  O3  NAG B   3      14.105   8.549   9.0260  0.00  0.00     0.000 O
BRANCH 33 36
ATOM     34  C1  NAG B   3      16.114  11.638   8.2710  0.00  0.00     0.000 C
ATOM     35  C2  NAG B   3      14.891  10.794   8.5730  0.00  0.00     0.000 C
ATOM     36  C3  NAG B   3      15.283   9.356   8.9490  0.00  0.00     0.000 C
ATOM     37  C4  NAG B   3      16.203   8.786   7.8730  0.00  0.00     0.000 C
ATOM     38  C5  NAG B   3      17.349   9.753   7.5890  0.00  0.00     0.000 C
ATOM     39  O5  NAG B   3      16.832  11.019   7.2140  0.00  0.00     0.000 O
ATOM     40   O  NAG B   3      16.739   7.525   8.3030  0.00  0.00     0.000 O
ATOM     42  HD  NAG B   3      17.487   7.921   8.1230  0.00  0.00     0.000 HD
ATOM     42   C  NAG B   3      18.249   9.323   6.4330  0.00  0.00     0.000 C
ATOM     43   O  NAG B   3      17.502   9.349   5.2110  0.00  0.00     0.000 O
ATOM     45  HD  NAG B   3      18.251   9.745   5.0310  0.00  0.00     0.000 HD
BRANCH 35 47
ATOM     45   N  NAG B   3      14.097  11.397   9.6360  0.00  0.00     0.000 N
ATOM     47  HD  NAG B   3      14.880  11.760   9.5570  0.00  0.00     0.000 HD
ATOM     47   C  NAG B   3      12.798  11.593   9.5380  0.00  0.00     0.000 C
ATOM     48   C  NAG B   3      12.137  12.245  10.7160  0.00  0.00     0.000 C
ATOM     49   O  NAG B   3      12.167  11.285   8.5290  0.00  0.00     0.000 OA
ENDBRANCH 35 47
BRANCH 34 50
ATOM     50  O4  BDP B   4      15.573  12.870   7.8430  0.00  0.00     0.000 O
BRANCH 50 54
ATOM     51  C1  BDP B   4      16.006  16.913   7.9880  0.00  0.00     0.000 C
ATOM     52  C2  BDP B   4      17.021  16.200   7.1020  0.00  0.00     0.000 C
ATOM     53  C3  BDP B   4      16.535  14.808   6.8390  0.00  0.00     0.000 C
ATOM     54  C4  BDP B   4      16.261  14.083   8.1880  0.00  0.00     0.000 C
ATOM     55  C5  BDP B   4      15.403  14.917   9.1300  0.00  0.00     0.000 C
ATOM     56  O5  BDP B   4      15.918  16.242   9.2320  0.00  0.00     0.000 O
ATOM     57   O  BDP B   4      17.167  16.884   5.8760  0.00  0.00     0.000 O
ATOM     59  HD  BDP B   4      17.916  17.311   5.9520  0.00  0.00     0.000 HD
ATOM     59   O  BDP B   4      17.603  14.110   6.1680  0.00  0.00     0.000 O
ATOM     61  HD  BDP B   4      18.352  14.537   6.2440  0.00  0.00     0.000 HD
BRANCH 55 61
ATOM     61   C  BDP B   4      15.402  14.276  10.5060  0.00  0.00     0.000 C
ATOM     62   O  BDP B   4      16.275  13.403  10.7520  0.00  0.00     0.000 OA
ATOM     63   O  BDP B   4      14.523  14.649  11.3420  0.00  0.00     0.000 OA
ENDBRANCH 55 61
BRANCH 51 64
ATOM     64  O3  NAG B   5      16.470  18.265   8.1680  0.00  0.00     0.000 O
BRANCH 64 67
ATOM     65  C1  NAG B   5      13.583  20.557   8.2110  0.00  0.00     0.000 C
ATOM     66  C2  NAG B   5      14.529  19.484   7.6980  0.00  0.00     0.000 C
ATOM     67  C3  NAG B   5      15.509  19.091   8.7950  0.00  0.00     0.000 C
ATOM     68  C4  NAG B   5      16.204  20.327   9.3820  0.00  0.00     0.000 C
ATOM     69  C5  NAG B   5      15.182  21.380   9.7800  0.00  0.00     0.000 C
ATOM     70  O5  NAG B   5      14.319  21.667   8.6710  0.00  0.00     0.000 O
ATOM     71   O  NAG B   5      16.982  19.925  10.4900  0.00  0.00     0.000 O
ATOM     73  HD  NAG B   5      17.551  20.474  10.1360  0.00  0.00     0.000 HD
ATOM     73   C  NAG B   5      15.793  22.704  10.2610  0.00  0.00     0.000 C
ATOM     74   O  NAG B   5      16.520  23.322   9.1780  0.00  0.00     0.000 O
ATOM     76  HD  NAG B   5      17.089  23.871   8.8250  0.00  0.00     0.000 HD
BRANCH 66 78
ATOM     76   N  NAG B   5      13.715  18.331   7.2690  0.00  0.00     0.000 N
ATOM     78  HD  NAG B   5      14.221  18.927   6.8970  0.00  0.00     0.000 HD
ATOM     78   C  NAG B   5      13.728  17.764   6.0520  0.00  0.00     0.000 C
ATOM     79   C  NAG B   5      12.797  16.588   5.9280  0.00  0.00     0.000 C
ATOM     80   O  NAG B   5      14.457  18.190   5.0860  0.00  0.00     0.000 OA
ENDBRANCH 66 78
BRANCH 65 81
ATOM     81  O4  BDP B   6      12.687  20.964   7.1670  0.00  0.00     0.000 O
BRANCH 81 85
ATOM     82  C1  BDP B   6       8.435  21.399   6.8710  0.00  0.00     0.000 C
ATOM     83  C2  BDP B   6       9.287  22.651   6.6830  0.00  0.00     0.000 C
ATOM     84  C3  BDP B   6      10.758  22.333   6.4000  0.00  0.00     0.000 C
ATOM     85  C4  BDP B   6      11.343  21.368   7.4340  0.00  0.00     0.000 C
ATOM     86  C5  BDP B   6      10.379  20.165   7.5620  0.00  0.00     0.000 C
ATOM     87  O5  BDP B   6       9.015  20.589   7.8840  0.00  0.00     0.000 O
ATOM     88   O  BDP B   6       8.723  23.329   5.5640  0.00  0.00     0.000 O
ATOM     90  HD  BDP B   6       8.965  23.757   4.8510  0.00  0.00     0.000 HD
ATOM     90   O  BDP B   6      11.510  23.547   6.3490  0.00  0.00     0.000 O
ATOM     92  HD  BDP B   6      11.753  23.975   5.6370  0.00  0.00     0.000 HD
BRANCH 86 92
ATOM     92   C  BDP B   6      10.770  19.294   8.7310  0.00  0.00     0.000 C
ATOM     93   O  BDP B   6      10.730  19.770   9.9050  0.00  0.00     0.000 OA
ATOM     94   O  BDP B   6      11.106  18.095   8.4810  0.00  0.00     0.000 OA
ENDBRANCH 86 92
BRANCH 82 95
ATOM     95  O3  NAG B   7       7.128  21.803   7.3240  0.00  0.00     0.000 O
BRANCH 95 98
ATOM     96  C1  NAG B   7       3.896  20.265   6.5990  0.00  0.00     0.000 C
ATOM     97  C2  NAG B   7       4.971  21.341   6.5370  0.00  0.00     0.000 C
ATOM     98  C3  NAG B   7       6.095  20.824   7.4320  0.00  0.00     0.000 C
ATOM     99  C4  NAG B   7       5.579  20.631   8.8560  0.00  0.00     0.000 C
ATOM    100  C5  NAG B   7       4.338  19.737   8.8690  0.00  0.00     0.000 C
ATOM    101  O5  NAG B   7       3.394  20.246   7.9400  0.00  0.00     0.000 O
BRANCH 97 104
ATOM    102   N  NAG B   7       5.667  21.585   5.2670  0.00  0.00     0.000 N
ATOM    104  HD  NAG B   7       6.288  21.707   4.6750  0.00  0.00     0.000 HD
ATOM    104   O  NAG B   7       6.281  22.744   3.4200  0.00  0.00     0.000 OA
ATOM    105   C  NAG B   7       5.578  22.648   4.4440  0.00  0.00     0.000 C
ATOM    106   C  NAG B   7       4.623  23.743   4.7780  0.00  0.00     0.000 C
ENDBRANCH 97 104
ATOM    107   O  NAG B   7       2.831  18.614  10.2740  0.00  0.00     0.000 O
ATOM    109  HD  NAG B   7       3.279  18.568   9.5340  0.00  0.00     0.000 HD
ATOM    109   O  NAG B   7       2.831  18.614  10.2740  0.00  0.00     0.000 O
ATOM    111  HD  NAG B   7       3.279  18.568   9.5340  0.00  0.00     0.000 HD
ENDBRANCH 95 98
ENDBRANCH 82 95
ENDBRANCH 81 85
ENDBRANCH 65 81
ENDBRANCH 64 67
ENDBRANCH 51 64
ENDBRANCH 50 54
ENDBRANCH 34 50
ENDBRANCH 33 36
ENDBRANCH 20 33
ENDBRANCH 19 23
ENDBRANCH 1 19
TORSDOF 19
ENDMDL
MODEL 20
REMARK VINA RESULT:      -5.6      9.156     18.504
ROOT
ATOM      1  C1  NAG B   1      26.867   4.759   6.2210  0.00  0.00     0.000 C
ATOM      2  C2  NAG B   1      27.681   3.881   7.1680  0.00  0.00     0.000 C
ATOM      3  C3  NAG B   1      28.479   2.832   6.4210  0.00  0.00     0.000 C
ATOM      4  C4  NAG B   1      27.454   2.032   5.6220  0.00  0.00     0.000 C
ATOM      5  C5  NAG B   1      26.776   2.958   4.6040  0.00  0.00     0.000 C
ATOM      6  O5  NAG B   1      26.077   4.035   5.2640  0.00  0.00     0.000 O
ATOM      7   O  NAG B   1      29.221   1.972   7.3150  0.00  0.00     0.000 O
ATOM      9  HD  NAG B   1      29.251   2.736   7.7230  0.00  0.00     0.000 HD
ATOM      9   O  NAG B   1      28.091   0.960   4.9470  0.00  0.00     0.000 O
ATOM     11  HD  NAG B   1      28.120   1.724   5.3560  0.00  0.00     0.000 HD
ATOM     11   C  NAG B   1      25.842   2.145   3.6990  0.00  0.00     0.000 C
ATOM     12   O  NAG B   1      24.756   2.941   3.2280  0.00  0.00     0.000 O
ATOM     14  HD  NAG B   1      24.785   3.704   3.6360  0.00  0.00     0.000 HD
ENDROOT
BRANCH 2 16
ATOM     14   N  NAG B   1      28.424   4.836   8.0090  0.00  0.00     0.000 N
ATOM     16  HD  NAG B   1      28.334   5.563   8.4710  0.00  0.00     0.000 HD
ATOM     16   C  NAG B   1      28.381   4.820   9.3530  0.00  0.00     0.000 C
ATOM     17   C  NAG B   1      27.522   3.809  10.0650  0.00  0.00     0.000 C
ATOM     18   O  NAG B   1      29.055   5.602  10.0220  0.00  0.00     0.000 OA
ENDBRANCH 2 16
BRANCH 1 19
ATOM     19  O4  BDP B   2      25.942   5.400   7.0870  0.00  0.00     0.000 O
BRANCH 19 23
ATOM     20  C1  BDP B   2      21.844   5.709   7.3250  0.00  0.00     0.000 C
ATOM     21  C2  BDP B   2      22.438   4.358   7.6640  0.00  0.00     0.000 C
ATOM     22  C3  BDP B   2      23.918   4.466   7.9520  0.00  0.00     0.000 C
ATOM     23  C4  BDP B   2      24.589   5.167   6.7750  0.00  0.00     0.000 C
ATOM     24  C5  BDP B   2      23.921   6.508   6.5390  0.00  0.00     0.000 C
ATOM     25  O5  BDP B   2      22.551   6.310   6.2490  0.00  0.00     0.000 O
ATOM     26   O  BDP B   2      21.776   3.798   8.7780  0.00  0.00     0.000 O
ATOM     28  HD  BDP B   2      21.244   4.456   8.5940  0.00  0.00     0.000 HD
ATOM     28   O  BDP B   2      24.454   3.152   8.1750  0.00  0.00     0.000 O
ATOM     30  HD  BDP B   2      23.923   3.811   7.9910  0.00  0.00     0.000 HD
BRANCH 24 30
ATOM     30   C  BDP B   2      24.522   7.241   5.3940  0.00  0.00     0.000 C
ATOM     31   O  BDP B   2      25.130   8.306   5.6490  0.00  0.00     0.000 OA
ATOM     32   O  BDP B   2      24.382   6.761   4.2320  0.00  0.00     0.000 OA
ENDBRANCH 24 30
BRANCH 20 33
ATOM     33  O3  NAG B   3      20.534   5.410   6.9080  0.00  0.00     0.000 O
BRANCH 33 36
ATOM     34  C1  NAG B   3      17.764   7.903   7.4210  0.00  0.00     0.000 C
ATOM     35  C2  NAG B   3      18.728   6.782   7.7580  0.00  0.00     0.000 C
ATOM     36  C3  NAG B   3      19.778   6.596   6.6510  0.00  0.00     0.000 C
ATOM     37  C4  NAG B   3      19.072   6.449   5.3050  0.00  0.00     0.000 C
ATOM     38  C5  NAG B   3      18.066   7.581   5.1090  0.00  0.00     0.000 C
ATOM     39  O5  NAG B   3      17.140   7.596   6.1830  0.00  0.00     0.000 O
ATOM     40   O  NAG B   3      20.035   6.477   4.2400  0.00  0.00     0.000 O
ATOM     42  HD  NAG B   3      19.517   7.110   3.9550  0.00  0.00     0.000 HD
ATOM     42   C  NAG B   3      17.219   7.442   3.8460  0.00  0.00     0.000 C
ATOM     43   O  NAG B   3      16.380   6.286   3.9570  0.00  0.00     0.000 O
ATOM     45  HD  NAG B   3      15.862   6.919   3.6710  0.00  0.00     0.000 HD
BRANCH 35 47
ATOM     45   N  NAG B   3      18.671   5.940   8.9460  0.00  0.00     0.000 N
ATOM     47  HD  NAG B   3      18.563   5.491   8.2130  0.00  0.00     0.000 HD
ATOM     47   C  NAG B   3      19.444   6.128   9.9960  0.00  0.00     0.000 C
ATOM     48   C  NAG B   3      19.270   5.157  11.1270  0.00  0.00     0.000 C
ATOM     49   O  NAG B   3      20.278   7.029  10.0380  0.00  0.00     0.000 OA
ENDBRANCH 35 47
BRANCH 34 50
ATOM     50  O4  BDP B   4      16.820   7.859   8.4710  0.00  0.00     0.000 O
BRANCH 50 54
ATOM     51  C1  BDP B   4      14.185  10.089  10.6240  0.00  0.00     0.000 C
ATOM     52  C2  BDP B   4      14.046  10.231   9.1130  0.00  0.00     0.000 C
ATOM     53  C3  BDP B   4      14.789   9.109   8.4550  0.00  0.00     0.000 C
ATOM     54  C4  BDP B   4      16.264   9.094   8.9510  0.00  0.00     0.000 C
ATOM     55  C5  BDP B   4      16.365   9.155  10.4690  0.00  0.00     0.000 C
ATOM     56  O5  BDP B   4      15.550  10.205  10.9810  0.00  0.00     0.000 O
ATOM     57   O  BDP B   4      12.686  10.174   8.7380  0.00  0.00     0.000 O
ATOM     59  HD  BDP B   4      12.469  10.997   8.5780  0.00  0.00     0.000 HD
ATOM     59   O  BDP B   4      14.799   9.385   7.0390  0.00  0.00     0.000 O
ATOM     61  HD  BDP B   4      14.582  10.208   6.8790  0.00  0.00     0.000 HD
BRANCH 55 61
ATOM     61   C  BDP B   4      17.809   9.405  10.8650  0.00  0.00     0.000 C
ATOM     62   O  BDP B   4      18.518  10.112  10.1010  0.00  0.00     0.000 OA
ATOM     63   O  BDP B   4      18.233   8.894  11.9460  0.00  0.00     0.000 OA
ENDBRANCH 55 61
BRANCH 51 64
ATOM     64  O3  NAG B   5      13.408  11.142  11.2260  0.00  0.00     0.000 O
BRANCH 64 67
ATOM     65  C1  NAG B   5      11.489  10.434  14.2930  0.00  0.00     0.000 C
ATOM     66  C2  NAG B   5      11.843  10.435  12.8160  0.00  0.00     0.000 C
ATOM     67  C3  NAG B   5      13.254  10.976  12.6210  0.00  0.00     0.000 C
ATOM     68  C4  NAG B   5      13.426  12.332  13.3200  0.00  0.00     0.000 C
ATOM     69  C5  NAG B   5      12.960  12.255  14.7650  0.00  0.00     0.000 C
ATOM     70  O5  NAG B   5      11.624  11.734  14.8210  0.00  0.00     0.000 O
ATOM     71   O  NAG B   5      14.783  12.712  13.2390  0.00  0.00     0.000 O
ATOM     73  HD  NAG B   5      14.430  13.485  13.0670  0.00  0.00     0.000 HD
ATOM     73   C  NAG B   5      12.976  13.599  15.5070  0.00  0.00     0.000 C
ATOM     74   O  NAG B   5      12.037  14.503  14.8900  0.00  0.00     0.000 O
ATOM     76  HD  NAG B   5      11.684  15.275  14.7180  0.00  0.00     0.000 HD
BRANCH 66 78
ATOM     76   N  NAG B   5      11.604   9.037  12.4090  0.00  0.00     0.000 N
ATOM     78  HD  NAG B   5      11.337   9.825  12.1690  0.00  0.00     0.000 HD
ATOM     78   C  NAG B   5      10.965   8.637  11.2980  0.00  0.00     0.000 C
ATOM     79   C  NAG B   5      10.897   7.141  11.1510  0.00  0.00     0.000 C
ATOM     80   O  NAG B   5      10.455   9.451  10.4490  0.00  0.00     0.000 OA
ENDBRANCH 66 78
BRANCH 65 81
ATOM     81  O4  BDP B   6      10.146   9.970  14.4780  0.00  0.00     0.000 O
BRANCH 81 85
ATOM     82  C1  BDP B   6       7.622   8.331  17.5290  0.00  0.00     0.000 C
ATOM     83  C2  BDP B   6       7.920   9.826  17.5880  0.00  0.00     0.000 C
ATOM     84  C3  BDP B   6       8.468  10.377  16.2690  0.00  0.00     0.000 C
ATOM     85  C4  BDP B   6       9.653   9.557  15.7550  0.00  0.00     0.000 C
ATOM     86  C5  BDP B   6       9.243   8.065  15.7740  0.00  0.00     0.000 C
ATOM     87  O5  BDP B   6       8.787   7.641  17.0990  0.00  0.00     0.000 O
ATOM     88   O  BDP B   6       6.674  10.451  17.8850  0.00  0.00     0.000 O
ATOM     90  HD  BDP B   6       6.202  11.140  17.6570  0.00  0.00     0.000 HD
ATOM     90   O  BDP B   6       8.829  11.750  16.4350  0.00  0.00     0.000 O
ATOM     92  HD  BDP B   6       8.357  12.440  16.2070  0.00  0.00     0.000 HD
BRANCH 86 92
ATOM     92   C  BDP B   6      10.439   7.183  15.5070  0.00  0.00     0.000 C
ATOM     93   O  BDP B   6      11.276   6.968  16.4350  0.00  0.00     0.000 OA
ATOM     94   O  BDP B   6      10.541   6.670  14.3490  0.00  0.00     0.000 OA
ENDBRANCH 86 92
BRANCH 82 95
ATOM     95  O3  NAG B   7       7.306   7.878  18.8600  0.00  0.00     0.000 O
BRANCH 95 98
ATOM     96  C1  NAG B   7       4.607   5.974  20.4200  0.00  0.00     0.000 C
ATOM     97  C2  NAG B   7       5.606   7.115  20.2790  0.00  0.00     0.000 C
ATOM     98  C3  NAG B   7       6.413   6.778  19.0270  0.00  0.00     0.000 C
ATOM     99  C4  NAG B   7       7.118   5.436  19.2100  0.00  0.00     0.000 C
ATOM    100  C5  NAG B   7       6.121   4.343  19.5970  0.00  0.00     0.000 C
ATOM    101  O5  NAG B   7       5.358   4.790  20.7070  0.00  0.00     0.000 O
BRANCH 97 104
ATOM    102   N  NAG B   7       5.098   8.462  19.9860  0.00  0.00     0.000 N
ATOM    104  HD  NAG B   7       4.976   9.238  19.6200  0.00  0.00     0.000 HD
ATOM    104   O  NAG B   7       4.686  10.658  20.3620  0.00  0.00     0.000 OA
ATOM    105   C  NAG B   7       5.103   9.556  20.7710  0.00  0.00     0.000 C
ATOM    106   C  NAG B   7       5.634   9.449  22.1600  0.00  0.00     0.000 C
ENDBRANCH 97 104
ATOM    107   O  NAG B   7       5.888   2.037  19.9540  0.00  0.00     0.000 O
ATOM    109  HD  NAG B   7       5.510   2.744  19.6280  0.00  0.00     0.000 HD
ATOM    109   O  NAG B   7       5.888   2.037  19.9540  0.00  0.00     0.000 O
ATOM    111  HD  NAG B   7       5.510   2.744  19.6280  0.00  0.00     0.000 HD
ENDBRANCH 95 98
ENDBRANCH 82 95
ENDBRANCH 81 85
ENDBRANCH 65 81
ENDBRANCH 64 67
ENDBRANCH 51 64
ENDBRANCH 50 54
ENDBRANCH 34 50
ENDBRANCH 33 36
ENDBRANCH 20 33
ENDBRANCH 19 23
ENDBRANCH 1 19
TORSDOF 19
ENDMDL
MODEL 21
REMARK VINA RESULT:      -5.6      9.124     15.578
ROOT
ATOM      1  C1  NAG B   1      17.691  17.452   4.4380  0.00  0.00     0.000 C
ATOM      2  C2  NAG B   1      18.401  16.601   3.3890  0.00  0.00     0.000 C
ATOM      3  C3  NAG B   1      19.655  15.954   3.9430  0.00  0.00     0.000 C
ATOM      4  C4  NAG B   1      20.522  17.106   4.4420  0.00  0.00     0.000 C
ATOM      5  C5  NAG B   1      19.792  17.828   5.5820  0.00  0.00     0.000 C
ATOM      6  O5  NAG B   1      18.539  18.383   5.1280  0.00  0.00     0.000 O
ATOM      7   O  NAG B   1      20.354  15.177   2.9440  0.00  0.00     0.000 O
ATOM      9  HD  NAG B   1      19.525  15.057   2.7270  0.00  0.00     0.000 HD
ATOM      9   O  NAG B   1      21.768  16.613   4.9050  0.00  0.00     0.000 O
ATOM     11  HD  NAG B   1      20.938  16.493   4.6880  0.00  0.00     0.000 HD
ATOM     11   C  NAG B   1      20.703  18.902   6.1890  0.00  0.00     0.000 C
ATOM     12   O  NAG B   1      19.942  19.979   6.7330  0.00  0.00     0.000 O
ATOM     14  HD  NAG B   1      19.112  19.858   6.5160  0.00  0.00     0.000 HD
ENDROOT
BRANCH 2 16
ATOM     14   N  NAG B   1      17.540  15.557   2.8060  0.00  0.00     0.000 N
ATOM     16  HD  NAG B   1      16.715  15.367   2.6230  0.00  0.00     0.000 HD
ATOM     16   C  NAG B   1      17.063  15.615   1.5510  0.00  0.00     0.000 C
ATOM     17   C  NAG B   1      17.382  16.801   0.6790  0.00  0.00     0.000 C
ATOM     18   O  NAG B   1      16.387  14.700   1.0820  0.00  0.00     0.000 OA
ENDBRANCH 2 16
BRANCH 1 19
ATOM     19  O4  BDP B   2      16.795  18.239   3.6630  0.00  0.00     0.000 O
BRANCH 19 23
ATOM     20  C1  BDP B   2      14.066  18.683   6.7120  0.00  0.00     0.000 C
ATOM     21  C2  BDP B   2      13.779  17.587   5.7070  0.00  0.00     0.000 C
ATOM     22  C3  BDP B   2      15.015  17.240   4.9070  0.00  0.00     0.000 C
ATOM     23  C4  BDP B   2      15.570  18.523   4.2950  0.00  0.00     0.000 C
ATOM     24  C5  BDP B   2      15.827  19.536   5.3930  0.00  0.00     0.000 C
ATOM     25  O5  BDP B   2      14.616  19.822   6.0660  0.00  0.00     0.000 O
ATOM     26   O  BDP B   2      13.298  16.434   6.3630  0.00  0.00     0.000 O
ATOM     28  HD  BDP B   2      13.255  17.011   7.0070  0.00  0.00     0.000 HD
ATOM     28   O  BDP B   2      14.674  16.268   3.9070  0.00  0.00     0.000 O
ATOM     30  HD  BDP B   2      14.630  16.845   4.5510  0.00  0.00     0.000 HD
BRANCH 24 30
ATOM     30   C  BDP B   2      16.360  20.818   4.8610  0.00  0.00     0.000 C
ATOM     31   O  BDP B   2      17.390  21.280   5.4040  0.00  0.00     0.000 OA
ATOM     32   O  BDP B   2      15.748  21.373   3.9040  0.00  0.00     0.000 OA
ENDBRANCH 24 30
BRANCH 20 33
ATOM     33  O3  NAG B   3      12.799  19.011   7.2280  0.00  0.00     0.000 O
BRANCH 33 36
ATOM     34  C1  NAG B   3      12.237  19.807  10.8620  0.00  0.00     0.000 C
ATOM     35  C2  NAG B   3      12.349  18.962   9.6070  0.00  0.00     0.000 C
ATOM     36  C3  NAG B   3      12.900  19.781   8.4290  0.00  0.00     0.000 C
ATOM     37  C4  NAG B   3      12.076  21.056   8.2700  0.00  0.00     0.000 C
ATOM     38  C5  NAG B   3      11.958  21.780   9.6080  0.00  0.00     0.000 C
ATOM     39  O5  NAG B   3      11.394  20.914  10.5780  0.00  0.00     0.000 O
ATOM     40   O  NAG B   3      12.697  21.925   7.3100  0.00  0.00     0.000 O
ATOM     42  HD  NAG B   3      12.642  22.486   7.9670  0.00  0.00     0.000 HD
ATOM     42   C  NAG B   3      11.041  23.000   9.5710  0.00  0.00     0.000 C
ATOM     43   O  NAG B   3       9.695  22.579   9.3180  0.00  0.00     0.000 O
ATOM     45  HD  NAG B   3       9.640  23.141   9.9750  0.00  0.00     0.000 HD
BRANCH 35 47
ATOM     45   N  NAG B   3      11.947  17.562   9.5800  0.00  0.00     0.000 N
ATOM     47  HD  NAG B   3      11.416  18.069   9.1210  0.00  0.00     0.000 HD
ATOM     47   C  NAG B   3      12.812  16.569   9.5250  0.00  0.00     0.000 C
ATOM     48   C  NAG B   3      12.230  15.187   9.4840  0.00  0.00     0.000 C
ATOM     49   O  NAG B   3      14.025  16.763   9.4810  0.00  0.00     0.000 OA
ENDBRANCH 35 47
BRANCH 34 50
ATOM     50  O4  BDP B   4      11.619  18.943  11.7920  0.00  0.00     0.000 O
BRANCH 50 54
ATOM     51  C1  BDP B   4      11.343  17.999  15.7400  0.00  0.00     0.000 C
ATOM     52  C2  BDP B   4      11.104  19.471  15.4240  0.00  0.00     0.000 C
ATOM     53  C3  BDP B   4      10.862  19.612  13.9530  0.00  0.00     0.000 C
ATOM     54  C4  BDP B   4      12.048  18.986  13.1640  0.00  0.00     0.000 C
ATOM     55  C5  BDP B   4      12.388  17.583  13.6460  0.00  0.00     0.000 C
ATOM     56  O5  BDP B   4      12.508  17.559  15.0650  0.00  0.00     0.000 O
ATOM     57   O  BDP B   4       9.978  19.946  16.1310  0.00  0.00     0.000 O
ATOM     59  HD  BDP B   4      10.309  20.405  16.7860  0.00  0.00     0.000 HD
ATOM     59   O  BDP B   4      10.834  21.026  13.6660  0.00  0.00     0.000 O
ATOM     61  HD  BDP B   4      11.166  21.484  14.3220  0.00  0.00     0.000 HD
BRANCH 55 61
ATOM     61   C  BDP B   4      13.704  17.146  13.0270  0.00  0.00     0.000 C
ATOM     62   O  BDP B   4      14.556  18.033  12.7630  0.00  0.00     0.000 OA
ATOM     63   O  BDP B   4      13.882  15.909  12.8060  0.00  0.00     0.000 OA
ENDBRANCH 55 61
BRANCH 51 64
ATOM     64  O3  NAG B   5      11.507  17.889  17.1670  0.00  0.00     0.000 O
BRANCH 64 67
ATOM     65  C1  NAG B   5      10.076  15.172  19.2080  0.00  0.00     0.000 C
ATOM     66  C2  NAG B   5      10.153  16.503  18.4790  0.00  0.00     0.000 C
ATOM     67  C3  NAG B   5      11.412  16.554  17.6250  0.00  0.00     0.000 C
ATOM     68  C4  NAG B   5      12.656  16.210  18.4550  0.00  0.00     0.000 C
ATOM     69  C5  NAG B   5      12.450  14.911  19.2190  0.00  0.00     0.000 C
ATOM     70  O5  NAG B   5      11.237  14.982  19.9840  0.00  0.00     0.000 O
ATOM     71   O  NAG B   5      13.768  16.122  17.5890  0.00  0.00     0.000 O
ATOM     73  HD  NAG B   5      14.152  16.552  18.2350  0.00  0.00     0.000 HD
ATOM     73   C  NAG B   5      13.594  14.552  20.1770  0.00  0.00     0.000 C
ATOM     74   O  NAG B   5      13.688  15.551  21.2140  0.00  0.00     0.000 O
ATOM     76  HD  NAG B   5      14.072  15.981  21.8600  0.00  0.00     0.000 HD
BRANCH 66 78
ATOM     76   N  NAG B   5       8.927  17.304  18.6620  0.00  0.00     0.000 N
ATOM     78  HD  NAG B   5       9.402  17.009  18.0010  0.00  0.00     0.000 HD
ATOM     78   C  NAG B   5       8.057  17.646  17.6990  0.00  0.00     0.000 C
ATOM     79   C  NAG B   5       6.891  18.453  18.2030  0.00  0.00     0.000 C
ATOM     80   O  NAG B   5       8.210  17.325  16.4670  0.00  0.00     0.000 OA
ENDBRANCH 66 78
BRANCH 65 81
ATOM     81  O4  BDP B   6       8.916  15.137  20.0500  0.00  0.00     0.000 O
BRANCH 81 85
ATOM     82  C1  BDP B   6       5.538  12.501  20.0710  0.00  0.00     0.000 C
ATOM     83  C2  BDP B   6       6.235  12.765  21.4030  0.00  0.00     0.000 C
ATOM     84  C3  BDP B   6       7.139  14.000  21.3670  0.00  0.00     0.000 C
ATOM     85  C4  BDP B   6       8.111  13.964  20.1860  0.00  0.00     0.000 C
ATOM     86  C5  BDP B   6       7.295  13.657  18.9080  0.00  0.00     0.000 C
ATOM     87  O5  BDP B   6       6.513  12.426  19.0420  0.00  0.00     0.000 O
ATOM     88   O  BDP B   6       5.188  12.967  22.3480  0.00  0.00     0.000 O
ATOM     90  HD  BDP B   6       4.980  13.480  23.0140  0.00  0.00     0.000 HD
ATOM     90   O  BDP B   6       7.843  14.116  22.6060  0.00  0.00     0.000 O
ATOM     92  HD  BDP B   6       7.635  14.629  23.2730  0.00  0.00     0.000 HD
BRANCH 86 92
ATOM     92   C  BDP B   6       8.217  13.372  17.7470  0.00  0.00     0.000 C
ATOM     93   O  BDP B   6       8.965  12.349  17.7790  0.00  0.00     0.000 OA
ATOM     94   O  BDP B   6       8.184  14.174  16.7620  0.00  0.00     0.000 OA
ENDBRANCH 86 92
BRANCH 82 95
ATOM     95  O3  NAG B   7       4.878  11.222  20.1500  0.00  0.00     0.000 O
BRANCH 95 98
ATOM     96  C1  NAG B   7       1.520   9.942  19.4970  0.00  0.00     0.000 C
ATOM     97  C2  NAG B   7       2.817  10.119  20.2770  0.00  0.00     0.000 C
ATOM     98  C3  NAG B   7       3.690  11.005  19.3910  0.00  0.00     0.000 C
ATOM     99  C4  NAG B   7       3.934  10.318  18.0500  0.00  0.00     0.000 C
ATOM    100  C5  NAG B   7       2.612   9.922  17.3900  0.00  0.00     0.000 C
ATOM    101  O5  NAG B   7       1.835   9.186  18.3230  0.00  0.00     0.000 O
BRANCH 97 104
ATOM    102   N  NAG B   7       2.758  10.856  21.5470  0.00  0.00     0.000 N
ATOM    104  HD  NAG B   7       2.908  11.435  22.1740  0.00  0.00     0.000 HD
ATOM    104   O  NAG B   7       2.964  11.173  23.7800  0.00  0.00     0.000 OA
ATOM    105   C  NAG B   7       2.995  10.410  22.7950  0.00  0.00     0.000 C
ATOM    106   C  NAG B   7       3.317   8.969  22.9990  0.00  0.00     0.000 C
ENDBRANCH 97 104
ATOM    107   O  NAG B   7       1.662   9.056  15.4280  0.00  0.00     0.000 O
ATOM    109  HD  NAG B   7       1.567   9.635  16.0650  0.00  0.00     0.000 HD
ATOM    109   O  NAG B   7       1.662   9.056  15.4280  0.00  0.00     0.000 O
ATOM    111  HD  NAG B   7       1.567   9.635  16.0650  0.00  0.00     0.000 HD
ENDBRANCH 95 98
ENDBRANCH 82 95
ENDBRANCH 81 85
ENDBRANCH 65 81
ENDBRANCH 64 67
ENDBRANCH 51 64
ENDBRANCH 50 54
ENDBRANCH 34 50
ENDBRANCH 33 36
ENDBRANCH 20 33
ENDBRANCH 19 23
ENDBRANCH 1 19
TORSDOF 19
ENDMDL
MODEL 22
REMARK VINA RESULT:      -5.6     10.425     14.717
ROOT
ATOM      1  C1  NAG B   1      18.100  16.446   3.9070  0.00  0.00     0.000 C
ATOM      2  C2  NAG B   1      18.572  16.963   2.5510  0.00  0.00     0.000 C
ATOM      3  C3  NAG B   1      19.086  15.845   1.6680  0.00  0.00     0.000 C
ATOM      4  C4  NAG B   1      20.209  15.183   2.4600  0.00  0.00     0.000 C
ATOM      5  C5  NAG B   1      19.628  14.574   3.7430  0.00  0.00     0.000 C
ATOM      6  O5  NAG B   1      19.037  15.591   4.5800  0.00  0.00     0.000 O
ATOM      7   O  NAG B   1      19.571  16.332   0.3960  0.00  0.00     0.000 O
ATOM      9  HD  NAG B   1      18.909  16.866   0.5600  0.00  0.00     0.000 HD
ATOM      9   O  NAG B   1      20.823  14.168   1.6830  0.00  0.00     0.000 O
ATOM     11  HD  NAG B   1      20.160  14.701   1.8470  0.00  0.00     0.000 HD
ATOM     11   C  NAG B   1      20.713  13.786   4.4870  0.00  0.00     0.000 C
ATOM     12   O  NAG B   1      20.471  13.772   5.8930  0.00  0.00     0.000 O
ATOM     14  HD  NAG B   1      19.809  14.305   6.0570  0.00  0.00     0.000 HD
ENDROOT
BRANCH 2 16
ATOM     14   N  NAG B   1      17.526  17.716   1.8360  0.00  0.00     0.000 N
ATOM     16  HD  NAG B   1      16.829  18.216   1.9610  0.00  0.00     0.000 HD
ATOM     16   C  NAG B   1      17.570  19.047   1.6570  0.00  0.00     0.000 C
ATOM     17   C  NAG B   1      18.716  19.844   2.2240  0.00  0.00     0.000 C
ATOM     18   O  NAG B   1      16.702  19.634   1.0120  0.00  0.00     0.000 OA
ENDBRANCH 2 16
BRANCH 1 19
ATOM     19  O4  BDP B   2      18.014  17.628   4.6920  0.00  0.00     0.000 O
BRANCH 19 23
ATOM     20  C1  BDP B   2      15.193  16.107   7.2740  0.00  0.00     0.000 C
ATOM     21  C2  BDP B   2      14.668  16.904   6.0970  0.00  0.00     0.000 C
ATOM     22  C3  BDP B   2      15.719  17.046   5.0200  0.00  0.00     0.000 C
ATOM     23  C4  BDP B   2      16.984  17.619   5.6510  0.00  0.00     0.000 C
ATOM     24  C5  BDP B   2      17.418  16.735   6.8030  0.00  0.00     0.000 C
ATOM     25  O5  BDP B   2      16.391  16.683   7.7740  0.00  0.00     0.000 O
ATOM     26   O  BDP B   2      13.517  16.287   5.5620  0.00  0.00     0.000 O
ATOM     28  HD  BDP B   2      13.604  15.844   6.3010  0.00  0.00     0.000 HD
ATOM     28   O  BDP B   2      15.211  17.885   3.9710  0.00  0.00     0.000 O
ATOM     30  HD  BDP B   2      15.297  17.442   4.7100  0.00  0.00     0.000 HD
BRANCH 24 30
ATOM     30   C  BDP B   2      18.644  17.245   7.4720  0.00  0.00     0.000 C
ATOM     31   O  BDP B   2      19.612  16.457   7.5760  0.00  0.00     0.000 OA
ATOM     32   O  BDP B   2      18.643  18.433   7.9050  0.00  0.00     0.000 OA
ENDBRANCH 24 30
BRANCH 20 33
ATOM     33  O3  NAG B   3      14.181  16.227   8.2440  0.00  0.00     0.000 O
BRANCH 33 36
ATOM     34  C1  NAG B   3      13.760  13.378  10.6650  0.00  0.00     0.000 C
ATOM     35  C2  NAG B   3      13.655  14.143   9.3590  0.00  0.00     0.000 C
ATOM     36  C3  NAG B   3      14.468  15.445   9.4070  0.00  0.00     0.000 C
ATOM     37  C4  NAG B   3      14.074  16.242  10.6480  0.00  0.00     0.000 C
ATOM     38  C5  NAG B   3      14.133  15.355  11.8880  0.00  0.00     0.000 C
ATOM     39  O5  NAG B   3      13.301  14.221  11.7110  0.00  0.00     0.000 O
ATOM     40   O  NAG B   3      14.961  17.359  10.8160  0.00  0.00     0.000 O
ATOM     42  HD  NAG B   3      15.055  17.007  11.6020  0.00  0.00     0.000 HD
ATOM     42   C  NAG B   3      13.629  16.035  13.1580  0.00  0.00     0.000 C
ATOM     43   O  NAG B   3      12.229  16.309  13.0310  0.00  0.00     0.000 O
ATOM     45  HD  NAG B   3      12.323  15.957  13.8170  0.00  0.00     0.000 HD
BRANCH 35 47
ATOM     45   N  NAG B   3      12.875  13.818   8.1710  0.00  0.00     0.000 N
ATOM     47  HD  NAG B   3      12.683  14.598   8.4930  0.00  0.00     0.000 HD
ATOM     47   C  NAG B   3      13.376  13.165   7.1410  0.00  0.00     0.000 C
ATOM     48   C  NAG B   3      12.443  12.930   5.9910  0.00  0.00     0.000 C
ATOM     49   O  NAG B   3      14.547  12.793   7.1130  0.00  0.00     0.000 OA
ENDBRANCH 35 47
BRANCH 34 50
ATOM     50  O4  BDP B   4      12.878  12.290  10.4870  0.00  0.00     0.000 O
BRANCH 50 54
ATOM     51  C1  BDP B   4      12.626   9.035  12.9150  0.00  0.00     0.000 C
ATOM     52  C2  BDP B   4      13.897   9.858  13.0910  0.00  0.00     0.000 C
ATOM     53  C3  BDP B   4      13.699  11.191  12.4380  0.00  0.00     0.000 C
ATOM     54  C4  BDP B   4      13.283  10.991  10.9520  0.00  0.00     0.000 C
ATOM     55  C5  BDP B   4      12.134  10.004  10.8010  0.00  0.00     0.000 C
ATOM     56  O5  BDP B   4      12.401   8.812  11.5340  0.00  0.00     0.000 O
ATOM     57   O  BDP B   4      14.172  10.046  14.4630  0.00  0.00     0.000 O
ATOM     59  HD  BDP B   4      14.814   9.490  14.6350  0.00  0.00     0.000 HD
ATOM     59   O  BDP B   4      14.977  11.861  12.4550  0.00  0.00     0.000 O
ATOM     61  HD  BDP B   4      15.618  11.305  12.6270  0.00  0.00     0.000 HD
BRANCH 55 61
ATOM     61   C  BDP B   4      11.961   9.658   9.3320  0.00  0.00     0.000 C
ATOM     62   O  BDP B   4      11.107  10.303   8.6700  0.00  0.00     0.000 OA
ATOM     63   O  BDP B   4      12.685   8.738   8.8430  0.00  0.00     0.000 OA
ENDBRANCH 55 61
BRANCH 51 64
ATOM     64  O3  NAG B   5      12.824   7.788  13.6080  0.00  0.00     0.000 O
BRANCH 64 67
ATOM     65  C1  NAG B   5      10.063   6.458  15.6570  0.00  0.00     0.000 C
ATOM     66  C2  NAG B   5      11.225   7.352  15.2600  0.00  0.00     0.000 C
ATOM     67  C3  NAG B   5      11.617   7.081  13.8130  0.00  0.00     0.000 C
ATOM     68  C4  NAG B   5      11.856   5.583  13.5790  0.00  0.00     0.000 C
ATOM     69  C5  NAG B   5      10.681   4.765  14.0910  0.00  0.00     0.000 C
ATOM     70  O5  NAG B   5      10.407   5.106  15.4580  0.00  0.00     0.000 O
ATOM     71   O  NAG B   5      12.065   5.370  12.1990  0.00  0.00     0.000 O
ATOM     73  HD  NAG B   5      12.684   4.843  12.4980  0.00  0.00     0.000 HD
ATOM     73   C  NAG B   5      10.887   3.246  14.0140  0.00  0.00     0.000 C
ATOM     74   O  NAG B   5      11.977   2.861  14.8770  0.00  0.00     0.000 O
ATOM     76  HD  NAG B   5      12.597   2.334  15.1760  0.00  0.00     0.000 HD
BRANCH 66 78
ATOM     76   N  NAG B   5      10.766   8.734  15.5020  0.00  0.00     0.000 N
ATOM     78  HD  NAG B   5      11.389   8.209  15.7960  0.00  0.00     0.000 HD
ATOM     78   C  NAG B   5      11.422   9.672  16.2020  0.00  0.00     0.000 C
ATOM     79   C  NAG B   5      10.704  10.993  16.2550  0.00  0.00     0.000 C
ATOM     80   O  NAG B   5      12.549   9.461  16.7770  0.00  0.00     0.000 OA
ENDBRANCH 66 78
BRANCH 65 81
ATOM     81  O4  BDP B   6       9.720   6.676  17.0320  0.00  0.00     0.000 O
BRANCH 81 85
ATOM     82  C1  BDP B   6       6.358   6.428  19.6770  0.00  0.00     0.000 C
ATOM     83  C2  BDP B   6       6.816   5.142  18.9960  0.00  0.00     0.000 C
ATOM     84  C3  BDP B   6       8.229   5.246  18.4170  0.00  0.00     0.000 C
ATOM     85  C4  BDP B   6       8.393   6.479  17.5250  0.00  0.00     0.000 C
ATOM     86  C5  BDP B   6       7.866   7.705  18.3080  0.00  0.00     0.000 C
ATOM     87  O5  BDP B   6       6.489   7.509  18.7650  0.00  0.00     0.000 O
ATOM     88   O  BDP B   6       6.789   4.143  20.0120  0.00  0.00     0.000 O
ATOM     90  HD  BDP B   6       7.256   3.474  20.3020  0.00  0.00     0.000 HD
ATOM     90   O  BDP B   6       8.543   4.049  17.6990  0.00  0.00     0.000 O
ATOM     92  HD  BDP B   6       9.010   3.380  17.9890  0.00  0.00     0.000 HD
BRANCH 86 92
ATOM     92   C  BDP B   6       7.777   8.911  17.4050  0.00  0.00     0.000 C
ATOM     93   O  BDP B   6       7.593   8.748  16.1610  0.00  0.00     0.000 OA
ATOM     94   O  BDP B   6       7.869  10.056  17.9460  0.00  0.00     0.000 OA
ENDBRANCH 86 92
BRANCH 82 95
ATOM     95  O3  NAG B   7       4.961   6.294  20.0060  0.00  0.00     0.000 O
BRANCH 95 98
ATOM     96  C1  NAG B   7       2.749   6.909  22.8470  0.00  0.00     0.000 C
ATOM     97  C2  NAG B   7       3.267   6.173  21.6180  0.00  0.00     0.000 C
ATOM     98  C3  NAG B   7       4.437   7.018  21.1190  0.00  0.00     0.000 C
ATOM     99  C4  NAG B   7       3.951   8.421  20.7660  0.00  0.00     0.000 C
ATOM    100  C5  NAG B   7       3.209   9.055  21.9440  0.00  0.00     0.000 C
ATOM    101  O5  NAG B   7       2.208   8.155  22.3940  0.00  0.00     0.000 O
BRANCH 97 104
ATOM    102   N  NAG B   7       3.933   4.863  21.6130  0.00  0.00     0.000 N
ATOM    104  HD  NAG B   7       4.418   4.185  21.3810  0.00  0.00     0.000 HD
ATOM    104   O  NAG B   7       4.078   2.603  21.5680  0.00  0.00     0.000 OA
ATOM    105   C  NAG B   7       3.381   3.635  21.6380  0.00  0.00     0.000 C
ATOM    106   C  NAG B   7       1.900   3.508  21.7380  0.00  0.00     0.000 C
ENDBRANCH 97 104
ATOM    107   O  NAG B   7       2.225  11.041  22.7110  0.00  0.00     0.000 O
ATOM    109  HD  NAG B   7       2.701  10.354  22.9360  0.00  0.00     0.000 HD
ATOM    109   O  NAG B   7       2.225  11.041  22.7110  0.00  0.00     0.000 O
ATOM    111  HD  NAG B   7       2.701  10.354  22.9360  0.00  0.00     0.000 HD
ENDBRANCH 95 98
ENDBRANCH 82 95
ENDBRANCH 81 85
ENDBRANCH 65 81
ENDBRANCH 64 67
ENDBRANCH 51 64
ENDBRANCH 50 54
ENDBRANCH 34 50
ENDBRANCH 33 36
ENDBRANCH 20 33
ENDBRANCH 19 23
ENDBRANCH 1 19
TORSDOF 19
ENDMDL
MODEL 23
REMARK VINA RESULT:      -5.6     14.446     19.765
ROOT
ATOM      1  C1  NAG B   1      12.525   3.496  27.2540  0.00  0.00     0.000 C
ATOM      2  C2  NAG B   1      12.811   3.780  28.7260  0.00  0.00     0.000 C
ATOM      3  C3  NAG B   1      14.261   4.150  28.9580  0.00  0.00     0.000 C
ATOM      4  C4  NAG B   1      15.073   2.974  28.4250  0.00  0.00     0.000 C
ATOM      5  C5  NAG B   1      14.832   2.840  26.9160  0.00  0.00     0.000 C
ATOM      6  O5  NAG B   1      13.440   2.580  26.6320  0.00  0.00     0.000 O
ATOM      7   O  NAG B   1      14.548   4.382  30.3560  0.00  0.00     0.000 O
ATOM      9  HD  NAG B   1      13.738   4.680  30.2800  0.00  0.00     0.000 HD
ATOM      9   O  NAG B   1      16.454   3.182  28.6730  0.00  0.00     0.000 O
ATOM     11  HD  NAG B   1      15.644   3.479  28.5970  0.00  0.00     0.000 HD
ATOM     11   C  NAG B   1      15.743   1.752  26.3350  0.00  0.00     0.000 C
ATOM     12   O  NAG B   1      15.152   1.139  25.1890  0.00  0.00     0.000 O
ATOM     14  HD  NAG B   1      14.343   1.437  25.1130  0.00  0.00     0.000 HD
ENDROOT
BRANCH 2 16
ATOM     14   N  NAG B   1      11.632   3.571  29.5850  0.00  0.00     0.000 N
ATOM     16  HD  NAG B   1      11.380   3.534  30.4130  0.00  0.00     0.000 HD
ATOM     16   C  NAG B   1      10.957   4.579  30.1650  0.00  0.00     0.000 C
ATOM     17   C  NAG B   1      11.416   6.000  29.9710  0.00  0.00     0.000 C
ATOM     18   O  NAG B   1       9.947   4.369  30.8360  0.00  0.00     0.000 OA
ENDBRANCH 2 16
BRANCH 1 19
ATOM     19  O4  BDP B   2      11.270   2.831  27.2900  0.00  0.00     0.000 O
BRANCH 19 23
ATOM     20  C1  BDP B   2      10.180   3.822  23.4460  0.00  0.00     0.000 C
ATOM     21  C2  BDP B   2       9.810   4.815  24.5280  0.00  0.00     0.000 C
ATOM     22  C3  BDP B   2      10.603   4.571  25.7910  0.00  0.00     0.000 C
ATOM     23  C4  BDP B   2      10.428   3.110  26.1960  0.00  0.00     0.000 C
ATOM     24  C5  BDP B   2      10.839   2.214  25.0440  0.00  0.00     0.000 C
ATOM     25  O5  BDP B   2      10.028   2.490  23.9170  0.00  0.00     0.000 O
ATOM     26   O  BDP B   2      10.028   6.134  24.0770  0.00  0.00     0.000 O
ATOM     28  HD  BDP B   2      10.110   5.698  23.3330  0.00  0.00     0.000 HD
ATOM     28   O  BDP B   2      10.153   5.472  26.8150  0.00  0.00     0.000 O
ATOM     30  HD  BDP B   2      10.234   5.036  26.0710  0.00  0.00     0.000 HD
BRANCH 24 30
ATOM     30   C  BDP B   2      10.682   0.772  25.3690  0.00  0.00     0.000 C
ATOM     31   O  BDP B   2       9.536   0.376  25.6810  0.00  0.00     0.000 OA
ATOM     32   O  BDP B   2      11.705   0.030  25.3210  0.00  0.00     0.000 OA
ENDBRANCH 24 30
BRANCH 20 33
ATOM     33  O3  NAG B   3       9.240   4.061  22.4280  0.00  0.00     0.000 O
BRANCH 33 36
ATOM     34  C1  NAG B   3      10.117   3.545  18.8060  0.00  0.00     0.000 C
ATOM     35  C2  NAG B   3       9.995   4.264  20.1360  0.00  0.00     0.000 C
ATOM     36  C3  NAG B   3       9.534   3.309  21.2480  0.00  0.00     0.000 C
ATOM     37  C4  NAG B   3       8.270   2.582  20.7970  0.00  0.00     0.000 C
ATOM     38  C5  NAG B   3       8.476   1.970  19.4140  0.00  0.00     0.000 C
ATOM     39  O5  NAG B   3       8.853   2.978  18.4910  0.00  0.00     0.000 O
ATOM     40   O  NAG B   3       7.940   1.544  21.7340  0.00  0.00     0.000 O
ATOM     42  HD  NAG B   3       7.955   1.061  21.0150  0.00  0.00     0.000 HD
ATOM     42   C  NAG B   3       7.219   1.333  18.8270  0.00  0.00     0.000 C
ATOM     43   O  NAG B   3       6.237   2.347  18.5830  0.00  0.00     0.000 O
ATOM     45  HD  NAG B   3       6.252   1.864  17.8640  0.00  0.00     0.000 HD
BRANCH 35 47
ATOM     45   N  NAG B   3      10.244   5.686  20.3350  0.00  0.00     0.000 N
ATOM     47  HD  NAG B   3       9.418   5.469  20.4800  0.00  0.00     0.000 HD
ATOM     47   C  NAG B   3      11.352   6.152  20.8760  0.00  0.00     0.000 C
ATOM     48   C  NAG B   3      11.438   7.642  21.0260  0.00  0.00     0.000 C
ATOM     49   O  NAG B   3      12.251   5.409  21.2610  0.00  0.00     0.000 OA
ENDBRANCH 35 47
BRANCH 34 50
ATOM     50  O4  BDP B   4      10.433   4.578  17.8960  0.00  0.00     0.000 O
BRANCH 50 54
ATOM     51  C1  BDP B   4      12.291   5.445  14.3820  0.00  0.00     0.000 C
ATOM     52  C2  BDP B   4      11.162   4.426  14.2650  0.00  0.00     0.000 C
ATOM     53  C3  BDP B   4      10.338   4.479  15.5150  0.00  0.00     0.000 C
ATOM     54  C4  BDP B   4      11.251   4.265  16.7560  0.00  0.00     0.000 C
ATOM     55  C5  BDP B   4      12.479   5.165  16.7350  0.00  0.00     0.000 C
ATOM     56  O5  BDP B   4      13.128   5.093  15.4690  0.00  0.00     0.000 O
ATOM     57   O  BDP B   4      10.345   4.725  13.1530  0.00  0.00     0.000 O
ATOM     59  HD  BDP B   4      10.581   4.151  12.5490  0.00  0.00     0.000 HD
ATOM     59   O  BDP B   4       9.408   3.379  15.4510  0.00  0.00     0.000 O
ATOM     61  HD  BDP B   4       9.643   2.805  14.8470  0.00  0.00     0.000 HD
BRANCH 55 61
ATOM     61   C  BDP B   4      13.445   4.720  17.8170  0.00  0.00     0.000 C
ATOM     62   O  BDP B   4      13.610   3.483  17.9900  0.00  0.00     0.000 OA
ATOM     63   O  BDP B   4      14.042   5.612  18.4940  0.00  0.00     0.000 OA
ENDBRANCH 55 61
BRANCH 51 64
ATOM     64  O3  NAG B   5      13.023   5.414  13.1420  0.00  0.00     0.000 O
BRANCH 64 67
ATOM     65  C1  NAG B   5      14.269   8.377  11.3360  0.00  0.00     0.000 C
ATOM     66  C2  NAG B   5      13.314   7.270  11.7450  0.00  0.00     0.000 C
ATOM     67  C3  NAG B   5      13.854   6.546  12.9720  0.00  0.00     0.000 C
ATOM     68  C4  NAG B   5      15.302   6.088  12.7490  0.00  0.00     0.000 C
ATOM     69  C5  NAG B   5      16.159   7.242  12.2530  0.00  0.00     0.000 C
ATOM     70  O5  NAG B   5      15.552   7.842  11.1000  0.00  0.00     0.000 O
ATOM     71   O  NAG B   5      15.801   5.564  13.9600  0.00  0.00     0.000 O
ATOM     73  HD  NAG B   5      16.129   4.966  13.4260  0.00  0.00     0.000 HD
ATOM     73   C  NAG B   5      17.596   6.848  11.8810  0.00  0.00     0.000 C
ATOM     74   O  NAG B   5      17.572   5.932  10.7660  0.00  0.00     0.000 O
ATOM     76  HD  NAG B   5      17.900   5.334  10.2320  0.00  0.00     0.000 HD
BRANCH 66 78
ATOM     76   N  NAG B   5      12.009   7.917  11.9840  0.00  0.00     0.000 N
ATOM     78  HD  NAG B   5      12.339   7.332  11.4380  0.00  0.00     0.000 HD
ATOM     78   C  NAG B   5      10.836   7.553  11.4420  0.00  0.00     0.000 C
ATOM     79   C  NAG B   5       9.678   8.399  11.8960  0.00  0.00     0.000 C
ATOM     80   O  NAG B   5      10.717   6.583  10.6110  0.00  0.00     0.000 OA
ENDBRANCH 66 78
BRANCH 65 81
ATOM     81  O4  BDP B   6      13.789   9.031  10.1540  0.00  0.00     0.000 O
BRANCH 81 85
ATOM     82  C1  BDP B   6      13.914  12.847   8.2090  0.00  0.00     0.000 C
ATOM     83  C2  BDP B   6      15.228  12.085   8.3510  0.00  0.00     0.000 C
ATOM     84  C3  BDP B   6      15.024  10.602   8.6730  0.00  0.00     0.000 C
ATOM     85  C4  BDP B   6      14.089  10.399   9.8670  0.00  0.00     0.000 C
ATOM     86  C5  BDP B   6      12.816  11.244   9.6230  0.00  0.00     0.000 C
ATOM     87  O5  BDP B   6      13.133  12.652   9.3800  0.00  0.00     0.000 O
ATOM     88   O  BDP B   6      15.881  12.214   7.0910  0.00  0.00     0.000 O
ATOM     90  HD  BDP B   6      16.337  11.744   6.5250  0.00  0.00     0.000 HD
ATOM     90   O  BDP B   6      16.292   9.982   8.9040  0.00  0.00     0.000 O
ATOM     92  HD  BDP B   6      16.747   9.512   8.3370  0.00  0.00     0.000 HD
BRANCH 86 92
ATOM     92   C  BDP B   6      11.957  11.278  10.8640  0.00  0.00     0.000 C
ATOM     93   O  BDP B   6      12.502  11.158  12.0030  0.00  0.00     0.000 OA
ATOM     94   O  BDP B   6      10.708  11.452  10.7090  0.00  0.00     0.000 OA
ENDBRANCH 86 92
BRANCH 82 95
ATOM     95  O3  NAG B   7      14.213  14.253   8.1070  0.00  0.00     0.000 O
BRANCH 95 98
ATOM     96  C1  NAG B   7      13.354  17.068   5.9440  0.00  0.00     0.000 C
ATOM     97  C2  NAG B   7      14.257  16.207   6.8170  0.00  0.00     0.000 C
ATOM     98  C3  NAG B   7      13.352  15.094   7.3410  0.00  0.00     0.000 C
ATOM     99  C4  NAG B   7      12.204  15.695   8.1470  0.00  0.00     0.000 C
ATOM    100  C5  NAG B   7      11.454  16.747   7.3280  0.00  0.00     0.000 C
ATOM    101  O5  NAG B   7      12.390  17.679   6.8080  0.00  0.00     0.000 O
BRANCH 97 104
ATOM    102   N  NAG B   7      15.351  15.451   6.1920  0.00  0.00     0.000 N
ATOM    104  HD  NAG B   7      15.889  14.811   5.9660  0.00  0.00     0.000 HD
ATOM    104   O  NAG B   7      17.498  14.894   5.7320  0.00  0.00     0.000 OA
ATOM    105   C  NAG B   7      16.679  15.662   6.2730  0.00  0.00     0.000 C
ATOM    106   C  NAG B   7      17.179  16.837   7.0430  0.00  0.00     0.000 C
ENDBRANCH 97 104
ATOM    107   O  NAG B   7       9.570  18.145   7.3170  0.00  0.00     0.000 O
ATOM    109  HD  NAG B   7      10.073  17.630   6.8350  0.00  0.00     0.000 HD
ATOM    109   O  NAG B   7       9.570  18.145   7.3170  0.00  0.00     0.000 O
ATOM    111  HD  NAG B   7      10.073  17.630   6.8350  0.00  0.00     0.000 HD
ENDBRANCH 95 98
ENDBRANCH 82 95
ENDBRANCH 81 85
ENDBRANCH 65 81
ENDBRANCH 64 67
ENDBRANCH 51 64
ENDBRANCH 50 54
ENDBRANCH 34 50
ENDBRANCH 33 36
ENDBRANCH 20 33
ENDBRANCH 19 23
ENDBRANCH 1 19
TORSDOF 19
ENDMDL
MODEL 24
REMARK VINA RESULT:      -5.5      5.098     17.084
ROOT
ATOM      1  C1  NAG B   1      18.770   3.556   5.8890  0.00  0.00     0.000 C
ATOM      2  C2  NAG B   1      18.369   2.096   5.7020  0.00  0.00     0.000 C
ATOM      3  C3  NAG B   1      18.343   1.345   7.0180  0.00  0.00     0.000 C
ATOM      4  C4  NAG B   1      19.745   1.493   7.6000  0.00  0.00     0.000 C
ATOM      5  C5  NAG B   1      20.019   2.976   7.8810  0.00  0.00     0.000 C
ATOM      6  O5  NAG B   1      19.961   3.755   6.6670  0.00  0.00     0.000 O
ATOM      7   O  NAG B   1      18.001  -0.049   6.8440  0.00  0.00     0.000 O
ATOM      9  HD  NAG B   1      17.525   0.338   6.2330  0.00  0.00     0.000 HD
ATOM      9   O  NAG B   1      19.855   0.748   8.8010  0.00  0.00     0.000 O
ATOM     11  HD  NAG B   1      19.379   1.135   8.1900  0.00  0.00     0.000 HD
ATOM     11   C  NAG B   1      21.369   3.133   8.5930  0.00  0.00     0.000 C
ATOM     12   O  NAG B   1      21.965   4.395   8.2990  0.00  0.00     0.000 O
ATOM     14  HD  NAG B   1      21.489   4.782   7.6880  0.00  0.00     0.000 HD
ENDROOT
BRANCH 2 16
ATOM     14   N  NAG B   1      17.068   1.932   5.0290  0.00  0.00     0.000 N
ATOM     16  HD  NAG B   1      16.532   2.311   4.4640  0.00  0.00     0.000 HD
ATOM     16   C  NAG B   1      16.946   1.491   3.7650  0.00  0.00     0.000 C
ATOM     17   C  NAG B   1      18.176   1.165   2.9600  0.00  0.00     0.000 C
ATOM     18   O  NAG B   1      15.840   1.320   3.2530  0.00  0.00     0.000 OA
ENDBRANCH 2 16
BRANCH 1 19
ATOM     19  O4  BDP B   2      19.091   3.975   4.5690  0.00  0.00     0.000 O
BRANCH 19 23
ATOM     20  C1  BDP B   2      18.158   7.927   5.2420  0.00  0.00     0.000 C
ATOM     21  C2  BDP B   2      17.061   7.069   4.6470  0.00  0.00     0.000 C
ATOM     22  C3  BDP B   2      17.355   5.598   4.8330  0.00  0.00     0.000 C
ATOM     23  C4  BDP B   2      18.747   5.309   4.2790  0.00  0.00     0.000 C
ATOM     24  C5  BDP B   2      19.757   6.215   4.9550  0.00  0.00     0.000 C
ATOM     25  O5  BDP B   2      19.423   7.567   4.7040  0.00  0.00     0.000 O
ATOM     26   O  BDP B   2      15.818   7.384   5.2360  0.00  0.00     0.000 O
ATOM     28  HD  BDP B   2      16.302   8.040   5.5290  0.00  0.00     0.000 HD
ATOM     28   O  BDP B   2      16.340   4.825   4.1730  0.00  0.00     0.000 O
ATOM     30  HD  BDP B   2      16.824   5.481   4.4660  0.00  0.00     0.000 HD
BRANCH 24 30
ATOM     30   C  BDP B   2      21.138   5.993   4.4500  0.00  0.00     0.000 C
ATOM     31   O  BDP B   2      21.324   6.108   3.2170  0.00  0.00     0.000 OA
ATOM     32   O  BDP B   2      22.041   5.694   5.2830  0.00  0.00     0.000 OA
ENDBRANCH 24 30
BRANCH 20 33
ATOM     33  O3  NAG B   3      17.833   9.231   4.8270  0.00  0.00     0.000 O
BRANCH 33 36
ATOM     34  C1  NAG B   3      18.561  12.248   6.9530  0.00  0.00     0.000 C
ATOM     35  C2  NAG B   3      17.785  11.063   6.4090  0.00  0.00     0.000 C
ATOM     36  C3  NAG B   3      18.652  10.211   5.4700  0.00  0.00     0.000 C
ATOM     37  C4  NAG B   3      19.276  11.110   4.4050  0.00  0.00     0.000 C
ATOM     38  C5  NAG B   3      19.955  12.311   5.0570  0.00  0.00     0.000 C
ATOM     39  O5  NAG B   3      19.021  13.020   5.8530  0.00  0.00     0.000 O
ATOM     40   O  NAG B   3      20.244  10.370   3.6440  0.00  0.00     0.000 O
ATOM     42  HD  NAG B   3      20.752  11.029   3.8820  0.00  0.00     0.000 HD
ATOM     42   C  NAG B   3      20.495  13.332   4.0590  0.00  0.00     0.000 C
ATOM     43   O  NAG B   3      19.404  13.931   3.3490  0.00  0.00     0.000 O
ATOM     45  HD  NAG B   3      19.912  14.590   3.5870  0.00  0.00     0.000 HD
BRANCH 35 47
ATOM     45   N  NAG B   3      16.385  10.760   6.6790  0.00  0.00     0.000 N
ATOM     47  HD  NAG B   3      16.538  10.912   5.8400  0.00  0.00     0.000 HD
ATOM     47   C  NAG B   3      16.004   9.861   7.5640  0.00  0.00     0.000 C
ATOM     48   C  NAG B   3      14.524   9.658   7.7040  0.00  0.00     0.000 C
ATOM     49   O  NAG B   3      16.813   9.208   8.2190  0.00  0.00     0.000 OA
ENDBRANCH 35 47
BRANCH 34 50
ATOM     50  O4  BDP B   4      17.596  12.968   7.6910  0.00  0.00     0.000 O
BRANCH 50 54
ATOM     51  C1  BDP B   4      16.902  16.376   9.8040  0.00  0.00     0.000 C
ATOM     52  C2  BDP B   4      16.981  16.573   8.2940  0.00  0.00     0.000 C
ATOM     53  C3  BDP B   4      16.861  15.237   7.6290  0.00  0.00     0.000 C
ATOM     54  C4  BDP B   4      17.942  14.270   8.1920  0.00  0.00     0.000 C
ATOM     55  C5  BDP B   4      17.965  14.252   9.7150  0.00  0.00     0.000 C
ATOM     56  O5  BDP B   4      17.994  15.580  10.2290  0.00  0.00     0.000 O
ATOM     57   O  BDP B   4      15.934  17.411   7.8540  0.00  0.00     0.000 O
ATOM     59  HD  BDP B   4      16.311  18.178   7.7160  0.00  0.00     0.000 HD
ATOM     59   O  BDP B   4      17.134  15.440   6.2270  0.00  0.00     0.000 O
ATOM     61  HD  BDP B   4      17.511  16.207   6.0890  0.00  0.00     0.000 HD
BRANCH 55 61
ATOM     61   C  BDP B   4      19.201  13.507  10.1880  0.00  0.00     0.000 C
ATOM     62   O  BDP B   4      20.325  14.032   9.9750  0.00  0.00     0.000 OA
ATOM     63   O  BDP B   4      19.043  12.393  10.7750  0.00  0.00     0.000 OA
ENDBRANCH 55 61
BRANCH 51 64
ATOM     64  O3  NAG B   5      16.956  17.682  10.4090  0.00  0.00     0.000 O
BRANCH 64 67
ATOM     65  C1  NAG B   5      14.755  18.314  13.2980  0.00  0.00     0.000 C
ATOM     66  C2  NAG B   5      15.157  18.083  11.8520  0.00  0.00     0.000 C
ATOM     67  C3  NAG B   5      16.619  17.660  11.7820  0.00  0.00     0.000 C
ATOM     68  C4  NAG B   5      17.515  18.645  12.5440  0.00  0.00     0.000 C
ATOM     69  C5  NAG B   5      16.981  18.883  13.9470  0.00  0.00     0.000 C
ATOM     70  O5  NAG B   5      15.602  19.275  13.8860  0.00  0.00     0.000 O
ATOM     71   O  NAG B   5      18.828  18.129  12.5770  0.00  0.00     0.000 O
ATOM     73  HD  NAG B   5      19.028  18.955  12.4110  0.00  0.00     0.000 HD
ATOM     73   C  NAG B   5      17.743  19.954  14.7410  0.00  0.00     0.000 C
ATOM     74   O  NAG B   5      17.592  21.235  14.0930  0.00  0.00     0.000 O
ATOM     76  HD  NAG B   5      17.791  22.061  13.9270  0.00  0.00     0.000 HD
BRANCH 66 78
ATOM     76   N  NAG B   5      14.184  17.090  11.3580  0.00  0.00     0.000 N
ATOM     78  HD  NAG B   5      14.434  17.893  11.1540  0.00  0.00     0.000 HD
ATOM     78   C  NAG B   5      13.501  17.160  10.2040  0.00  0.00     0.000 C
ATOM     79   C  NAG B   5      12.596  15.982   9.9700  0.00  0.00     0.000 C
ATOM     80   O  NAG B   5      13.604  18.142   9.3850  0.00  0.00     0.000 OA
ENDBRANCH 66 78
BRANCH 65 81
ATOM     81  O4  BDP B   6      13.393  18.757  13.3670  0.00  0.00     0.000 O
BRANCH 81 85
ATOM     82  C1  BDP B   6      10.053  18.092  15.9680  0.00  0.00     0.000 C
ATOM     83  C2  BDP B   6      10.714  19.467  16.0050  0.00  0.00     0.000 C
ATOM     84  C3  BDP B   6      11.600  19.735  14.7860  0.00  0.00     0.000 C
ATOM     85  C4  BDP B   6      12.602  18.603  14.5470  0.00  0.00     0.000 C
ATOM     86  C5  BDP B   6      11.822  17.267  14.5650  0.00  0.00     0.000 C
ATOM     87  O5  BDP B   6      11.055  17.099  15.8000  0.00  0.00     0.000 O
ATOM     88   O  BDP B   6       9.641  20.404  16.0300  0.00  0.00     0.000 O
ATOM     90  HD  BDP B   6       9.409  21.163  15.6820  0.00  0.00     0.000 HD
ATOM     90   O  BDP B   6      12.272  20.987  14.9470  0.00  0.00     0.000 O
ATOM     92  HD  BDP B   6      12.040  21.746  14.5990  0.00  0.00     0.000 HD
BRANCH 86 92
ATOM     92   C  BDP B   6      12.776  16.097  14.5720  0.00  0.00     0.000 C
ATOM     93   O  BDP B   6      13.389  15.798  15.6410  0.00  0.00     0.000 OA
ATOM     94   O  BDP B   6      12.906  15.440  13.4930  0.00  0.00     0.000 OA
ENDBRANCH 86 92
BRANCH 82 95
ATOM     95  O3  NAG B   7       9.410  17.863  17.2370  0.00  0.00     0.000 O
BRANCH 95 98
ATOM     96  C1  NAG B   7       6.098  16.759  18.3090  0.00  0.00     0.000 C
ATOM     97  C2  NAG B   7       7.332  17.652  18.2940  0.00  0.00     0.000 C
ATOM     98  C3  NAG B   7       8.282  16.992  17.2970  0.00  0.00     0.000 C
ATOM     99  C4  NAG B   7       8.621  15.577  17.7610  0.00  0.00     0.000 C
ATOM    100  C5  NAG B   7       7.349  14.765  18.0110  0.00  0.00     0.000 C
ATOM    101  O5  NAG B   7       6.494  15.502  18.8700  0.00  0.00     0.000 O
BRANCH 97 104
ATOM    102   N  NAG B   7       7.334  19.021  17.7610  0.00  0.00     0.000 N
ATOM    104  HD  NAG B   7       7.582  19.759  17.3830  0.00  0.00     0.000 HD
ATOM    104   O  NAG B   7       7.220  21.282  17.8320  0.00  0.00     0.000 OA
ATOM    105   C  NAG B   7       7.127  20.181  18.4110  0.00  0.00     0.000 C
ATOM    106   C  NAG B   7       6.792  20.148  19.8630  0.00  0.00     0.000 C
ENDBRANCH 97 104
ATOM    107   O  NAG B   7       6.544  12.621  18.5190  0.00  0.00     0.000 O
ATOM    109  HD  NAG B   7       6.407  13.336  18.0500  0.00  0.00     0.000 HD
ATOM    109   O  NAG B   7       6.544  12.621  18.5190  0.00  0.00     0.000 O
ATOM    111  HD  NAG B   7       6.407  13.336  18.0500  0.00  0.00     0.000 HD
ENDBRANCH 95 98
ENDBRANCH 82 95
ENDBRANCH 81 85
ENDBRANCH 65 81
ENDBRANCH 64 67
ENDBRANCH 51 64
ENDBRANCH 50 54
ENDBRANCH 34 50
ENDBRANCH 33 36
ENDBRANCH 20 33
ENDBRANCH 19 23
ENDBRANCH 1 19
TORSDOF 19
ENDMDL
MODEL 25
REMARK VINA RESULT:      -5.5      8.547     18.886
ROOT
ATOM      1  C1  NAG B   1      28.178   3.684   7.7290  0.00  0.00     0.000 C
ATOM      2  C2  NAG B   1      28.861   2.974   8.8950  0.00  0.00     0.000 C
ATOM      3  C3  NAG B   1      29.805   1.888   8.4190  0.00  0.00     0.000 C
ATOM      4  C4  NAG B   1      28.950   0.942   7.5830  0.00  0.00     0.000 C
ATOM      5  C5  NAG B   1      28.410   1.698   6.3620  0.00  0.00     0.000 C
ATOM      6  O5  NAG B   1      27.577   2.807   6.7630  0.00  0.00     0.000 O
ATOM      7   O  NAG B   1      30.426   1.185   9.5200  0.00  0.00     0.000 O
ATOM      9  HD  NAG B   1      30.363   1.993   9.8260  0.00  0.00     0.000 HD
ATOM      9   O  NAG B   1      29.724  -0.167   7.1570  0.00  0.00     0.000 O
ATOM     11  HD  NAG B   1      29.661   0.640   7.4630  0.00  0.00     0.000 HD
ATOM     11   C  NAG B   1      27.662   0.731   5.4360  0.00  0.00     0.000 C
ATOM     12   O  NAG B   1      26.637   1.402   4.7060  0.00  0.00     0.000 O
ATOM     14  HD  NAG B   1      26.574   2.210   5.0120  0.00  0.00     0.000 HD
ENDROOT
BRANCH 2 16
ATOM     14   N  NAG B   1      29.471   4.028   9.7240  0.00  0.00     0.000 N
ATOM     16  HD  NAG B   1      29.326   4.816  10.0540  0.00  0.00     0.000 HD
ATOM     16   C  NAG B   1      29.171   4.208  11.0220  0.00  0.00     0.000 C
ATOM     17   C  NAG B   1      28.147   3.325  11.6860  0.00  0.00     0.000 C
ATOM     18   O  NAG B   1      29.738   5.068  11.6950  0.00  0.00     0.000 OA
ENDBRANCH 2 16
BRANCH 1 19
ATOM     19  O4  BDP B   2      27.104   4.373   8.3540  0.00  0.00     0.000 O
BRANCH 19 23
ATOM     20  C1  BDP B   2      23.022   4.550   7.8590  0.00  0.00     0.000 C
ATOM     21  C2  BDP B   2      23.576   3.257   8.4220  0.00  0.00     0.000 C
ATOM     22  C3  BDP B   2      24.981   3.447   8.9460  0.00  0.00     0.000 C
ATOM     23  C4  BDP B   2      25.831   4.063   7.8390  0.00  0.00     0.000 C
ATOM     24  C5  BDP B   2      25.186   5.350   7.3650  0.00  0.00     0.000 C
ATOM     25  O5  BDP B   2      23.891   5.076   6.8660  0.00  0.00     0.000 O
ATOM     26   O  BDP B   2      22.743   2.777   9.4550  0.00  0.00     0.000 O
ATOM     28  HD  BDP B   2      22.238   3.396   9.1210  0.00  0.00     0.000 HD
ATOM     28   O  BDP B   2      25.499   2.180   9.3820  0.00  0.00     0.000 O
ATOM     30  HD  BDP B   2      24.993   2.798   9.0480  0.00  0.00     0.000 HD
BRANCH 24 30
ATOM     30   C  BDP B   2      25.961   5.998   6.2740  0.00  0.00     0.000 C
ATOM     31   O  BDP B   2      26.375   7.163   6.4770  0.00  0.00     0.000 OA
ATOM     32   O  BDP B   2      26.151   5.351   5.2050  0.00  0.00     0.000 OA
ENDBRANCH 24 30
BRANCH 20 33
ATOM     33  O3  NAG B   3      21.810   4.166   7.2560  0.00  0.00     0.000 O
BRANCH 33 36
ATOM     34  C1  NAG B   3      19.050   6.696   6.8960  0.00  0.00     0.000 C
ATOM     35  C2  NAG B   3      19.928   5.657   7.5670  0.00  0.00     0.000 C
ATOM     36  C3  NAG B   3      21.127   5.283   6.6820  0.00  0.00     0.000 C
ATOM     37  C4  NAG B   3      20.629   4.897   5.2920  0.00  0.00     0.000 C
ATOM     38  C5  NAG B   3      19.689   5.971   4.7500  0.00  0.00     0.000 C
ATOM     39  O5  NAG B   3      18.613   6.172   5.6510  0.00  0.00     0.000 O
ATOM     40   O  NAG B   3      21.741   4.740   4.3970  0.00  0.00     0.000 O
ATOM     42  HD  NAG B   3      21.286   5.311   3.9300  0.00  0.00     0.000 HD
ATOM     42   C  NAG B   3      19.039   5.607   3.4170  0.00  0.00     0.000 C
ATOM     43   O  NAG B   3      18.167   4.485   3.6000  0.00  0.00     0.000 O
ATOM     45  HD  NAG B   3      17.712   5.055   3.1330  0.00  0.00     0.000 HD
BRANCH 35 47
ATOM     45   N  NAG B   3      19.656   5.055   8.8660  0.00  0.00     0.000 N
ATOM     47  HD  NAG B   3      19.625   4.480   8.2190  0.00  0.00     0.000 HD
ATOM     47   C  NAG B   3      20.284   5.413   9.9680  0.00  0.00     0.000 C
ATOM     48   C  NAG B   3      19.898   4.678  11.2170  0.00  0.00     0.000 C
ATOM     49   O  NAG B   3      21.156   6.279   9.9690  0.00  0.00     0.000 OA
ENDBRANCH 35 47
BRANCH 34 50
ATOM     50  O4  BDP B   4      17.959   6.833   7.7820  0.00  0.00     0.000 O
BRANCH 50 54
ATOM     51  C1  BDP B   4      15.175   9.438   9.2020  0.00  0.00     0.000 C
ATOM     52  C2  BDP B   4      15.251   9.363   7.6810  0.00  0.00     0.000 C
ATOM     53  C3  BDP B   4      16.018   8.133   7.3010  0.00  0.00     0.000 C
ATOM     54  C4  BDP B   4      17.408   8.143   7.9990  0.00  0.00     0.000 C
ATOM     55  C5  BDP B   4      17.303   8.422   9.4930  0.00  0.00     0.000 C
ATOM     56  O5  BDP B   4      16.482   9.562   9.7310  0.00  0.00     0.000 O
ATOM     57   O  BDP B   4      13.954   9.295   7.1280  0.00  0.00     0.000 O
ATOM     59  HD  BDP B   4      13.805  10.093   6.8250  0.00  0.00     0.000 HD
ATOM     59   O  BDP B   4      16.235   8.198   5.8760  0.00  0.00     0.000 O
ATOM     61  HD  BDP B   4      16.086   8.995   5.5730  0.00  0.00     0.000 HD
BRANCH 55 61
ATOM     61   C  BDP B   4      18.691   8.681  10.0520  0.00  0.00     0.000 C
ATOM     62   O  BDP B   4      18.915   8.362  11.2490  0.00  0.00     0.000 OA
ATOM     63   O  BDP B   4      19.559   9.204   9.2880  0.00  0.00     0.000 OA
ENDBRANCH 55 61
BRANCH 51 64
ATOM     64  O3  NAG B   5      14.379  10.593   9.5320  0.00  0.00     0.000 O
BRANCH 64 67
ATOM     65  C1  NAG B   5      12.468  10.646  12.6850  0.00  0.00     0.000 C
ATOM     66  C2  NAG B   5      12.818  10.290  11.2500  0.00  0.00     0.000 C
ATOM     67  C3  NAG B   5      14.228  10.769  10.9270  0.00  0.00     0.000 C
ATOM     68  C4  NAG B   5      14.399  12.253  11.2770  0.00  0.00     0.000 C
ATOM     69  C5  NAG B   5      13.937  12.528  12.6990  0.00  0.00     0.000 C
ATOM     70  O5  NAG B   5      12.602  12.035  12.8820  0.00  0.00     0.000 O
ATOM     71   O  NAG B   5      15.755  12.605  11.1030  0.00  0.00     0.000 O
ATOM     73  HD  NAG B   5      15.402  13.312  10.7500  0.00  0.00     0.000 HD
ATOM     73   C  NAG B   5      13.952  14.011  13.0940  0.00  0.00     0.000 C
ATOM     74   O  NAG B   5      13.010  14.739  12.2790  0.00  0.00     0.000 O
ATOM     76  HD  NAG B   5      12.656  15.446  11.9260  0.00  0.00     0.000 HD
BRANCH 66 78
ATOM     76   N  NAG B   5      12.414   8.871  11.2610  0.00  0.00     0.000 N
ATOM     78  HD  NAG B   5      12.345   9.549  10.7270  0.00  0.00     0.000 HD
ATOM     78   C  NAG B   5      11.940   8.178  10.2140  0.00  0.00     0.000 C
ATOM     79   C  NAG B   5      11.634   6.740  10.5360  0.00  0.00     0.000 C
ATOM     80   O  NAG B   5      11.757   8.693   9.0540  0.00  0.00     0.000 OA
ENDBRANCH 66 78
BRANCH 65 81
ATOM     81  O4  BDP B   6      11.125  10.239  12.9800  0.00  0.00     0.000 O
BRANCH 81 85
ATOM     82  C1  BDP B   6       8.601   9.443  16.3500  0.00  0.00     0.000 C
ATOM     83  C2  BDP B   6       9.387  10.752  16.3510  0.00  0.00     0.000 C
ATOM     84  C3  BDP B   6       9.918  11.127  14.9640  0.00  0.00     0.000 C
ATOM     85  C4  BDP B   6      10.686   9.975  14.3140  0.00  0.00     0.000 C
ATOM     86  C5  BDP B   6       9.807   8.705  14.4060  0.00  0.00     0.000 C
ATOM     87  O5  BDP B   6       9.405   8.418  15.7840  0.00  0.00     0.000 O
ATOM     88   O  BDP B   6       8.469  11.747  16.7950  0.00  0.00     0.000 O
ATOM     90  HD  BDP B   6       8.230  12.560  16.6200  0.00  0.00     0.000 HD
ATOM     90   O  BDP B   6      10.735  12.296  15.0640  0.00  0.00     0.000 O
ATOM     92  HD  BDP B   6      10.496  13.110  14.8890  0.00  0.00     0.000 HD
BRANCH 86 92
ATOM     92   C  BDP B   6      10.595   7.484  14.0000  0.00  0.00     0.000 C
ATOM     93   O  BDP B   6      11.857   7.485  14.1280  0.00  0.00     0.000 OA
ATOM     94   O  BDP B   6       9.945   6.485  13.5610  0.00  0.00     0.000 OA
ENDBRANCH 86 92
BRANCH 82 95
ATOM     95  O3  NAG B   7       8.321   9.082  17.7170  0.00  0.00     0.000 O
BRANCH 95 98
ATOM     96  C1  NAG B   7       5.403   7.713  19.4360  0.00  0.00     0.000 C
ATOM     97  C2  NAG B   7       6.540   8.696  19.1880  0.00  0.00     0.000 C
ATOM     98  C3  NAG B   7       7.295   8.128  17.9870  0.00  0.00     0.000 C
ATOM     99  C4  NAG B   7       7.823   6.735  18.3180  0.00  0.00     0.000 C
ATOM    100  C5  NAG B   7       6.695   5.825  18.8060  0.00  0.00     0.000 C
ATOM    101  O5  NAG B   7       5.997   6.479  19.8550  0.00  0.00     0.000 O
BRANCH 97 104
ATOM    102   N  NAG B   7       6.297  10.067  18.7190  0.00  0.00     0.000 N
ATOM    104  HD  NAG B   7       6.371  10.823  18.3040  0.00  0.00     0.000 HD
ATOM    104   O  NAG B   7       6.081  12.315  18.8880  0.00  0.00     0.000 OA
ATOM    105   C  NAG B   7       6.238  11.206  19.4350  0.00  0.00     0.000 C
ATOM    106   C  NAG B   7       6.378  11.139  20.9170  0.00  0.00     0.000 C
ENDBRANCH 97 104
ATOM    107   O  NAG B   7       6.169   3.617  19.4000  0.00  0.00     0.000 O
ATOM    109  HD  NAG B   7       5.885   4.329  18.9970  0.00  0.00     0.000 HD
ATOM    109   O  NAG B   7       6.169   3.617  19.4000  0.00  0.00     0.000 O
ATOM    111  HD  NAG B   7       5.885   4.329  18.9970  0.00  0.00     0.000 HD
ENDBRANCH 95 98
ENDBRANCH 82 95
ENDBRANCH 81 85
ENDBRANCH 65 81
ENDBRANCH 64 67
ENDBRANCH 51 64
ENDBRANCH 50 54
ENDBRANCH 34 50
ENDBRANCH 33 36
ENDBRANCH 20 33
ENDBRANCH 19 23
ENDBRANCH 1 19
TORSDOF 19
ENDMDL
MODEL 26
REMARK VINA RESULT:      -5.5      9.774     18.901
ROOT
ATOM      1  C1  NAG B   1      18.622   5.349   4.3350  0.00  0.00     0.000 C
ATOM      2  C2  NAG B   1      19.054   5.482   2.8770  0.00  0.00     0.000 C
ATOM      3  C3  NAG B   1      18.017   4.917   1.9280  0.00  0.00     0.000 C
ATOM      4  C4  NAG B   1      17.828   3.463   2.3490  0.00  0.00     0.000 C
ATOM      5  C5  NAG B   1      17.268   3.421   3.7760  0.00  0.00     0.000 C
ATOM      6  O5  NAG B   1      18.180   4.035   4.7110  0.00  0.00     0.000 O
ATOM      7   O  NAG B   1      18.436   5.004   0.5470  0.00  0.00     0.000 O
ATOM      9  HD  NAG B   1      18.773   5.724   0.8910  0.00  0.00     0.000 HD
ATOM      9   O  NAG B   1      16.933   2.811   1.4630  0.00  0.00     0.000 O
ATOM     11  HD  NAG B   1      17.270   3.531   1.8060  0.00  0.00     0.000 HD
ATOM     11   C  NAG B   1      16.942   1.974   4.1680  0.00  0.00     0.000 C
ATOM     12   O  NAG B   1      17.060   1.780   5.5770  0.00  0.00     0.000 O
ATOM     14  HD  NAG B   1      17.397   2.501   5.9200  0.00  0.00     0.000 HD
ENDROOT
BRANCH 2 16
ATOM     14   N  NAG B   1      20.396   6.075   2.7440  0.00  0.00     0.000 N
ATOM     16  HD  NAG B   1      21.024   6.237   2.1700  0.00  0.00     0.000 HD
ATOM     16   C  NAG B   1      20.609   7.311   2.2580  0.00  0.00     0.000 C
ATOM     17   C  NAG B   1      19.445   8.146   1.7940  0.00  0.00     0.000 C
ATOM     18   O  NAG B   1      21.741   7.791   2.2080  0.00  0.00     0.000 OA
ENDBRANCH 2 16
BRANCH 1 19
ATOM     19  O4  BDP B   2      19.828   5.576   5.0520  0.00  0.00     0.000 O
BRANCH 19 23
ATOM     20  C1  BDP B   2      17.922   7.119   8.3570  0.00  0.00     0.000 C
ATOM     21  C2  BDP B   2      18.491   8.125   7.3780  0.00  0.00     0.000 C
ATOM     22  C3  BDP B   2      18.779   7.484   6.0390  0.00  0.00     0.000 C
ATOM     23  C4  BDP B   2      19.665   6.263   6.2700  0.00  0.00     0.000 C
ATOM     24  C5  BDP B   2      18.990   5.327   7.2530  0.00  0.00     0.000 C
ATOM     25  O5  BDP B   2      18.786   5.999   8.4820  0.00  0.00     0.000 O
ATOM     26   O  BDP B   2      17.595   9.202   7.2060  0.00  0.00     0.000 O
ATOM     28  HD  BDP B   2      17.240   8.810   7.8920  0.00  0.00     0.000 HD
ATOM     28   O  BDP B   2      19.402   8.448   5.1770  0.00  0.00     0.000 O
ATOM     30  HD  BDP B   2      19.047   8.056   5.8620  0.00  0.00     0.000 HD
BRANCH 24 30
ATOM     30   C  BDP B   2      19.809   4.118   7.5310  0.00  0.00     0.000 C
ATOM     31   O  BDP B   2      21.014   4.296   7.8260  0.00  0.00     0.000 OA
ATOM     32   O  BDP B   2      19.255   2.985   7.4490  0.00  0.00     0.000 OA
ENDBRANCH 24 30
BRANCH 20 33
ATOM     33  O3  NAG B   3      17.889   7.815   9.5790  0.00  0.00     0.000 O
BRANCH 33 36
ATOM     34  C1  NAG B   3      16.172   6.524  12.6670  0.00  0.00     0.000 C
ATOM     35  C2  NAG B   3      16.344   7.286  11.3670  0.00  0.00     0.000 C
ATOM     36  C3  NAG B   3      17.675   6.934  10.6850  0.00  0.00     0.000 C
ATOM     37  C4  NAG B   3      18.816   7.107  11.6830  0.00  0.00     0.000 C
ATOM     38  C5  NAG B   3      18.500   6.371  12.9820  0.00  0.00     0.000 C
ATOM     39  O5  NAG B   3      17.270   6.834  13.5130  0.00  0.00     0.000 O
ATOM     40   O  NAG B   3      20.037   6.593  11.1280  0.00  0.00     0.000 O
ATOM     42  HD  NAG B   3      20.036   6.139  11.8650  0.00  0.00     0.000 HD
ATOM     42   C  NAG B   3      19.529   6.597  14.0860  0.00  0.00     0.000 C
ATOM     43   O  NAG B   3      19.507   7.973  14.4880  0.00  0.00     0.000 O
ATOM     45  HD  NAG B   3      19.506   7.518  15.2250  0.00  0.00     0.000 HD
BRANCH 35 47
ATOM     45   N  NAG B   3      15.403   8.264  10.8360  0.00  0.00     0.000 N
ATOM     47  HD  NAG B   3      16.171   8.612  11.0300  0.00  0.00     0.000 HD
ATOM     47   C  NAG B   3      14.553   7.988   9.8670  0.00  0.00     0.000 C
ATOM     48   C  NAG B   3      13.668   9.115   9.4240  0.00  0.00     0.000 C
ATOM     49   O  NAG B   3      14.506   6.880   9.3370  0.00  0.00     0.000 OA
ENDBRANCH 35 47
BRANCH 34 50
ATOM     50  O4  BDP B   4      14.974   7.046  13.2040  0.00  0.00     0.000 O
BRANCH 50 54
ATOM     51  C1  BDP B   4      12.289   6.489  16.2090  0.00  0.00     0.000 C
ATOM     52  C2  BDP B   4      13.735   6.194  16.5920  0.00  0.00     0.000 C
ATOM     53  C3  BDP B   4      14.636   6.784  15.5510  0.00  0.00     0.000 C
ATOM     54  C4  BDP B   4      14.236   6.248  14.1460  0.00  0.00     0.000 C
ATOM     55  C5  BDP B   4      12.743   6.379  13.8790  0.00  0.00     0.000 C
ATOM     56  O5  BDP B   4      11.994   5.861  14.9750  0.00  0.00     0.000 O
ATOM     57   O  BDP B   4      14.035   6.764  17.8480  0.00  0.00     0.000 O
ATOM     59  HD  BDP B   4      14.022   6.096  18.3990  0.00  0.00     0.000 HD
ATOM     59   O  BDP B   4      15.971   6.322  15.8400  0.00  0.00     0.000 O
ATOM     61  HD  BDP B   4      15.958   5.654  16.3910  0.00  0.00     0.000 HD
BRANCH 55 61
ATOM     61   C  BDP B   4      12.389   5.604  12.6220  0.00  0.00     0.000 C
ATOM     62   O  BDP B   4      12.418   4.346  12.6760  0.00  0.00     0.000 OA
ATOM     63   O  BDP B   4      12.080   6.258  11.5800  0.00  0.00     0.000 OA
ENDBRANCH 55 61
BRANCH 51 64
ATOM     64  O3  NAG B   5      11.454   5.966  17.2610  0.00  0.00     0.000 O
BRANCH 64 67
ATOM     65  C1  NAG B   5       8.835   8.354  18.2770  0.00  0.00     0.000 C
ATOM     66  C2  NAG B   5      10.230   7.803  18.0420  0.00  0.00     0.000 C
ATOM     67  C3  NAG B   5      10.148   6.510  17.2400  0.00  0.00     0.000 C
ATOM     68  C4  NAG B   5       9.172   5.519  17.8890  0.00  0.00     0.000 C
ATOM     69  C5  NAG B   5       7.836   6.188  18.1700  0.00  0.00     0.000 C
ATOM     70  O5  NAG B   5       8.040   7.389  18.9280  0.00  0.00     0.000 O
ATOM     71   O  NAG B   5       9.018   4.409  17.0310  0.00  0.00     0.000 O
ATOM     73  HD  NAG B   5       9.067   3.977  17.7800  0.00  0.00     0.000 HD
ATOM     73   C  NAG B   5       6.837   5.308  18.9360  0.00  0.00     0.000 C
ATOM     74   O  NAG B   5       7.359   5.015  20.2490  0.00  0.00     0.000 O
ATOM     76  HD  NAG B   5       7.408   4.583  20.9980  0.00  0.00     0.000 HD
BRANCH 66 78
ATOM     76   N  NAG B   5      11.008   8.829  17.3220  0.00  0.00     0.000 N
ATOM     78  HD  NAG B   5      11.013   8.459  18.1040  0.00  0.00     0.000 HD
ATOM     78   C  NAG B   5      12.175   9.360  17.7210  0.00  0.00     0.000 C
ATOM     79   C  NAG B   5      12.733  10.374  16.7590  0.00  0.00     0.000 C
ATOM     80   O  NAG B   5      12.753   9.040  18.8200  0.00  0.00     0.000 OA
ENDBRANCH 66 78
BRANCH 65 81
ATOM     81  O4  BDP B   6       8.903   9.546  19.0710  0.00  0.00     0.000 O
BRANCH 81 85
ATOM     82  C1  BDP B   6       6.789  13.221  19.6910  0.00  0.00     0.000 C
ATOM     83  C2  BDP B   6       6.009  11.921  19.8640  0.00  0.00     0.000 C
ATOM     84  C3  BDP B   6       6.917  10.699  20.0270  0.00  0.00     0.000 C
ATOM     85  C4  BDP B   6       7.968  10.616  18.9180  0.00  0.00     0.000 C
ATOM     86  C5  BDP B   6       8.662  11.995  18.8160  0.00  0.00     0.000 C
ATOM     87  O5  BDP B   6       7.698  13.077  18.6090  0.00  0.00     0.000 O
ATOM     88   O  BDP B   6       5.232  12.098  21.0450  0.00  0.00     0.000 O
ATOM     90  HD  BDP B   6       4.987  11.665  21.7540  0.00  0.00     0.000 HD
ATOM     90   O  BDP B   6       6.121   9.512  20.0680  0.00  0.00     0.000 O
ATOM     92  HD  BDP B   6       5.877   9.079  20.7770  0.00  0.00     0.000 HD
BRANCH 86 92
ATOM     92   C  BDP B   6       9.541  12.057  17.5900  0.00  0.00     0.000 C
ATOM     93   O  BDP B   6      10.545  12.831  17.5800  0.00  0.00     0.000 OA
ATOM     94   O  BDP B   6       9.240  11.300  16.6150  0.00  0.00     0.000 OA
ENDBRANCH 86 92
BRANCH 82 95
ATOM     95  O3  NAG B   7       5.858  14.267  19.3500  0.00  0.00     0.000 O
BRANCH 95 98
ATOM     96  C1  NAG B   7       5.465  17.740  20.4110  0.00  0.00     0.000 C
ATOM     97  C2  NAG B   7       5.029  16.302  20.1590  0.00  0.00     0.000 C
ATOM     98  C3  NAG B   7       6.246  15.628  19.5270  0.00  0.00     0.000 C
ATOM     99  C4  NAG B   7       6.615  16.337  18.2260  0.00  0.00     0.000 C
ATOM    100  C5  NAG B   7       6.808  17.836  18.4570  0.00  0.00     0.000 C
ATOM    101  O5  NAG B   7       5.669  18.349  19.1310  0.00  0.00     0.000 O
BRANCH 97 104
ATOM    102   N  NAG B   7       4.753  15.379  21.2680  0.00  0.00     0.000 N
ATOM    104  HD  NAG B   7       4.717  14.668  21.7610  0.00  0.00     0.000 HD
ATOM    104   O  NAG B   7       3.483  14.163  22.6950  0.00  0.00     0.000 OA
ATOM    105   C  NAG B   7       3.565  15.010  21.7830  0.00  0.00     0.000 C
ATOM    106   C  NAG B   7       2.318  15.619  21.2400  0.00  0.00     0.000 C
ENDBRANCH 97 104
ATOM    107   O  NAG B   7       7.503  19.833  17.4390  0.00  0.00     0.000 O
ATOM    109  HD  NAG B   7       7.515  19.369  18.1700  0.00  0.00     0.000 HD
ATOM    109   O  NAG B   7       7.503  19.833  17.4390  0.00  0.00     0.000 O
ATOM    111  HD  NAG B   7       7.515  19.369  18.1700  0.00  0.00     0.000 HD
ENDBRANCH 95 98
ENDBRANCH 82 95
ENDBRANCH 81 85
ENDBRANCH 65 81
ENDBRANCH 64 67
ENDBRANCH 51 64
ENDBRANCH 50 54
ENDBRANCH 34 50
ENDBRANCH 33 36
ENDBRANCH 20 33
ENDBRANCH 19 23
ENDBRANCH 1 19
TORSDOF 19
ENDMDL
MODEL 27
REMARK VINA RESULT:      -5.4      9.202     18.211
ROOT
ATOM      1  C1  NAG B   1      26.280   5.784   8.0330  0.00  0.00     0.000 C
ATOM      2  C2  NAG B   1      27.635   5.183   8.3960  0.00  0.00     0.000 C
ATOM      3  C3  NAG B   1      28.290   5.921   9.5450  0.00  0.00     0.000 C
ATOM      4  C4  NAG B   1      28.402   7.372   9.0880  0.00  0.00     0.000 C
ATOM      5  C5  NAG B   1      26.993   7.941   8.8730  0.00  0.00     0.000 C
ATOM      6  O5  NAG B   1      26.287   7.209   7.8490  0.00  0.00     0.000 O
ATOM      7   O  NAG B   1      29.592   5.381   9.8690  0.00  0.00     0.000 O
ATOM      9  HD  NAG B   1      29.150   4.675   9.6330  0.00  0.00     0.000 HD
ATOM      9   O  NAG B   1      29.086   8.140  10.0640  0.00  0.00     0.000 O
ATOM     11  HD  NAG B   1      28.644   7.433   9.8280  0.00  0.00     0.000 HD
ATOM     11   C  NAG B   1      27.077   9.437   8.5460  0.00  0.00     0.000 C
ATOM     12   O  NAG B   1      25.983   9.851   7.7310  0.00  0.00     0.000 O
ATOM     14  HD  NAG B   1      25.541   9.144   7.4950  0.00  0.00     0.000 HD
ENDROOT
BRANCH 2 16
ATOM     14   N  NAG B   1      27.996   4.066   7.5050  0.00  0.00     0.000 N
ATOM     16  HD  NAG B   1      28.650   3.541   7.2880  0.00  0.00     0.000 HD
ATOM     16   C  NAG B   1      28.041   2.786   7.9130  0.00  0.00     0.000 C
ATOM     17   C  NAG B   1      27.739   2.443   9.3480  0.00  0.00     0.000 C
ATOM     18   O  NAG B   1      28.298   1.874   7.1270  0.00  0.00     0.000 OA
ENDBRANCH 2 16
BRANCH 1 19
ATOM     19  O4  BDP B   2      26.009   5.225   6.7550  0.00  0.00     0.000 O
BRANCH 19 23
ATOM     20  C1  BDP B   2      21.921   5.517   7.1280  0.00  0.00     0.000 C
ATOM     21  C2  BDP B   2      22.539   4.189   7.5140  0.00  0.00     0.000 C
ATOM     22  C3  BDP B   2      24.028   4.323   7.7410  0.00  0.00     0.000 C
ATOM     23  C4  BDP B   2      24.649   4.967   6.5050  0.00  0.00     0.000 C
ATOM     24  C5  BDP B   2      23.960   6.289   6.2250  0.00  0.00     0.000 C
ATOM     25  O5  BDP B   2      22.582   6.066   5.9970  0.00  0.00     0.000 O
ATOM     26   O  BDP B   2      21.924   3.683   8.6790  0.00  0.00     0.000 O
ATOM     28  HD  BDP B   2      21.380   4.327   8.4810  0.00  0.00     0.000 HD
ATOM     28   O  BDP B   2      24.584   3.027   8.0120  0.00  0.00     0.000 O
ATOM     30  HD  BDP B   2      24.040   3.671   7.8140  0.00  0.00     0.000 HD
BRANCH 24 30
ATOM     30   C  BDP B   2      24.512   6.966   5.0220  0.00  0.00     0.000 C
ATOM     31   O  BDP B   2      24.538   6.310   3.9550  0.00  0.00     0.000 OA
ATOM     32   O  BDP B   2      24.929   8.153   5.1380  0.00  0.00     0.000 OA
ENDBRANCH 24 30
BRANCH 20 33
ATOM     33  O3  NAG B   3      20.599   5.187   6.7770  0.00  0.00     0.000 O
BRANCH 33 36
ATOM     34  C1  NAG B   3      17.810   7.655   7.3090  0.00  0.00     0.000 C
ATOM     35  C2  NAG B   3      18.802   6.558   7.6460  0.00  0.00     0.000 C
ATOM     36  C3  NAG B   3      19.816   6.354   6.5090  0.00  0.00     0.000 C
ATOM     37  C4  NAG B   3      19.068   6.156   5.1940  0.00  0.00     0.000 C
ATOM     38  C5  NAG B   3      18.039   7.266   4.9980  0.00  0.00     0.000 C
ATOM     39  O5  NAG B   3      17.150   7.301   6.1020  0.00  0.00     0.000 O
ATOM     40   O  NAG B   3      19.994   6.164   4.0960  0.00  0.00     0.000 O
ATOM     42  HD  NAG B   3      19.458   6.781   3.8090  0.00  0.00     0.000 HD
ATOM     42   C  NAG B   3      17.153   7.077   3.7700  0.00  0.00     0.000 C
ATOM     43   O  NAG B   3      16.335   5.913   3.9430  0.00  0.00     0.000 O
ATOM     45  HD  NAG B   3      15.799   6.530   3.6570  0.00  0.00     0.000 HD
BRANCH 35 47
ATOM     45   N  NAG B   3      18.795   5.754   8.8610  0.00  0.00     0.000 N
ATOM     47  HD  NAG B   3      18.667   5.281   8.1470  0.00  0.00     0.000 HD
ATOM     47   C  NAG B   3      19.603   5.983   9.8770  0.00  0.00     0.000 C
ATOM     48   C  NAG B   3      19.479   5.047  11.0430  0.00  0.00     0.000 C
ATOM     49   O  NAG B   3      20.428   6.893   9.8610  0.00  0.00     0.000 OA
ENDBRANCH 35 47
BRANCH 34 50
ATOM     50  O4  BDP B   4      16.903   7.629   8.3910  0.00  0.00     0.000 O
BRANCH 50 54
ATOM     51  C1  BDP B   4      14.306   9.908  10.5400  0.00  0.00     0.000 C
ATOM     52  C2  BDP B   4      14.189  10.070   9.0290  0.00  0.00     0.000 C
ATOM     53  C3  BDP B   4      14.908   8.935   8.3670  0.00  0.00     0.000 C
ATOM     54  C4  BDP B   4      16.376   8.874   8.8790  0.00  0.00     0.000 C
ATOM     55  C5  BDP B   4      16.462   8.915  10.3980  0.00  0.00     0.000 C
ATOM     56  O5  BDP B   4      15.670   9.982  10.9130  0.00  0.00     0.000 O
ATOM     57   O  BDP B   4      12.832  10.055   8.6380  0.00  0.00     0.000 O
ATOM     59  HD  BDP B   4      12.639  10.885   8.4850  0.00  0.00     0.000 HD
ATOM     59   O  BDP B   4      14.941   9.226   6.9540  0.00  0.00     0.000 O
ATOM     61  HD  BDP B   4      14.749  10.056   6.8010  0.00  0.00     0.000 HD
BRANCH 55 61
ATOM     61   C  BDP B   4      17.908   9.121  10.8130  0.00  0.00     0.000 C
ATOM     62   O  BDP B   4      18.303   8.568  11.8720  0.00  0.00     0.000 OA
ATOM     63   O  BDP B   4      18.649   9.838  10.0730  0.00  0.00     0.000 OA
ENDBRANCH 55 61
BRANCH 51 64
ATOM     64  O3  NAG B   5      13.552  10.976  11.1440  0.00  0.00     0.000 O
BRANCH 64 67
ATOM     65  C1  NAG B   5      11.618  10.280  14.2060  0.00  0.00     0.000 C
ATOM     66  C2  NAG B   5      11.976  10.281  12.7300  0.00  0.00     0.000 C
ATOM     67  C3  NAG B   5      13.393  10.807  12.5390  0.00  0.00     0.000 C
ATOM     68  C4  NAG B   5      13.577  12.160  13.2410  0.00  0.00     0.000 C
ATOM     69  C5  NAG B   5      13.107  12.084  14.6860  0.00  0.00     0.000 C
ATOM     70  O5  NAG B   5      11.766  11.577  14.7370  0.00  0.00     0.000 O
ATOM     71   O  NAG B   5      14.938  12.526  13.1650  0.00  0.00     0.000 O
ATOM     73  HD  NAG B   5      14.595  13.303  12.9940  0.00  0.00     0.000 HD
ATOM     73   C  NAG B   5      13.136  13.426  15.4310  0.00  0.00     0.000 C
ATOM     74   O  NAG B   5      12.207  14.342  14.8140  0.00  0.00     0.000 O
ATOM     76  HD  NAG B   5      11.863  15.118  14.6430  0.00  0.00     0.000 HD
BRANCH 66 78
ATOM     76   N  NAG B   5      11.661   8.890  12.3500  0.00  0.00     0.000 N
ATOM     78  HD  NAG B   5      11.476   9.686  12.0630  0.00  0.00     0.000 HD
ATOM     78   C  NAG B   5      11.083   8.496  11.2050  0.00  0.00     0.000 C
ATOM     79   C  NAG B   5      10.910   7.005  11.1020  0.00  0.00     0.000 C
ATOM     80   O  NAG B   5      10.706   9.313  10.2900  0.00  0.00     0.000 OA
ENDBRANCH 66 78
BRANCH 65 81
ATOM     81  O4  BDP B   6      10.270   9.830  14.3860  0.00  0.00     0.000 O
BRANCH 81 85
ATOM     82  C1  BDP B   6       7.717   8.262  17.4510  0.00  0.00     0.000 C
ATOM     83  C2  BDP B   6       7.959   9.769  17.4370  0.00  0.00     0.000 C
ATOM     84  C3  BDP B   6       8.526  10.268  16.1050  0.00  0.00     0.000 C
ATOM     85  C4  BDP B   6       9.754   9.467  15.6690  0.00  0.00     0.000 C
ATOM     86  C5  BDP B   6       9.398   7.964  15.7580  0.00  0.00     0.000 C
ATOM     87  O5  BDP B   6       8.919   7.595  17.0910  0.00  0.00     0.000 O
ATOM     88   O  BDP B   6       6.683  10.361  17.6640  0.00  0.00     0.000 O
ATOM     90  HD  BDP B   6       6.194  11.019  17.3860  0.00  0.00     0.000 HD
ATOM     90   O  BDP B   6       8.832  11.661  16.2060  0.00  0.00     0.000 O
ATOM     92  HD  BDP B   6       8.342  12.319  15.9280  0.00  0.00     0.000 HD
BRANCH 86 92
ATOM     92   C  BDP B   6      10.632   7.115  15.5720  0.00  0.00     0.000 C
ATOM     93   O  BDP B   6      11.446   6.978  16.5350  0.00  0.00     0.000 OA
ATOM     94   O  BDP B   6      10.790   6.548  14.4460  0.00  0.00     0.000 OA
ENDBRANCH 86 92
BRANCH 82 95
ATOM     95  O3  NAG B   7       7.378   7.869  18.7950  0.00  0.00     0.000 O
BRANCH 95 98
ATOM     96  C1  NAG B   7       4.636   6.083  20.4170  0.00  0.00     0.000 C
ATOM     97  C2  NAG B   7       5.665   7.192  20.2410  0.00  0.00     0.000 C
ATOM     98  C3  NAG B   7       6.457   6.798  18.9960  0.00  0.00     0.000 C
ATOM     99  C4  NAG B   7       7.127   5.444  19.2130  0.00  0.00     0.000 C
ATOM    100  C5  NAG B   7       6.103   4.389  19.6340  0.00  0.00     0.000 C
ATOM    101  O5  NAG B   7       5.357   4.886  20.7340  0.00  0.00     0.000 O
BRANCH 97 104
ATOM    102   N  NAG B   7       5.150   8.534  19.9370  0.00  0.00     0.000 N
ATOM    104  HD  NAG B   7       4.996   9.290  19.5440  0.00  0.00     0.000 HD
ATOM    104   O  NAG B   7       4.841  10.759  20.2290  0.00  0.00     0.000 OA
ATOM    105   C  NAG B   7       5.287   9.671  20.6450  0.00  0.00     0.000 C
ATOM    106   C  NAG B   7       6.002   9.629  21.9530  0.00  0.00     0.000 C
ENDBRANCH 97 104
ATOM    107   O  NAG B   7       5.809   2.100  20.0550  0.00  0.00     0.000 O
ATOM    109  HD  NAG B   7       5.449   2.809  19.7110  0.00  0.00     0.000 HD
ATOM    109   O  NAG B   7       5.809   2.100  20.0550  0.00  0.00     0.000 O
ATOM    111  HD  NAG B   7       5.449   2.809  19.7110  0.00  0.00     0.000 HD
ENDBRANCH 95 98
ENDBRANCH 82 95
ENDBRANCH 81 85
ENDBRANCH 65 81
ENDBRANCH 64 67
ENDBRANCH 51 64
ENDBRANCH 50 54
ENDBRANCH 34 50
ENDBRANCH 33 36
ENDBRANCH 20 33
ENDBRANCH 19 23
ENDBRANCH 1 19
TORSDOF 19
ENDMDL
MODEL 28
REMARK VINA RESULT:      -5.4      7.444     18.564
ROOT
ATOM      1  C1  NAG B   1      12.092   4.536  16.1190  0.00  0.00     0.000 C
ATOM      2  C2  NAG B   1      11.494   3.466  17.0290  0.00  0.00     0.000 C
ATOM      3  C3  NAG B   1      11.241   3.992  18.4270  0.00  0.00     0.000 C
ATOM      4  C4  NAG B   1      12.593   4.492  18.9260  0.00  0.00     0.000 C
ATOM      5  C5  NAG B   1      13.060   5.652  18.0380  0.00  0.00     0.000 C
ATOM      6  O5  NAG B   1      13.226   5.225  16.6690  0.00  0.00     0.000 O
ATOM      7   O  NAG B   1      10.711   2.973  19.3050  0.00  0.00     0.000 O
ATOM      9  HD  NAG B   1      10.353   2.767  18.5440  0.00  0.00     0.000 HD
ATOM      9   O  NAG B   1      12.485   4.929  20.2700  0.00  0.00     0.000 O
ATOM     11  HD  NAG B   1      12.127   4.724  19.5090  0.00  0.00     0.000 HD
ATOM     11   C  NAG B   1      14.350   6.258  18.6040  0.00  0.00     0.000 C
ATOM     12   O  NAG B   1      15.152   6.827  17.5700  0.00  0.00     0.000 O
ATOM     14  HD  NAG B   1      14.794   6.621  16.8090  0.00  0.00     0.000 HD
ENDROOT
BRANCH 2 16
ATOM     14   N  NAG B   1      10.237   2.861  16.5550  0.00  0.00     0.000 N
ATOM     16  HD  NAG B   1       9.772   2.707  15.8410  0.00  0.00     0.000 HD
ATOM     16   C  NAG B   1      10.172   1.636  16.0050  0.00  0.00     0.000 C
ATOM     17   C  NAG B   1      11.428   0.827  15.8240  0.00  0.00     0.000 C
ATOM     18   O  NAG B   1       9.096   1.145  15.6670  0.00  0.00     0.000 OA
ENDBRANCH 2 16
BRANCH 1 19
ATOM     19  O4  BDP B   2      12.586   3.786  15.0180  0.00  0.00     0.000 O
BRANCH 19 23
ATOM     20  C1  BDP B   2      12.482   6.944  12.3810  0.00  0.00     0.000 C
ATOM     21  C2  BDP B   2      11.261   6.048  12.4060  0.00  0.00     0.000 C
ATOM     22  C3  BDP B   2      11.224   5.208  13.6620  0.00  0.00     0.000 C
ATOM     23  C4  BDP B   2      12.550   4.463  13.7840  0.00  0.00     0.000 C
ATOM     24  C5  BDP B   2      13.692   5.460  13.7600  0.00  0.00     0.000 C
ATOM     25  O5  BDP B   2      13.668   6.179  12.5410  0.00  0.00     0.000 O
ATOM     26   O  BDP B   2      10.084   6.821  12.3150  0.00  0.00     0.000 O
ATOM     28  HD  BDP B   2      10.680   7.419  12.1210  0.00  0.00     0.000 HD
ATOM     28   O  BDP B   2      10.105   4.310  13.5980  0.00  0.00     0.000 O
ATOM     30  HD  BDP B   2      10.701   4.907  13.4030  0.00  0.00     0.000 HD
BRANCH 24 30
ATOM     30   C  BDP B   2      15.019   4.797  13.8640  0.00  0.00     0.000 C
ATOM     31   O  BDP B   2      15.321   3.973  12.9710  0.00  0.00     0.000 OA
ATOM     32   O  BDP B   2      15.762   5.090  14.8440  0.00  0.00     0.000 OA
ENDBRANCH 24 30
BRANCH 20 33
ATOM     33  O3  NAG B   3      12.466   7.506  11.0910  0.00  0.00     0.000 O
BRANCH 33 36
ATOM     34  C1  NAG B   3      13.787  10.960  10.4010  0.00  0.00     0.000 C
ATOM     35  C2  NAG B   3      12.783   9.885  10.7730  0.00  0.00     0.000 C
ATOM     36  C3  NAG B   3      13.464   8.518  10.9420  0.00  0.00     0.000 C
ATOM     37  C4  NAG B   3      14.298   8.212   9.7010  0.00  0.00     0.000 C
ATOM     38  C5  NAG B   3      15.208   9.391   9.3700  0.00  0.00     0.000 C
ATOM     39  O5  NAG B   3      14.434  10.566   9.1990  0.00  0.00     0.000 O
ATOM     40   O  NAG B   3      15.097   7.039   9.9230  0.00  0.00     0.000 O
ATOM     42  HD  NAG B   3      15.732   7.579   9.6880  0.00  0.00     0.000 HD
ATOM     42   C  NAG B   3      15.985   9.224   8.0660  0.00  0.00     0.000 C
ATOM     43   O  NAG B   3      15.072   9.209   6.9630  0.00  0.00     0.000 O
ATOM     45  HD  NAG B   3      15.707   9.748   6.7270  0.00  0.00     0.000 HD
BRANCH 35 47
ATOM     45   N  NAG B   3      12.062  10.306  11.9670  0.00  0.00     0.000 N
ATOM     47  HD  NAG B   3      12.722  10.832  11.7740  0.00  0.00     0.000 HD
ATOM     47   C  NAG B   3      10.752  10.211  12.0840  0.00  0.00     0.000 C
ATOM     48   C  NAG B   3      10.166  10.709  13.3720  0.00  0.00     0.000 C
ATOM     49   O  NAG B   3      10.048   9.766  11.1800  0.00  0.00     0.000 OA
ENDBRANCH 35 47
BRANCH 34 50
ATOM     50  O4  BDP B   4      12.987  12.102  10.1770  0.00  0.00     0.000 O
BRANCH 50 54
ATOM     51  C1  BDP B   4      12.891  16.159  10.4620  0.00  0.00     0.000 C
ATOM     52  C2  BDP B   4      13.549  15.630   9.1920  0.00  0.00     0.000 C
ATOM     53  C3  BDP B   4      13.190  14.185   9.0330  0.00  0.00     0.000 C
ATOM     54  C4  BDP B   4      13.586  13.401  10.3180  0.00  0.00     0.000 C
ATOM     55  C5  BDP B   4      13.077  14.073  11.5860  0.00  0.00     0.000 C
ATOM     56  O5  BDP B   4      13.405  15.460  11.5800  0.00  0.00     0.000 O
ATOM     57   O  BDP B   4      13.093  16.351   8.0670  0.00  0.00     0.000 O
ATOM     59  HD  BDP B   4      13.744  16.889   7.8740  0.00  0.00     0.000 HD
ATOM     59   O  BDP B   4      13.980  13.674   7.9400  0.00  0.00     0.000 O
ATOM     61  HD  BDP B   4      14.631  14.211   7.7460  0.00  0.00     0.000 HD
BRANCH 55 61
ATOM     61   C  BDP B   4      13.718  13.413  12.7940  0.00  0.00     0.000 C
ATOM     62   O  BDP B   4      14.975  13.412  12.8690  0.00  0.00     0.000 OA
ATOM     63   O  BDP B   4      12.959  12.898  13.6700  0.00  0.00     0.000 OA
ENDBRANCH 55 61
BRANCH 51 64
ATOM     64  O3  NAG B   5      13.202  17.563  10.5500  0.00  0.00     0.000 O
BRANCH 64 67
ATOM     65  C1  NAG B   5      10.857  20.308  11.2990  0.00  0.00     0.000 C
ATOM     66  C2  NAG B   5      11.683  19.342  10.4670  0.00  0.00     0.000 C
ATOM     67  C3  NAG B   5      12.289  18.272  11.3660  0.00  0.00     0.000 C
ATOM     68  C4  NAG B   5      13.042  18.903  12.5450  0.00  0.00     0.000 C
ATOM     69  C5  NAG B   5      12.166  19.922  13.2580  0.00  0.00     0.000 C
ATOM     70  O5  NAG B   5      11.655  20.874  12.3130  0.00  0.00     0.000 O
ATOM     71   O  NAG B   5      13.450  17.876  13.4220  0.00  0.00     0.000 O
ATOM     73  HD  NAG B   5      14.177  18.347  13.4410  0.00  0.00     0.000 HD
ATOM     73   C  NAG B   5      12.880  20.697  14.3740  0.00  0.00     0.000 C
ATOM     74   O  NAG B   5      13.942  21.493  13.8080  0.00  0.00     0.000 O
ATOM     76  HD  NAG B   5      14.668  21.964  13.8260  0.00  0.00     0.000 HD
BRANCH 66 78
ATOM     76   N  NAG B   5      10.744  18.852   9.4400  0.00  0.00     0.000 N
ATOM     78  HD  NAG B   5      11.505  19.266   9.4620  0.00  0.00     0.000 HD
ATOM     78   C  NAG B   5      10.989  18.770   8.1220  0.00  0.00     0.000 C
ATOM     79   C  NAG B   5       9.837  18.209   7.3320  0.00  0.00     0.000 C
ATOM     80   O  NAG B   5      12.094  19.142   7.5880  0.00  0.00     0.000 OA
ENDBRANCH 66 78
BRANCH 65 81
ATOM     81  O4  BDP B   6      10.322  21.344  10.4650  0.00  0.00     0.000 O
BRANCH 81 85
ATOM     82  C1  BDP B   6       6.882  23.883  10.1730  0.00  0.00     0.000 C
ATOM     83  C2  BDP B   6       7.930  24.234  11.2250  0.00  0.00     0.000 C
ATOM     84  C3  BDP B   6       9.273  23.540  10.9820  0.00  0.00     0.000 C
ATOM     85  C4  BDP B   6       9.110  22.031  10.7880  0.00  0.00     0.000 C
ATOM     86  C5  BDP B   6       8.004  21.803   9.7310  0.00  0.00     0.000 C
ATOM     87  O5  BDP B   6       6.753  22.470  10.0980  0.00  0.00     0.000 O
ATOM     88   O  BDP B   6       8.101  25.646  11.1360  0.00  0.00     0.000 O
ATOM     90  HD  BDP B   6       8.726  26.245  11.1460  0.00  0.00     0.000 HD
ATOM     90   O  BDP B   6      10.163  23.824  12.0640  0.00  0.00     0.000 O
ATOM     92  HD  BDP B   6      10.789  24.423  12.0740  0.00  0.00     0.000 HD
BRANCH 86 92
ATOM     92   C  BDP B   6       7.626  20.343   9.6640  0.00  0.00     0.000 C
ATOM     93   O  BDP B   6       7.708  19.629  10.7090  0.00  0.00     0.000 OA
ATOM     94   O  BDP B   6       7.215  19.894   8.5500  0.00  0.00     0.000 OA
ENDBRANCH 86 92
BRANCH 82 95
ATOM     95  O3  NAG B   7       5.615  24.421  10.5980  0.00  0.00     0.000 O
BRANCH 95 98
ATOM     96  C1  NAG B   7       2.952  26.577   9.3340  0.00  0.00     0.000 C
ATOM     97  C2  NAG B   7       3.858  25.954  10.3880  0.00  0.00     0.000 C
ATOM     98  C3  NAG B   7       4.724  24.957   9.6210  0.00  0.00     0.000 C
ATOM     99  C4  NAG B   7       3.839  23.907   8.9540  0.00  0.00     0.000 C
ATOM    100  C5  NAG B   7       2.768  24.568   8.0850  0.00  0.00     0.000 C
ATOM    101  O5  NAG B   7       2.084  25.542   8.8590  0.00  0.00     0.000 O
BRANCH 97 104
ATOM    102   N  NAG B   7       4.851  26.810  11.0510  0.00  0.00     0.000 N
ATOM    104  HD  NAG B   7       5.597  27.120  11.3630  0.00  0.00     0.000 HD
ATOM    104   O  NAG B   7       5.845  27.892  12.7750  0.00  0.00     0.000 OA
ATOM    105   C  NAG B   7       4.899  27.208  12.3370  0.00  0.00     0.000 C
ATOM    106   C  NAG B   7       3.799  26.809  13.2610  0.00  0.00     0.000 C
ENDBRANCH 97 104
ATOM    107   O  NAG B   7       1.064  24.139   6.5310  0.00  0.00     0.000 O
ATOM    109  HD  NAG B   7       1.712  24.674   6.7420  0.00  0.00     0.000 HD
ATOM    109   O  NAG B   7       1.064  24.139   6.5310  0.00  0.00     0.000 O
ATOM    111  HD  NAG B   7       1.712  24.674   6.7420  0.00  0.00     0.000 HD
ENDBRANCH 95 98
ENDBRANCH 82 95
ENDBRANCH 81 85
ENDBRANCH 65 81
ENDBRANCH 64 67
ENDBRANCH 51 64
ENDBRANCH 50 54
ENDBRANCH 34 50
ENDBRANCH 33 36
ENDBRANCH 20 33
ENDBRANCH 19 23
ENDBRANCH 1 19
TORSDOF 19
ENDMDL
MODEL 29
REMARK VINA RESULT:      -5.4     10.959     14.202
ROOT
ATOM      1  C1  NAG B   1       7.646  14.340  25.1550  0.00  0.00     0.000 C
ATOM      2  C2  NAG B   1       8.296  15.648  25.5970  0.00  0.00     0.000 C
ATOM      3  C3  NAG B   1       7.321  16.542  26.3350  0.00  0.00     0.000 C
ATOM      4  C4  NAG B   1       6.162  16.767  25.3680  0.00  0.00     0.000 C
ATOM      5  C5  NAG B   1       5.481  15.423  25.0790  0.00  0.00     0.000 C
ATOM      6  O5  NAG B   1       6.399  14.497  24.4590  0.00  0.00     0.000 O
ATOM      7   O  NAG B   1       7.920  17.800  26.7220  0.00  0.00     0.000 O
ATOM      9  HD  NAG B   1       8.581  17.246  26.8010  0.00  0.00     0.000 HD
ATOM      9   O  NAG B   1       5.225  17.669  25.9320  0.00  0.00     0.000 O
ATOM     11  HD  NAG B   1       5.886  17.115  26.0110  0.00  0.00     0.000 HD
ATOM     11   C  NAG B   1       4.230  15.644  24.2190  0.00  0.00     0.000 C
ATOM     12   O  NAG B   1       3.954  14.507  23.4040  0.00  0.00     0.000 O
ATOM     14  HD  NAG B   1       4.615  13.953  23.4830  0.00  0.00     0.000 HD
ENDROOT
BRANCH 2 16
ATOM     14   N  NAG B   1       9.509  15.283  26.3510  0.00  0.00     0.000 N
ATOM     16  HD  NAG B   1      10.183  14.739  26.3510  0.00  0.00     0.000 HD
ATOM     16   C  NAG B   1      10.742  15.684  25.9970  0.00  0.00     0.000 C
ATOM     17   C  NAG B   1      10.934  16.524  24.7620  0.00  0.00     0.000 C
ATOM     18   O  NAG B   1      11.726  15.401  26.6800  0.00  0.00     0.000 OA
ENDBRANCH 2 16
BRANCH 1 19
ATOM     19  O4  BDP B   2       8.565  13.828  24.1990  0.00  0.00     0.000 O
BRANCH 19 23
ATOM     20  C1  BDP B   2       8.377  12.635  20.2640  0.00  0.00     0.000 C
ATOM     21  C2  BDP B   2       8.245  14.121  20.5240  0.00  0.00     0.000 C
ATOM     22  C3  BDP B   2       8.739  14.482  21.9060  0.00  0.00     0.000 C
ATOM     23  C4  BDP B   2       8.017  13.602  22.9230  0.00  0.00     0.000 C
ATOM     24  C5  BDP B   2       8.229  12.143  22.5680  0.00  0.00     0.000 C
ATOM     25  O5  BDP B   2       7.713  11.890  21.2760  0.00  0.00     0.000 O
ATOM     26   O  BDP B   2       8.965  14.853  19.5550  0.00  0.00     0.000 O
ATOM     28  HD  BDP B   2       8.981  14.063  19.2000  0.00  0.00     0.000 HD
ATOM     28   O  BDP B   2       8.508  15.880  22.1420  0.00  0.00     0.000 O
ATOM     30  HD  BDP B   2       8.524  15.090  21.7860  0.00  0.00     0.000 HD
BRANCH 24 30
ATOM     30   C  BDP B   2       7.540  11.228  23.5150  0.00  0.00     0.000 C
ATOM     31   O  BDP B   2       8.257  10.464  24.2010  0.00  0.00     0.000 OA
ATOM     32   O  BDP B   2       6.277  11.263  23.5740  0.00  0.00     0.000 OA
ENDBRANCH 24 30
BRANCH 20 33
ATOM     33  O3  NAG B   3       7.714  12.443  19.0380  0.00  0.00     0.000 O
BRANCH 33 36
ATOM     34  C1  NAG B   3       8.714   9.676  16.6940  0.00  0.00     0.000 C
ATOM     35  C2  NAG B   3       8.732  11.048  17.3410  0.00  0.00     0.000 C
ATOM     36  C3  NAG B   3       7.827  11.093  18.5820  0.00  0.00     0.000 C
ATOM     37  C4  NAG B   3       6.437  10.579  18.2120  0.00  0.00     0.000 C
ATOM     38  C5  NAG B   3       6.543   9.237  17.4930  0.00  0.00     0.000 C
ATOM     39  O5  NAG B   3       7.371   9.365  16.3500  0.00  0.00     0.000 O
ATOM     40   O  NAG B   3       5.640  10.424  19.3970  0.00  0.00     0.000 O
ATOM     42  HD  NAG B   3       5.548   9.623  19.0810  0.00  0.00     0.000 HD
ATOM     42   C  NAG B   3       5.209   8.709  16.9710  0.00  0.00     0.000 C
ATOM     43   O  NAG B   3       4.718   9.581  15.9450  0.00  0.00     0.000 O
ATOM     45  HD  NAG B   3       4.626   8.780  15.6300  0.00  0.00     0.000 HD
BRANCH 35 47
ATOM     45   N  NAG B   3       9.477  12.194  16.8360  0.00  0.00     0.000 N
ATOM     47  HD  NAG B   3       8.620  12.316  16.8120  0.00  0.00     0.000 HD
ATOM     47   C  NAG B   3      10.615  12.599  17.3640  0.00  0.00     0.000 C
ATOM     48   C  NAG B   3      11.242  13.808  16.7360  0.00  0.00     0.000 C
ATOM     49   O  NAG B   3      11.120  12.036  18.3330  0.00  0.00     0.000 OA
ENDBRANCH 35 47
BRANCH 34 50
ATOM     50  O4  BDP B   4       9.494   9.846  15.5290  0.00  0.00     0.000 O
BRANCH 50 54
ATOM     51  C1  BDP B   4      12.151   8.055  13.0230  0.00  0.00     0.000 C
ATOM     52  C2  BDP B   4      10.741   7.478  12.9660  0.00  0.00     0.000 C
ATOM     53  C3  BDP B   4       9.803   8.439  13.6280  0.00  0.00     0.000 C
ATOM     54  C4  BDP B   4      10.297   8.745  15.0710  0.00  0.00     0.000 C
ATOM     55  C5  BDP B   4      11.771   9.127  15.1100  0.00  0.00     0.000 C
ATOM     56  O5  BDP B   4      12.548   8.186  14.3750  0.00  0.00     0.000 O
ATOM     57   O  BDP B   4      10.344   7.286  11.6240  0.00  0.00     0.000 O
ATOM     59  HD  BDP B   4      10.423   6.433  11.4940  0.00  0.00     0.000 HD
ATOM     59   O  BDP B   4       8.525   7.777  13.7270  0.00  0.00     0.000 O
ATOM     61  HD  BDP B   4       8.603   6.925  13.5960  0.00  0.00     0.000 HD
BRANCH 55 61
ATOM     61   C  BDP B   4      12.245   9.149  16.5520  0.00  0.00     0.000 C
ATOM     62   O  BDP B   4      13.084  10.026  16.8840  0.00  0.00     0.000 OA
ATOM     63   O  BDP B   4      11.772   8.286  17.3530  0.00  0.00     0.000 OA
ENDBRANCH 55 61
BRANCH 51 64
ATOM     64  O3  NAG B   5      13.016   7.140  12.3220  0.00  0.00     0.000 O
BRANCH 64 67
ATOM     65  C1  NAG B   5      15.777   8.199  10.1200  0.00  0.00     0.000 C
ATOM     66  C2  NAG B   5      14.364   7.827  10.5360  0.00  0.00     0.000 C
ATOM     67  C3  NAG B   5      14.289   7.693  12.0520  0.00  0.00     0.000 C
ATOM     68  C4  NAG B   5      15.379   6.748  12.5760  0.00  0.00     0.000 C
ATOM     69  C5  NAG B   5      16.742   7.144  12.0320  0.00  0.00     0.000 C
ATOM     70  O5  NAG B   5      16.689   7.238  10.6010  0.00  0.00     0.000 O
ATOM     71   O  NAG B   5      15.362   6.779  13.9880  0.00  0.00     0.000 O
ATOM     73  HD  NAG B   5      15.465   5.925  13.8870  0.00  0.00     0.000 HD
ATOM     73   C  NAG B   5      17.876   6.178  12.4020  0.00  0.00     0.000 C
ATOM     74   O  NAG B   5      17.628   4.889  11.8030  0.00  0.00     0.000 O
ATOM     76  HD  NAG B   5      17.731   4.035  11.7030  0.00  0.00     0.000 HD
BRANCH 66 78
ATOM     76   N  NAG B   5      13.582   8.869   9.8450  0.00  0.00     0.000 N
ATOM     78  HD  NAG B   5      13.562   8.007   9.9270  0.00  0.00     0.000 HD
ATOM     78   C  NAG B   5      12.389   8.698   9.2520  0.00  0.00     0.000 C
ATOM     79   C  NAG B   5      11.834   9.959   8.6470  0.00  0.00     0.000 C
ATOM     80   O  NAG B   5      11.786   7.568   9.1990  0.00  0.00     0.000 OA
ENDBRANCH 66 78
BRANCH 65 81
ATOM     81  O4  BDP B   6      15.864   8.280   8.6910  0.00  0.00     0.000 O
BRANCH 81 85
ATOM     82  C1  BDP B   6      18.310  10.088   5.6730  0.00  0.00     0.000 C
ATOM     83  C2  BDP B   6      18.767   8.747   6.2410  0.00  0.00     0.000 C
ATOM     84  C3  BDP B   6      17.652   8.006   6.9840  0.00  0.00     0.000 C
ATOM     85  C4  BDP B   6      16.974   8.892   8.0310  0.00  0.00     0.000 C
ATOM     86  C5  BDP B   6      16.591  10.227   7.3470  0.00  0.00     0.000 C
ATOM     87  O5  BDP B   6      17.746  10.868   6.7180  0.00  0.00     0.000 O
ATOM     88   O  BDP B   6      19.182   7.979   5.1160  0.00  0.00     0.000 O
ATOM     90  HD  BDP B   6      19.130   7.174   4.8010  0.00  0.00     0.000 HD
ATOM     90   O  BDP B   6      18.182   6.820   7.5830  0.00  0.00     0.000 O
ATOM     92  HD  BDP B   6      18.129   6.015   7.2690  0.00  0.00     0.000 HD
BRANCH 86 92
ATOM     92   C  BDP B   6      16.135  11.236   8.3730  0.00  0.00     0.000 C
ATOM     93   O  BDP B   6      16.998  11.902   9.0210  0.00  0.00     0.000 OA
ATOM     94   O  BDP B   6      14.883  11.389   8.5280  0.00  0.00     0.000 OA
ENDBRANCH 86 92
BRANCH 82 95
ATOM     95  O3  NAG B   7      19.468  10.787   5.1740  0.00  0.00     0.000 O
BRANCH 95 98
ATOM     96  C1  NAG B   7      20.378  12.486   2.0720  0.00  0.00     0.000 C
ATOM     97  C2  NAG B   7      20.574  11.548   3.2560  0.00  0.00     0.000 C
ATOM     98  C3  NAG B   7      19.311  11.712   4.0990  0.00  0.00     0.000 C
ATOM     99  C4  NAG B   7      19.174  13.163   4.5520  0.00  0.00     0.000 C
ATOM    100  C5  NAG B   7      19.228  14.116   3.3570  0.00  0.00     0.000 C
ATOM    101  O5  NAG B   7      20.384  13.822   2.5870  0.00  0.00     0.000 O
BRANCH 97 104
ATOM    102   N  NAG B   7      20.596  10.087   3.1070  0.00  0.00     0.000 N
ATOM    104  HD  NAG B   7      20.482   9.240   3.2510  0.00  0.00     0.000 HD
ATOM    104   O  NAG B   7      21.521   8.027   2.9370  0.00  0.00     0.000 OA
ATOM    105   C  NAG B   7      21.656   9.264   2.9970  0.00  0.00     0.000 C
ATOM    106   C  NAG B   7      23.027   9.850   2.9620  0.00  0.00     0.000 C
ENDBRANCH 97 104
ATOM    107   O  NAG B   7      18.975  16.357   2.7110  0.00  0.00     0.000 O
ATOM    109  HD  NAG B   7      18.825  15.534   2.4870  0.00  0.00     0.000 HD
ATOM    109   O  NAG B   7      18.975  16.357   2.7110  0.00  0.00     0.000 O
ATOM    111  HD  NAG B   7      18.825  15.534   2.4870  0.00  0.00     0.000 HD
ENDBRANCH 95 98
ENDBRANCH 82 95
ENDBRANCH 81 85
ENDBRANCH 65 81
ENDBRANCH 64 67
ENDBRANCH 51 64
ENDBRANCH 50 54
ENDBRANCH 34 50
ENDBRANCH 33 36
ENDBRANCH 20 33
ENDBRANCH 19 23
ENDBRANCH 1 19
TORSDOF 19
ENDMDL
MODEL 30
REMARK VINA RESULT:      -5.3     14.317     19.349
ROOT
ATOM      1  C1  NAG B   1       9.948   5.104  27.2360  0.00  0.00     0.000 C
ATOM      2  C2  NAG B   1       9.575   5.623  28.6220  0.00  0.00     0.000 C
ATOM      3  C3  NAG B   1      10.608   6.593  29.1580  0.00  0.00     0.000 C
ATOM      4  C4  NAG B   1      11.927   5.826  29.1590  0.00  0.00     0.000 C
ATOM      5  C5  NAG B   1      12.295   5.457  27.7160  0.00  0.00     0.000 C
ATOM      6  O5  NAG B   1      11.290   4.606  27.1240  0.00  0.00     0.000 O
ATOM      7   O  NAG B   1      10.282   7.058  30.4870  0.00  0.00     0.000 O
ATOM      9  HD  NAG B   1       9.501   6.976  30.1210  0.00  0.00     0.000 HD
ATOM      9   O  NAG B   1      12.953   6.620  29.7290  0.00  0.00     0.000 O
ATOM     11  HD  NAG B   1      12.173   6.539  29.3620  0.00  0.00     0.000 HD
ATOM     11   C  NAG B   1      13.683   4.806  27.6810  0.00  0.00     0.000 C
ATOM     12   O  NAG B   1      13.799   3.894  26.5900  0.00  0.00     0.000 O
ATOM     14  HD  NAG B   1      13.019   3.812  26.2240  0.00  0.00     0.000 HD
ENDROOT
BRANCH 2 16
ATOM     14   N  NAG B   1       8.338   5.021  29.1500  0.00  0.00     0.000 N
ATOM     16  HD  NAG B   1       7.845   4.969  29.8600  0.00  0.00     0.000 HD
ATOM     16   C  NAG B   1       7.181   5.698  29.2610  0.00  0.00     0.000 C
ATOM     17   C  NAG B   1       7.117   7.148  28.8610  0.00  0.00     0.000 C
ATOM     18   O  NAG B   1       6.155   5.147  29.6600  0.00  0.00     0.000 OA
ENDBRANCH 2 16
BRANCH 1 19
ATOM     19  O4  BDP B   2       9.097   3.978  27.0720  0.00  0.00     0.000 O
BRANCH 19 23
ATOM     20  C1  BDP B   2       9.095   4.162  22.9600  0.00  0.00     0.000 C
ATOM     21  C2  BDP B   2       7.948   4.855  23.6650  0.00  0.00     0.000 C
ATOM     22  C3  BDP B   2       8.262   5.087  25.1260  0.00  0.00     0.000 C
ATOM     23  C4  BDP B   2       8.669   3.755  25.7500  0.00  0.00     0.000 C
ATOM     24  C5  BDP B   2       9.827   3.165  24.9700  0.00  0.00     0.000 C
ATOM     25  O5  BDP B   2       9.436   2.955  23.6270  0.00  0.00     0.000 O
ATOM     26   O  BDP B   2       7.660   6.086  23.0390  0.00  0.00     0.000 O
ATOM     28  HD  BDP B   2       8.192   5.733  22.4550  0.00  0.00     0.000 HD
ATOM     28   O  BDP B   2       7.114   5.658  25.7720  0.00  0.00     0.000 O
ATOM     30  HD  BDP B   2       7.646   5.305  25.1880  0.00  0.00     0.000 HD
BRANCH 24 30
ATOM     30   C  BDP B   2      10.267   1.856  25.5210  0.00  0.00     0.000 C
ATOM     31   O  BDP B   2      11.482   1.729  25.7990  0.00  0.00     0.000 OA
ATOM     32   O  BDP B   2       9.402   0.946  25.6710  0.00  0.00     0.000 OA
ENDBRANCH 24 30
BRANCH 20 33
ATOM     33  O3  NAG B   3       8.578   3.857  21.6880  0.00  0.00     0.000 O
BRANCH 33 36
ATOM     34  C1  NAG B   3      10.792   3.806  18.6460  0.00  0.00     0.000 C
ATOM     35  C2  NAG B   3       9.884   4.381  19.7170  0.00  0.00     0.000 C
ATOM     36  C3  NAG B   3       9.589   3.347  20.8140  0.00  0.00     0.000 C
ATOM     37  C4  NAG B   3       9.083   2.058  20.1720  0.00  0.00     0.000 C
ATOM     38  C5  NAG B   3      10.025   1.618  19.0550  0.00  0.00     0.000 C
ATOM     39  O5  NAG B   3      10.161   2.657  18.1000  0.00  0.00     0.000 O
ATOM     40   O  NAG B   3       8.994   1.020  21.1590  0.00  0.00     0.000 O
ATOM     42  HD  NAG B   3       9.490   0.602  20.5850  0.00  0.00     0.000 HD
ATOM     42   C  NAG B   3       9.528   0.408  18.2690  0.00  0.00     0.000 C
ATOM     43   O  NAG B   3       8.333   0.755  17.5580  0.00  0.00     0.000 O
ATOM     45  HD  NAG B   3       8.829   0.338  16.9840  0.00  0.00     0.000 HD
BRANCH 35 47
ATOM     45   N  NAG B   3       9.289   5.712  19.7420  0.00  0.00     0.000 N
ATOM     47  HD  NAG B   3       8.696   5.081  19.7390  0.00  0.00     0.000 HD
ATOM     47   C  NAG B   3       9.802   6.713  20.4280  0.00  0.00     0.000 C
ATOM     48   C  NAG B   3       9.053   8.012  20.3620  0.00  0.00     0.000 C
ATOM     49   O  NAG B   3      10.819   6.586  21.1060  0.00  0.00     0.000 OA
ENDBRANCH 35 47
BRANCH 34 50
ATOM     50  O4  BDP B   4      10.862   4.835  17.6810  0.00  0.00     0.000 O
BRANCH 50 54
ATOM     51  C1  BDP B   4      12.244   5.831  13.9860  0.00  0.00     0.000 C
ATOM     52  C2  BDP B   4      11.141   4.778  13.9850  0.00  0.00     0.000 C
ATOM     53  C3  BDP B   4      10.476   4.780  15.3280  0.00  0.00     0.000 C
ATOM     54  C4  BDP B   4      11.542   4.571  16.4420  0.00  0.00     0.000 C
ATOM     55  C5  BDP B   4      12.730   5.512  16.2910  0.00  0.00     0.000 C
ATOM     56  O5  BDP B   4      13.219   5.485  14.9530  0.00  0.00     0.000 O
ATOM     57   O  BDP B   4      10.184   5.072  12.9890  0.00  0.00     0.000 O
ATOM     59  HD  BDP B   4      10.360   4.518  12.3480  0.00  0.00     0.000 HD
ATOM     59   O  BDP B   4       9.579   3.651  15.3530  0.00  0.00     0.000 O
ATOM     61  HD  BDP B   4       9.755   3.097  14.7110  0.00  0.00     0.000 HD
BRANCH 55 61
ATOM     61   C  BDP B   4      13.836   5.077  17.2350  0.00  0.00     0.000 C
ATOM     62   O  BDP B   4      14.333   3.931  17.0760  0.00  0.00     0.000 OA
ATOM     63   O  BDP B   4      14.209   5.888  18.1380  0.00  0.00     0.000 OA
ENDBRANCH 55 61
BRANCH 51 64
ATOM     64  O3  NAG B   5      12.818   5.848  12.6650  0.00  0.00     0.000 O
BRANCH 64 67
ATOM     65  C1  NAG B   5      13.718   8.926  10.8450  0.00  0.00     0.000 C
ATOM     66  C2  NAG B   5      12.855   7.779  11.3430  0.00  0.00     0.000 C
ATOM     67  C3  NAG B   5      13.596   7.005  12.4250  0.00  0.00     0.000 C
ATOM     68  C4  NAG B   5      14.994   6.590  11.9460  0.00  0.00     0.000 C
ATOM     69  C5  NAG B   5      15.745   7.785  11.3810  0.00  0.00     0.000 C
ATOM     70  O5  NAG B   5      14.951   8.431  10.3760  0.00  0.00     0.000 O
ATOM     71   O  NAG B   5      15.690   6.014  13.0300  0.00  0.00     0.000 O
ATOM     73  HD  NAG B   5      15.933   5.451  12.4190  0.00  0.00     0.000 HD
ATOM     73   C  NAG B   5      17.107   7.441  10.7610  0.00  0.00     0.000 C
ATOM     74   O  NAG B   5      16.914   6.583   9.6170  0.00  0.00     0.000 O
ATOM     76  HD  NAG B   5      17.157   6.021   9.0050  0.00  0.00     0.000 HD
BRANCH 66 78
ATOM     76   N  NAG B   5      11.601   8.456  11.7280  0.00  0.00     0.000 N
ATOM     78  HD  NAG B   5      11.840   7.803  11.2120  0.00  0.00     0.000 HD
ATOM     78   C  NAG B   5      10.358   8.026  11.4600  0.00  0.00     0.000 C
ATOM     79   C  NAG B   5       9.282   8.927  12.0020  0.00  0.00     0.000 C
ATOM     80   O  NAG B   5      10.111   6.955  10.7980  0.00  0.00     0.000 OA
ENDBRANCH 66 78
BRANCH 65 81
ATOM     81  O4  BDP B   6      13.043   9.630   9.7940  0.00  0.00     0.000 O
BRANCH 81 85
ATOM     82  C1  BDP B   6      12.923  13.676   8.3860  0.00  0.00     0.000 C
ATOM     83  C2  BDP B   6      13.600  12.638   7.4940  0.00  0.00     0.000 C
ATOM     84  C3  BDP B   6      13.237  11.200   7.8740  0.00  0.00     0.000 C
ATOM     85  C4  BDP B   6      13.453  10.931   9.3650  0.00  0.00     0.000 C
ATOM     86  C5  BDP B   6      12.755  12.061  10.1590  0.00  0.00     0.000 C
ATOM     87  O5  BDP B   6      13.220  13.386   9.7440  0.00  0.00     0.000 O
ATOM     88   O  BDP B   6      13.138  12.913   6.1740  0.00  0.00     0.000 O
ATOM     90  HD  BDP B   6      12.865  12.501   5.4630  0.00  0.00     0.000 HD
ATOM     90   O  BDP B   6      13.993  10.288   7.0740  0.00  0.00     0.000 O
ATOM     92  HD  BDP B   6      13.720   9.875   6.3630  0.00  0.00     0.000 HD
BRANCH 86 92
ATOM     92   C  BDP B   6      13.127  11.990  11.6200  0.00  0.00     0.000 C
ATOM     93   O  BDP B   6      14.249  12.442  12.0010  0.00  0.00     0.000 OA
ATOM     94   O  BDP B   6      12.274  11.491  12.4180  0.00  0.00     0.000 OA
ENDBRANCH 86 92
BRANCH 82 95
ATOM     95  O3  NAG B   7      13.478  14.970   8.0780  0.00  0.00     0.000 O
BRANCH 95 98
ATOM     96  C1  NAG B   7      12.376  18.371   7.3340  0.00  0.00     0.000 C
ATOM     97  C2  NAG B   7      13.297  17.160   7.2710  0.00  0.00     0.000 C
ATOM     98  C3  NAG B   7      12.649  16.126   8.1880  0.00  0.00     0.000 C
ATOM     99  C4  NAG B   7      12.551  16.679   9.6070  0.00  0.00     0.000 C
ATOM    100  C5  NAG B   7      11.833  18.030   9.6190  0.00  0.00     0.000 C
ATOM    101  O5  NAG B   7      12.449  18.886   8.6690  0.00  0.00     0.000 O
BRANCH 97 104
ATOM    102   N  NAG B   7      13.417  16.441   5.9950  0.00  0.00     0.000 N
ATOM    104  HD  NAG B   7      13.427  15.813   5.3990  0.00  0.00     0.000 HD
ATOM    104   O  NAG B   7      14.456  15.638   4.1490  0.00  0.00     0.000 OA
ATOM    105   C  NAG B   7      14.484  16.339   5.1800  0.00  0.00     0.000 C
ATOM    106   C  NAG B   7      15.735  17.072   5.5280  0.00  0.00     0.000 C
ENDBRANCH 97 104
ATOM    107   O  NAG B   7      10.948  19.690  11.0200  0.00  0.00     0.000 O
ATOM    109  HD  NAG B   7      10.829  19.244  10.2870  0.00  0.00     0.000 HD
ATOM    109   O  NAG B   7      10.948  19.690  11.0200  0.00  0.00     0.000 O
ATOM    111  HD  NAG B   7      10.829  19.244  10.2870  0.00  0.00     0.000 HD
ENDBRANCH 95 98
ENDBRANCH 82 95
ENDBRANCH 81 85
ENDBRANCH 65 81
ENDBRANCH 64 67
ENDBRANCH 51 64
ENDBRANCH 50 54
ENDBRANCH 34 50
ENDBRANCH 33 36
ENDBRANCH 20 33
ENDBRANCH 19 23
ENDBRANCH 1 19
TORSDOF 19
ENDMDL
MODEL 31
REMARK VINA RESULT:      -5.2     14.470     18.822
ROOT
ATOM      1  C1  NAG B   1       9.798   7.324  27.7030  0.00  0.00     0.000 C
ATOM      2  C2  NAG B   1       9.801   8.161  28.9790  0.00  0.00     0.000 C
ATOM      3  C3  NAG B   1      11.201   8.588  29.3700  0.00  0.00     0.000 C
ATOM      4  C4  NAG B   1      11.995   7.294  29.5210  0.00  0.00     0.000 C
ATOM      5  C5  NAG B   1      12.055   6.579  28.1650  0.00  0.00     0.000 C
ATOM      6  O5  NAG B   1      10.733   6.234  27.6990  0.00  0.00     0.000 O
ATOM      7   O  NAG B   1      11.216   9.348  30.6000  0.00  0.00     0.000 O
ATOM      9  HD  NAG B   1      10.470   9.595  30.2370  0.00  0.00     0.000 HD
ATOM      9   O  NAG B   1      13.308   7.577  29.9740  0.00  0.00     0.000 O
ATOM     11  HD  NAG B   1      12.562   7.823  29.6110  0.00  0.00     0.000 HD
ATOM     11   C  NAG B   1      12.963   5.347  28.2620  0.00  0.00     0.000 C
ATOM     12   O  NAG B   1      12.565   4.337  27.3360  0.00  0.00     0.000 O
ATOM     14  HD  NAG B   1      11.819   4.584  26.9730  0.00  0.00     0.000 HD
ENDROOT
BRANCH 2 16
ATOM     14   N  NAG B   1       8.485   8.329  29.6210  0.00  0.00     0.000 N
ATOM     16  HD  NAG B   1       8.096   8.666  30.3170  0.00  0.00     0.000 HD
ATOM     16   C  NAG B   1       7.774   9.467  29.5510  0.00  0.00     0.000 C
ATOM     17   C  NAG B   1       8.329  10.657  28.8130  0.00  0.00     0.000 C
ATOM     18   O  NAG B   1       6.656   9.554  30.0580  0.00  0.00     0.000 OA
ENDBRANCH 2 16
BRANCH 1 19
ATOM     19  O4  BDP B   2       8.506   6.731  27.7080  0.00  0.00     0.000 O
BRANCH 19 23
ATOM     20  C1  BDP B   2       8.404   6.145  23.6350  0.00  0.00     0.000 C
ATOM     21  C2  BDP B   2       7.748   7.410  24.1500  0.00  0.00     0.000 C
ATOM     22  C3  BDP B   2       8.200   7.728  25.5570  0.00  0.00     0.000 C
ATOM     23  C4  BDP B   2       7.963   6.499  26.4300  0.00  0.00     0.000 C
ATOM     24  C5  BDP B   2       8.674   5.305  25.8240  0.00  0.00     0.000 C
ATOM     25  O5  BDP B   2       8.169   5.063  24.5250  0.00  0.00     0.000 O
ATOM     26   O  BDP B   2       8.042   8.496  23.2980  0.00  0.00     0.000 O
ATOM     28  HD  BDP B   2       8.320   7.835  22.8120  0.00  0.00     0.000 HD
ATOM     28   O  BDP B   2       7.484   8.877  26.0360  0.00  0.00     0.000 O
ATOM     30  HD  BDP B   2       7.761   8.216  25.5500  0.00  0.00     0.000 HD
BRANCH 24 30
ATOM     30   C  BDP B   2       8.474   4.067  26.6230  0.00  0.00     0.000 C
ATOM     31   O  BDP B   2       9.498   3.427  26.9550  0.00  0.00     0.000 OA
ATOM     32   O  BDP B   2       7.293   3.725  26.9150  0.00  0.00     0.000 OA
ENDBRANCH 24 30
BRANCH 20 33
ATOM     33  O3  NAG B   3       7.747   5.893  22.4170  0.00  0.00     0.000 O
BRANCH 33 36
ATOM     34  C1  NAG B   3       9.517   4.684  19.3250  0.00  0.00     0.000 C
ATOM     35  C2  NAG B   3       8.925   5.672  20.3130  0.00  0.00     0.000 C
ATOM     36  C3  NAG B   3       8.476   4.970  21.6040  0.00  0.00     0.000 C
ATOM     37  C4  NAG B   3       7.566   3.796  21.2510  0.00  0.00     0.000 C
ATOM     38  C5  NAG B   3       8.223   2.917  20.1900  0.00  0.00     0.000 C
ATOM     39  O5  NAG B   3       8.538   3.694  19.0460  0.00  0.00     0.000 O
ATOM     40   O  NAG B   3       7.301   3.011  22.4240  0.00  0.00     0.000 O
ATOM     42  HD  NAG B   3       7.596   2.376  21.9140  0.00  0.00     0.000 HD
ATOM     42   C  NAG B   3       7.328   1.790  19.6810  0.00  0.00     0.000 C
ATOM     43   O  NAG B   3       6.208   2.346  18.9830  0.00  0.00     0.000 O
ATOM     45  HD  NAG B   3       6.503   1.711  18.4740  0.00  0.00     0.000 HD
BRANCH 35 47
ATOM     45   N  NAG B   3       8.766   7.097  20.0580  0.00  0.00     0.000 N
ATOM     47  HD  NAG B   3       8.008   6.688  20.1470  0.00  0.00     0.000 HD
ATOM     47   C  NAG B   3       9.570   8.011  20.5650  0.00  0.00     0.000 C
ATOM     48   C  NAG B   3       9.253   9.436  20.2180  0.00  0.00     0.000 C
ATOM     49   O  NAG B   3      10.509   7.716  21.3010  0.00  0.00     0.000 OA
ENDBRANCH 35 47
BRANCH 34 50
ATOM     50  O4  BDP B   4       9.765   5.468  18.1770  0.00  0.00     0.000 O
BRANCH 50 54
ATOM     51  C1  BDP B   4      11.959   5.756  14.7630  0.00  0.00     0.000 C
ATOM     52  C2  BDP B   4      10.975   4.591  14.7860  0.00  0.00     0.000 C
ATOM     53  C3  BDP B   4       9.994   4.814  15.8950  0.00  0.00     0.000 C
ATOM     54  C4  BDP B   4      10.755   5.019  17.2360  0.00  0.00     0.000 C
ATOM     55  C5  BDP B   4      11.867   6.053  17.1200  0.00  0.00     0.000 C
ATOM     56  O5  BDP B   4      12.680   5.783  15.9810  0.00  0.00     0.000 O
ATOM     57   O  BDP B   4      10.283   4.511  13.5580  0.00  0.00     0.000 O
ATOM     59  HD  BDP B   4      10.658   3.852  13.1390  0.00  0.00     0.000 HD
ATOM     59   O  BDP B   4       9.208   3.610  16.0090  0.00  0.00     0.000 O
ATOM     61  HD  BDP B   4       9.583   2.951  15.5900  0.00  0.00     0.000 HD
BRANCH 55 61
ATOM     61   C  BDP B   4      12.727   6.006  18.3700  0.00  0.00     0.000 C
ATOM     62   O  BDP B   4      13.314   4.927  18.6430  0.00  0.00     0.000 OA
ATOM     63   O  BDP B   4      12.815   7.056  19.0780  0.00  0.00     0.000 OA
ENDBRANCH 55 61
BRANCH 51 64
ATOM     64  O3  NAG B   5      12.846   5.544  13.6480  0.00  0.00     0.000 O
BRANCH 64 67
ATOM     65  C1  NAG B   5      14.149   8.389  11.6990  0.00  0.00     0.000 C
ATOM     66  C2  NAG B   5      13.169   7.328  12.1680  0.00  0.00     0.000 C
ATOM     67  C3  NAG B   5      13.705   6.644  13.4190  0.00  0.00     0.000 C
ATOM     68  C4  NAG B   5      15.137   6.138  13.2000  0.00  0.00     0.000 C
ATOM     69  C5  NAG B   5      16.019   7.244  12.6430  0.00  0.00     0.000 C
ATOM     70  O5  NAG B   5      15.413   7.810  11.4720  0.00  0.00     0.000 O
ATOM     71   O  NAG B   5      15.637   5.653  14.4270  0.00  0.00     0.000 O
ATOM     73  HD  NAG B   5      15.942   5.024  13.9160  0.00  0.00     0.000 HD
ATOM     73   C  NAG B   5      17.439   6.795  12.2730  0.00  0.00     0.000 C
ATOM     74   O  NAG B   5      17.377   5.832  11.2000  0.00  0.00     0.000 O
ATOM     76  HD  NAG B   5      17.681   5.202  10.6890  0.00  0.00     0.000 HD
BRANCH 66 78
ATOM     76   N  NAG B   5      11.892   8.042  12.3600  0.00  0.00     0.000 N
ATOM     78  HD  NAG B   5      12.191   7.392  11.8730  0.00  0.00     0.000 HD
ATOM     78   C  NAG B   5      10.696   7.665  11.8810  0.00  0.00     0.000 C
ATOM     79   C  NAG B   5       9.576   8.594  12.2640  0.00  0.00     0.000 C
ATOM     80   O  NAG B   5      10.526   6.619  11.1580  0.00  0.00     0.000 OA
ENDBRANCH 66 78
BRANCH 65 81
ATOM     81  O4  BDP B   6      13.671   9.004  10.4950  0.00  0.00     0.000 O
BRANCH 81 85
ATOM     82  C1  BDP B   6      13.863  12.730   8.3880  0.00  0.00     0.000 C
ATOM     83  C2  BDP B   6      15.175  11.989   8.6310  0.00  0.00     0.000 C
ATOM     84  C3  BDP B   6      14.967  10.520   9.0090  0.00  0.00     0.000 C
ATOM     85  C4  BDP B   6      13.974  10.361  10.1620  0.00  0.00     0.000 C
ATOM     86  C5  BDP B   6      12.707  11.180   9.8150  0.00  0.00     0.000 C
ATOM     87  O5  BDP B   6      13.025  12.579   9.5250  0.00  0.00     0.000 O
ATOM     88   O  BDP B   6      15.890  12.069   7.4020  0.00  0.00     0.000 O
ATOM     90  HD  BDP B   6      16.379  11.579   6.8810  0.00  0.00     0.000 HD
ATOM     90   O  BDP B   6      16.226   9.925   9.3320  0.00  0.00     0.000 O
ATOM     92  HD  BDP B   6      16.715   9.435   8.8110  0.00  0.00     0.000 HD
BRANCH 86 92
ATOM     92   C  BDP B   6      11.786  11.261  11.0080  0.00  0.00     0.000 C
ATOM     93   O  BDP B   6      12.275  11.226  12.1780  0.00  0.00     0.000 OA
ATOM     94   O  BDP B   6      10.542  11.384  10.7810  0.00  0.00     0.000 OA
ENDBRANCH 86 92
BRANCH 82 95
ATOM     95  O3  NAG B   7      14.156  14.133   8.2380  0.00  0.00     0.000 O
BRANCH 95 98
ATOM     96  C1  NAG B   7      13.426  16.753   5.8000  0.00  0.00     0.000 C
ATOM     97  C2  NAG B   7      14.287  15.949   6.7640  0.00  0.00     0.000 C
ATOM     98  C3  NAG B   7      13.335  14.927   7.3820  0.00  0.00     0.000 C
ATOM     99  C4  NAG B   7      12.203  15.647   8.1110  0.00  0.00     0.000 C
ATOM    100  C5  NAG B   7      11.502  16.642   7.1850  0.00  0.00     0.000 C
ATOM    101  O5  NAG B   7      12.479  17.482   6.5890  0.00  0.00     0.000 O
BRANCH 97 104
ATOM    102   N  NAG B   7      15.363  15.140   6.1740  0.00  0.00     0.000 N
ATOM    104  HD  NAG B   7      15.859  14.470   5.9410  0.00  0.00     0.000 HD
ATOM    104   O  NAG B   7      17.484  14.415   5.8540  0.00  0.00     0.000 OA
ATOM    105   C  NAG B   7      16.690  15.215   6.3860  0.00  0.00     0.000 C
ATOM    106   C  NAG B   7      17.220  16.272   7.2930  0.00  0.00     0.000 C
ENDBRANCH 97 104
ATOM    107   O  NAG B   7       9.675  18.103   7.0130  0.00  0.00     0.000 O
ATOM    109  HD  NAG B   7      10.162  17.525   6.5900  0.00  0.00     0.000 HD
ATOM    109   O  NAG B   7       9.675  18.103   7.0130  0.00  0.00     0.000 O
ATOM    111  HD  NAG B   7      10.162  17.525   6.5900  0.00  0.00     0.000 HD
ENDBRANCH 95 98
ENDBRANCH 82 95
ENDBRANCH 81 85
ENDBRANCH 65 81
ENDBRANCH 64 67
ENDBRANCH 51 64
ENDBRANCH 50 54
ENDBRANCH 34 50
ENDBRANCH 33 36
ENDBRANCH 20 33
ENDBRANCH 19 23
ENDBRANCH 1 19
TORSDOF 19
ENDMDL
MODEL 32
REMARK VINA RESULT:      -5.2      6.353     16.576
ROOT
ATOM      1  C1  NAG B   1      11.041   6.164  14.6650  0.00  0.00     0.000 C
ATOM      2  C2  NAG B   1      10.500   5.348  15.8360  0.00  0.00     0.000 C
ATOM      3  C3  NAG B   1       9.617   6.181  16.7430  0.00  0.00     0.000 C
ATOM      4  C4  NAG B   1      10.486   7.348  17.2000  0.00  0.00     0.000 C
ATOM      5  C5  NAG B   1      10.878   8.191  15.9800  0.00  0.00     0.000 C
ATOM      6  O5  NAG B   1      11.644   7.415  15.0340  0.00  0.00     0.000 O
ATOM      7   O  NAG B   1       9.132   5.424  17.8760  0.00  0.00     0.000 O
ATOM      9  HD  NAG B   1       9.150   4.828  17.2470  0.00  0.00     0.000 HD
ATOM      9   O  NAG B   1       9.777   8.149  18.1300  0.00  0.00     0.000 O
ATOM     11  HD  NAG B   1       9.796   7.553  17.5020  0.00  0.00     0.000 HD
ATOM     11   C  NAG B   1      11.636   9.445  16.4320  0.00  0.00     0.000 C
ATOM     12   O  NAG B   1      12.551   9.886  15.4300  0.00  0.00     0.000 O
ATOM     14  HD  NAG B   1      12.570   9.290  14.8020  0.00  0.00     0.000 HD
ENDROOT
BRANCH 2 16
ATOM     14   N  NAG B   1       9.778   4.149  15.3760  0.00  0.00     0.000 N
ATOM     16  HD  NAG B   1       9.755   3.558  14.7430  0.00  0.00     0.000 HD
ATOM     16   C  NAG B   1      10.238   2.899  15.5590  0.00  0.00     0.000 C
ATOM     17   C  NAG B   1      11.564   2.678  16.2380  0.00  0.00     0.000 C
ATOM     18   O  NAG B   1       9.582   1.919  15.2050  0.00  0.00     0.000 OA
ENDBRANCH 2 16
BRANCH 1 19
ATOM     19  O4  BDP B   2      12.096   5.354  14.1660  0.00  0.00     0.000 O
BRANCH 19 23
ATOM     20  C1  BDP B   2      13.321   7.690  11.0060  0.00  0.00     0.000 C
ATOM     21  C2  BDP B   2      11.981   7.001  10.8540  0.00  0.00     0.000 C
ATOM     22  C3  BDP B   2      11.450   6.534  12.1900  0.00  0.00     0.000 C
ATOM     23  C4  BDP B   2      12.520   5.680  12.8640  0.00  0.00     0.000 C
ATOM     24  C5  BDP B   2      13.806   6.476  12.9710  0.00  0.00     0.000 C
ATOM     25  O5  BDP B   2      14.244   6.844  11.6770  0.00  0.00     0.000 O
ATOM     26   O  BDP B   2      11.049   7.871  10.2490  0.00  0.00     0.000 O
ATOM     28  HD  BDP B   2      11.783   8.312  10.1200  0.00  0.00     0.000 HD
ATOM     28   O  BDP B   2      10.228   5.807  11.9860  0.00  0.00     0.000 O
ATOM     30  HD  BDP B   2      10.962   6.248  11.8570  0.00  0.00     0.000 HD
BRANCH 24 30
ATOM     30   C  BDP B   2      14.898   5.695  13.6100  0.00  0.00     0.000 C
ATOM     31   O  BDP B   2      15.333   6.110  14.7100  0.00  0.00     0.000 OA
ATOM     32   O  BDP B   2      15.332   4.669  13.0140  0.00  0.00     0.000 OA
ENDBRANCH 24 30
BRANCH 20 33
ATOM     33  O3  NAG B   3      13.754   7.889   9.6830  0.00  0.00     0.000 O
BRANCH 33 36
ATOM     34  C1  NAG B   3      15.549  11.122   8.9940  0.00  0.00     0.000 C
ATOM     35  C2  NAG B   3      14.386  10.191   9.2800  0.00  0.00     0.000 C
ATOM     36  C3  NAG B   3      14.874   8.775   9.6200  0.00  0.00     0.000 C
ATOM     37  C4  NAG B   3      15.825   8.292   8.5270  0.00  0.00     0.000 C
ATOM     38  C5  NAG B   3      16.903   9.341   8.2630  0.00  0.00     0.000 C
ATOM     39  O5  NAG B   3      16.300  10.577   7.9190  0.00  0.00     0.000 O
ATOM     40   O  NAG B   3      16.445   7.060   8.9250  0.00  0.00     0.000 O
ATOM     42  HD  NAG B   3      17.165   7.509   8.7520  0.00  0.00     0.000 HD
ATOM     42   C  NAG B   3      17.822   8.999   7.0930  0.00  0.00     0.000 C
ATOM     43   O  NAG B   3      17.069   9.003   5.8740  0.00  0.00     0.000 O
ATOM     45  HD  NAG B   3      17.789   9.453   5.7010  0.00  0.00     0.000 HD
BRANCH 35 47
ATOM     45   N  NAG B   3      13.550  10.644  10.3850  0.00  0.00     0.000 N
ATOM     47  HD  NAG B   3      14.326  11.029  10.3740  0.00  0.00     0.000 HD
ATOM     47   C  NAG B   3      12.250  10.827  10.2720  0.00  0.00     0.000 C
ATOM     48   C  NAG B   3      11.542  11.316  11.5000  0.00  0.00     0.000 C
ATOM     49   O  NAG B   3      11.654  10.633   9.2140  0.00  0.00     0.000 OA
ENDBRANCH 35 47
BRANCH 34 50
ATOM     50  O4  BDP B   4      14.924  12.325   8.5970  0.00  0.00     0.000 O
BRANCH 50 54
ATOM     51  C1  BDP B   4      15.164  16.385   8.7080  0.00  0.00     0.000 C
ATOM     52  C2  BDP B   4      16.277  15.708   7.9160  0.00  0.00     0.000 C
ATOM     53  C3  BDP B   4      15.875  14.292   7.6390  0.00  0.00     0.000 C
ATOM     54  C4  BDP B   4      15.529  13.573   8.9750  0.00  0.00     0.000 C
ATOM     55  C5  BDP B   4      14.563  14.379   9.8330  0.00  0.00     0.000 C
ATOM     56  O5  BDP B   4      15.008  15.727   9.9520  0.00  0.00     0.000 O
ATOM     57   O  BDP B   4      16.488  16.381   6.6940  0.00  0.00     0.000 O
ATOM     59  HD  BDP B   4      17.210  16.844   6.8210  0.00  0.00     0.000 HD
ATOM     59   O  BDP B   4      17.023  13.634   7.0650  0.00  0.00     0.000 O
ATOM     61  HD  BDP B   4      17.744  14.096   7.1930  0.00  0.00     0.000 HD
BRANCH 55 61
ATOM     61   C  BDP B   4      14.481  13.756  11.2150  0.00  0.00     0.000 C
ATOM     62   O  BDP B   4      13.373  13.785  11.8120  0.00  0.00     0.000 OA
ATOM     63   O  BDP B   4      15.531  13.235  11.7020  0.00  0.00     0.000 OA
ENDBRANCH 55 61
BRANCH 51 64
ATOM     64  O3  NAG B   5      15.552  17.759   8.9010  0.00  0.00     0.000 O
BRANCH 64 67
ATOM     65  C1  NAG B   5      12.727  20.096   8.5110  0.00  0.00     0.000 C
ATOM     66  C2  NAG B   5      13.751  19.040   8.1310  0.00  0.00     0.000 C
ATOM     67  C3  NAG B   5      14.490  18.563   9.3750  0.00  0.00     0.000 C
ATOM     68  C4  NAG B   5      15.060  19.749  10.1650  0.00  0.00     0.000 C
ATOM     69  C5  NAG B   5      13.985  20.794  10.4170  0.00  0.00     0.000 C
ATOM     70  O5  NAG B   5      13.362  21.163   9.1770  0.00  0.00     0.000 O
ATOM     71   O  NAG B   5      15.598  19.266  11.3780  0.00  0.00     0.000 O
ATOM     73  HD  NAG B   5      16.229  19.825  11.1800  0.00  0.00     0.000 HD
ATOM     73   C  NAG B   5      14.494  22.075  11.0920  0.00  0.00     0.000 C
ATOM     74   O  NAG B   5      15.427  22.744  10.2180  0.00  0.00     0.000 O
ATOM     76  HD  NAG B   5      16.058  23.303  10.0200  0.00  0.00     0.000 HD
BRANCH 66 78
ATOM     76   N  NAG B   5      13.956  18.473   6.7840  0.00  0.00     0.000 N
ATOM     78  HD  NAG B   5      13.533  18.257   7.5090  0.00  0.00     0.000 HD
ATOM     78   C  NAG B   5      13.287  17.437   6.2540  0.00  0.00     0.000 C
ATOM     79   C  NAG B   5      13.712  17.105   4.8490  0.00  0.00     0.000 C
ATOM     80   O  NAG B   5      12.379  16.788   6.8860  0.00  0.00     0.000 OA
ENDBRANCH 66 78
BRANCH 65 81
ATOM     81  O4  BDP B   6      12.062  20.581   7.3380  0.00  0.00     0.000 O
BRANCH 81 85
ATOM     82  C1  BDP B   6       8.478  22.675   6.2710  0.00  0.00     0.000 C
ATOM     83  C2  BDP B   6       9.708  23.511   6.6150  0.00  0.00     0.000 C
ATOM     84  C3  BDP B   6      11.007  22.702   6.5770  0.00  0.00     0.000 C
ATOM     85  C4  BDP B   6      10.908  21.423   7.4110  0.00  0.00     0.000 C
ATOM     86  C5  BDP B   6       9.612  20.685   6.9990  0.00  0.00     0.000 C
ATOM     87  O5  BDP B   6       8.433  21.542   7.1260  0.00  0.00     0.000 O
ATOM     88   O  BDP B   6       9.758  24.538   5.6280  0.00  0.00     0.000 O
ATOM     90  HD  BDP B   6      10.328  24.955   5.1270  0.00  0.00     0.000 HD
ATOM     90   O  BDP B   6      12.094  23.519   7.0190  0.00  0.00     0.000 O
ATOM     92  HD  BDP B   6      12.664  23.936   6.5180  0.00  0.00     0.000 HD
BRANCH 86 92
ATOM     92   C  BDP B   6       9.330  19.542   7.9440  0.00  0.00     0.000 C
ATOM     93   O  BDP B   6       8.916  19.789   9.1160  0.00  0.00     0.000 OA
ATOM     94   O  BDP B   6       9.502  18.363   7.5050  0.00  0.00     0.000 OA
ENDBRANCH 86 92
BRANCH 82 95
ATOM     95  O3  NAG B   7       7.304  23.470   6.5270  0.00  0.00     0.000 O
BRANCH 95 98
ATOM     96  C1  NAG B   7       4.507  24.805   4.5940  0.00  0.00     0.000 C
ATOM     97  C2  NAG B   7       5.621  24.831   5.6320  0.00  0.00     0.000 C
ATOM     98  C3  NAG B   7       6.219  23.426   5.6000  0.00  0.00     0.000 C
ATOM     99  C4  NAG B   7       5.148  22.398   5.9560  0.00  0.00     0.000 C
ATOM    100  C5  NAG B   7       3.923  22.552   5.0540  0.00  0.00     0.000 C
ATOM    101  O5  NAG B   7       3.502  23.907   5.0780  0.00  0.00     0.000 O
BRANCH 97 104
ATOM    102   N  NAG B   7       6.718  25.763   5.3370  0.00  0.00     0.000 N
ATOM    104  HD  NAG B   7       7.495  26.085   5.1290  0.00  0.00     0.000 HD
ATOM    104   O  NAG B   7       8.233  27.393   5.7580  0.00  0.00     0.000 OA
ATOM    105   C  NAG B   7       7.257  26.711   6.1270  0.00  0.00     0.000 C
ATOM    106   C  NAG B   7       6.679  26.939   7.4820  0.00  0.00     0.000 C
ENDBRANCH 97 104
ATOM    107   O  NAG B   7       1.863  21.586   4.4820  0.00  0.00     0.000 O
ATOM    109  HD  NAG B   7       2.566  21.988   4.1760  0.00  0.00     0.000 HD
ATOM    109   O  NAG B   7       1.863  21.586   4.4820  0.00  0.00     0.000 O
ATOM    111  HD  NAG B   7       2.566  21.988   4.1760  0.00  0.00     0.000 HD
ENDBRANCH 95 98
ENDBRANCH 82 95
ENDBRANCH 81 85
ENDBRANCH 65 81
ENDBRANCH 64 67
ENDBRANCH 51 64
ENDBRANCH 50 54
ENDBRANCH 34 50
ENDBRANCH 33 36
ENDBRANCH 20 33
ENDBRANCH 19 23
ENDBRANCH 1 19
TORSDOF 19
ENDMDL
MODEL 33
REMARK VINA RESULT:      -5.2     11.587     19.630
ROOT
ATOM      1  C1  NAG B   1      16.155  11.570   8.5160  0.00  0.00     0.000 C
ATOM      2  C2  NAG B   1      16.844  12.458   7.4830  0.00  0.00     0.000 C
ATOM      3  C3  NAG B   1      16.023  13.690   7.1610  0.00  0.00     0.000 C
ATOM      4  C4  NAG B   1      14.677  13.166   6.6710  0.00  0.00     0.000 C
ATOM      5  C5  NAG B   1      13.992  12.399   7.8100  0.00  0.00     0.000 C
ATOM      6  O5  NAG B   1      14.783  11.264   8.2220  0.00  0.00     0.000 O
ATOM      7   O  NAG B   1      16.652  14.516   6.1540  0.00  0.00     0.000 O
ATOM      9  HD  NAG B   1      17.331  14.205   6.5920  0.00  0.00     0.000 HD
ATOM      9   O  NAG B   1      13.855  14.245   6.2570  0.00  0.00     0.000 O
ATOM     11  HD  NAG B   1      14.535  13.934   6.6950  0.00  0.00     0.000 HD
ATOM     11   C  NAG B   1      12.579  11.981   7.3840  0.00  0.00     0.000 C
ATOM     12   O  NAG B   1      12.169  10.787   8.0480  0.00  0.00     0.000 O
ATOM     14  HD  NAG B   1      12.849  10.476   8.4850  0.00  0.00     0.000 HD
ENDROOT
BRANCH 2 16
ATOM     14   N  NAG B   1      18.201  12.782   7.9580  0.00  0.00     0.000 N
ATOM     16  HD  NAG B   1      18.880  12.452   8.3840  0.00  0.00     0.000 HD
ATOM     16   C  NAG B   1      19.316  12.391   7.3170  0.00  0.00     0.000 C
ATOM     17   C  NAG B   1      19.212  11.560   6.0660  0.00  0.00     0.000 C
ATOM     18   O  NAG B   1      20.432  12.723   7.7170  0.00  0.00     0.000 OA
ENDBRANCH 2 16
BRANCH 1 19
ATOM     19  O4  BDP B   2      16.862  10.342   8.4110  0.00  0.00     0.000 O
BRANCH 19 23
ATOM     20  C1  BDP B   2      15.542   8.754  11.9710  0.00  0.00     0.000 C
ATOM     21  C2  BDP B   2      16.743   9.673  12.0480  0.00  0.00     0.000 C
ATOM     22  C3  BDP B   2      16.876  10.509  10.7950  0.00  0.00     0.000 C
ATOM     23  C4  BDP B   2      16.879   9.573   9.5900  0.00  0.00     0.000 C
ATOM     24  C5  BDP B   2      15.630   8.715   9.6130  0.00  0.00     0.000 C
ATOM     25  O5  BDP B   2      15.604   7.949  10.8020  0.00  0.00     0.000 O
ATOM     26   O  BDP B   2      16.642  10.518  13.1750  0.00  0.00     0.000 O
ATOM     28  HD  BDP B   2      16.008   9.952  13.3440  0.00  0.00     0.000 HD
ATOM     28   O  BDP B   2      18.076  11.293  10.8740  0.00  0.00     0.000 O
ATOM     30  HD  BDP B   2      17.442  10.728  11.0430  0.00  0.00     0.000 HD
BRANCH 24 30
ATOM     30   C  BDP B   2      15.576   7.769   8.4670  0.00  0.00     0.000 C
ATOM     31   O  BDP B   2      15.908   6.582   8.6870  0.00  0.00     0.000 OA
ATOM     32   O  BDP B   2      15.209   8.210   7.3410  0.00  0.00     0.000 OA
ENDBRANCH 24 30
BRANCH 20 33
ATOM     33  O3  NAG B   3      15.670   7.931  13.1060  0.00  0.00     0.000 O
BRANCH 33 36
ATOM     34  C1  NAG B   3      12.484   6.670  14.6590  0.00  0.00     0.000 C
ATOM     35  C2  NAG B   3      13.585   7.652  14.3050  0.00  0.00     0.000 C
ATOM     36  C3  NAG B   3      14.544   7.063  13.2590  0.00  0.00     0.000 C
ATOM     37  C4  NAG B   3      15.034   5.698  13.7330  0.00  0.00     0.000 C
ATOM     38  C5  NAG B   3      13.851   4.824  14.1430  0.00  0.00     0.000 C
ATOM     39  O5  NAG B   3      13.089   5.479  15.1420  0.00  0.00     0.000 O
ATOM     40   O  NAG B   3      15.767   5.047  12.6840  0.00  0.00     0.000 O
ATOM     42  HD  NAG B   3      15.196   4.417  12.8430  0.00  0.00     0.000 HD
ATOM     42   C  NAG B   3      14.256   3.485  14.7540  0.00  0.00     0.000 C
ATOM     43   O  NAG B   3      14.930   3.710  15.9980  0.00  0.00     0.000 O
ATOM     45  HD  NAG B   3      14.358   3.079  16.1580  0.00  0.00     0.000 HD
BRANCH 35 47
ATOM     45   N  NAG B   3      12.962   8.903  13.8940  0.00  0.00     0.000 N
ATOM     47  HD  NAG B   3      12.385   8.272  14.0300  0.00  0.00     0.000 HD
ATOM     47   C  NAG B   3      13.391  10.083  14.2950  0.00  0.00     0.000 C
ATOM     48   C  NAG B   3      12.623  11.271  13.7930  0.00  0.00     0.000 C
ATOM     49   O  NAG B   3      14.347  10.205  15.0570  0.00  0.00     0.000 OA
ENDBRANCH 35 47
BRANCH 34 50
ATOM     50  O4  BDP B   4      11.778   7.319  15.6950  0.00  0.00     0.000 O
BRANCH 50 54
ATOM     51  C1  BDP B   4       8.089   7.890  17.3140  0.00  0.00     0.000 C
ATOM     52  C2  BDP B   4       8.778   6.601  17.7490  0.00  0.00     0.000 C
ATOM     53  C3  BDP B   4      10.231   6.692  17.3990  0.00  0.00     0.000 C
ATOM     54  C4  BDP B   4      10.388   7.006  15.8830  0.00  0.00     0.000 C
ATOM     55  C5  BDP B   4       9.526   8.182  15.4430  0.00  0.00     0.000 C
ATOM     56  O5  BDP B   4       8.189   8.021  15.9070  0.00  0.00     0.000 O
ATOM     57   O  BDP B   4       8.643   6.421  19.1430  0.00  0.00     0.000 O
ATOM     59  HD  BDP B   4       8.027   5.818  19.2260  0.00  0.00     0.000 HD
ATOM     59   O  BDP B   4      10.805   5.392  17.6460  0.00  0.00     0.000 O
ATOM     61  HD  BDP B   4      10.189   4.789  17.7290  0.00  0.00     0.000 HD
BRANCH 55 61
ATOM     61   C  BDP B   4       9.523   8.259  13.9270  0.00  0.00     0.000 C
ATOM     62   O  BDP B   4       9.199   7.227  13.2830  0.00  0.00     0.000 OA
ATOM     63   O  BDP B   4       9.843   9.359  13.3810  0.00  0.00     0.000 OA
ENDBRANCH 55 61
BRANCH 51 64
ATOM     64  O3  NAG B   5       6.711   7.796  17.7220  0.00  0.00     0.000 O
BRANCH 64 67
ATOM     65  C1  NAG B   5       5.013  10.842  18.9210  0.00  0.00     0.000 C
ATOM     66  C2  NAG B   5       5.942   9.640  18.9420  0.00  0.00     0.000 C
ATOM     67  C3  NAG B   5       6.010   9.013  17.5550  0.00  0.00     0.000 C
ATOM     68  C4  NAG B   5       4.604   8.724  17.0120  0.00  0.00     0.000 C
ATOM     69  C5  NAG B   5       3.722   9.957  17.1180  0.00  0.00     0.000 C
ATOM     70  O5  NAG B   5       3.738  10.455  18.4640  0.00  0.00     0.000 O
ATOM     71   O  NAG B   5       4.718   8.289  15.6730  0.00  0.00     0.000 O
ATOM     73  HD  NAG B   5       4.118   7.722  15.9340  0.00  0.00     0.000 HD
ATOM     73   C  NAG B   5       2.259   9.725  16.7150  0.00  0.00     0.000 C
ATOM     74   O  NAG B   5       1.650   8.787  17.6260  0.00  0.00     0.000 O
ATOM     76  HD  NAG B   5       1.050   8.219  17.8870  0.00  0.00     0.000 HD
BRANCH 66 78
ATOM     76   N  NAG B   5       7.194  10.196  19.4920  0.00  0.00     0.000 N
ATOM     78  HD  NAG B   5       6.649   9.549  19.6770  0.00  0.00     0.000 HD
ATOM     78   C  NAG B   5       7.967   9.624  20.4280  0.00  0.00     0.000 C
ATOM     79   C  NAG B   5       9.191  10.430  20.7690  0.00  0.00     0.000 C
ATOM     80   O  NAG B   5       7.684   8.504  20.9850  0.00  0.00     0.000 OA
ENDBRANCH 66 78
BRANCH 65 81
ATOM     81  O4  BDP B   6       4.910  11.407  20.2340  0.00  0.00     0.000 O
BRANCH 81 85
ATOM     82  C1  BDP B   6       4.235  15.230  22.0480  0.00  0.00     0.000 C
ATOM     83  C2  BDP B   6       3.019  14.341  21.8050  0.00  0.00     0.000 C
ATOM     84  C3  BDP B   6       3.394  12.879  21.5470  0.00  0.00     0.000 C
ATOM     85  C4  BDP B   6       4.455  12.745  20.4520  0.00  0.00     0.000 C
ATOM     86  C5  BDP B   6       5.613  13.714  20.7910  0.00  0.00     0.000 C
ATOM     87  O5  BDP B   6       5.140  15.089  20.9630  0.00  0.00     0.000 O
ATOM     88   O  BDP B   6       2.238  14.431  22.9930  0.00  0.00     0.000 O
ATOM     90  HD  BDP B   6       1.776  13.929  23.5270  0.00  0.00     0.000 HD
ATOM     90   O  BDP B   6       2.219  12.134  21.2150  0.00  0.00     0.000 O
ATOM     92  HD  BDP B   6       1.757  11.633  21.7490  0.00  0.00     0.000 HD
BRANCH 86 92
ATOM     92   C  BDP B   6       6.580  13.808  19.6360  0.00  0.00     0.000 C
ATOM     93   O  BDP B   6       6.272  14.500  18.6190  0.00  0.00     0.000 OA
ATOM     94   O  BDP B   6       7.687  13.196  19.7480  0.00  0.00     0.000 OA
ENDBRANCH 86 92
BRANCH 82 95
ATOM     95  O3  NAG B   7       3.795  16.602  22.0810  0.00  0.00     0.000 O
BRANCH 95 98
ATOM     96  C1  NAG B   7       3.633  19.385  24.4410  0.00  0.00     0.000 C
ATOM     97  C2  NAG B   7       3.168  18.511  23.2840  0.00  0.00     0.000 C
ATOM     98  C3  NAG B   7       4.262  17.458  23.1230  0.00  0.00     0.000 C
ATOM     99  C4  NAG B   7       5.594  18.135  22.8110  0.00  0.00     0.000 C
ATOM    100  C5  NAG B   7       5.927  19.195  23.8630  0.00  0.00     0.000 C
ATOM    101  O5  NAG B   7       4.816  20.066  24.0060  0.00  0.00     0.000 O
BRANCH 97 104
ATOM    102   N  NAG B   7       1.918  17.776  23.5200  0.00  0.00     0.000 N
ATOM    104  HD  NAG B   7       1.347  17.138  23.6500  0.00  0.00     0.000 HD
ATOM    104   O  NAG B   7      -0.167  17.019  23.0650  0.00  0.00     0.000 OA
ATOM    105   C  NAG B   7       0.803  17.742  22.7660  0.00  0.00     0.000 C
ATOM    106   C  NAG B   7       0.735  18.580  21.5350  0.00  0.00     0.000 C
ENDBRANCH 97 104
ATOM    107   O  NAG B   7       7.592  20.677  24.5930  0.00  0.00     0.000 O
ATOM    109  HD  NAG B   7       6.975  20.125  24.8460  0.00  0.00     0.000 HD
ATOM    109   O  NAG B   7       7.592  20.677  24.5930  0.00  0.00     0.000 O
ATOM    111  HD  NAG B   7       6.975  20.125  24.8460  0.00  0.00     0.000 HD
ENDBRANCH 95 98
ENDBRANCH 82 95
ENDBRANCH 81 85
ENDBRANCH 65 81
ENDBRANCH 64 67
ENDBRANCH 51 64
ENDBRANCH 50 54
ENDBRANCH 34 50
ENDBRANCH 33 36
ENDBRANCH 20 33
ENDBRANCH 19 23
ENDBRANCH 1 19
TORSDOF 19
ENDMDL
MODEL 34
REMARK VINA RESULT:      -5.1      8.429     12.670
ROOT
ATOM      1  C1  NAG B   1       8.941   7.421  16.4970  0.00  0.00     0.000 C
ATOM      2  C2  NAG B   1       9.351   6.481  17.6270  0.00  0.00     0.000 C
ATOM      3  C3  NAG B   1       9.083   7.085  18.9900  0.00  0.00     0.000 C
ATOM      4  C4  NAG B   1       9.861   8.398  19.0140  0.00  0.00     0.000 C
ATOM      5  C5  NAG B   1       9.299   9.335  17.9380  0.00  0.00     0.000 C
ATOM      6  O5  NAG B   1       9.444   8.761  16.6210  0.00  0.00     0.000 O
ATOM      7   O  NAG B   1       9.506   6.216  20.0650  0.00  0.00     0.000 O
ATOM      9  HD  NAG B   1       9.231   5.653  19.4670  0.00  0.00     0.000 HD
ATOM      9   O  NAG B   1       9.747   9.008  20.2890  0.00  0.00     0.000 O
ATOM     11  HD  NAG B   1       9.473   8.446  19.6910  0.00  0.00     0.000 HD
ATOM     11   C  NAG B   1       9.974  10.709  18.0360  0.00  0.00     0.000 C
ATOM     12   O  NAG B   1      10.014  11.358  16.7660  0.00  0.00     0.000 O
ATOM     14  HD  NAG B   1       9.739  10.795  16.1670  0.00  0.00     0.000 HD
ENDROOT
BRANCH 2 16
ATOM     14   N  NAG B   1       8.684   5.190  17.3840  0.00  0.00     0.000 N
ATOM     16  HD  NAG B   1       8.469   4.632  16.7580  0.00  0.00     0.000 HD
ATOM     16   C  NAG B   1       9.354   4.039  17.2010  0.00  0.00     0.000 C
ATOM     17   C  NAG B   1      10.860   4.036  17.2110  0.00  0.00     0.000 C
ATOM     18   O  NAG B   1       8.760   2.971  17.0500  0.00  0.00     0.000 OA
ENDBRANCH 2 16
BRANCH 1 19
ATOM     19  O4  BDP B   2       9.587   6.864  15.3610  0.00  0.00     0.000 O
BRANCH 19 23
ATOM     20  C1  BDP B   2      12.283   8.190  12.5480  0.00  0.00     0.000 C
ATOM     21  C2  BDP B   2      12.813   8.011  13.9560  0.00  0.00     0.000 C
ATOM     22  C3  BDP B   2      11.889   7.145  14.7820  0.00  0.00     0.000 C
ATOM     23  C4  BDP B   2      10.483   7.734  14.7120  0.00  0.00     0.000 C
ATOM     24  C5  BDP B   2      10.059   7.854  13.2620  0.00  0.00     0.000 C
ATOM     25  O5  BDP B   2      10.958   8.702  12.5740  0.00  0.00     0.000 O
ATOM     26   O  BDP B   2      14.102   7.437  13.9240  0.00  0.00     0.000 O
ATOM     28  HD  BDP B   2      13.998   7.637  13.0880  0.00  0.00     0.000 HD
ATOM     28   O  BDP B   2      12.381   7.081  16.1300  0.00  0.00     0.000 O
ATOM     30  HD  BDP B   2      12.277   7.280  15.2940  0.00  0.00     0.000 HD
BRANCH 24 30
ATOM     30   C  BDP B   2       8.697   8.434  13.1210  0.00  0.00     0.000 C
ATOM     31   O  BDP B   2       8.517   9.590  13.5670  0.00  0.00     0.000 OA
ATOM     32   O  BDP B   2       7.799   7.734  12.5720  0.00  0.00     0.000 OA
ENDBRANCH 24 30
BRANCH 20 33
ATOM     33  O3  NAG B   3      13.140   9.152  11.9820  0.00  0.00     0.000 O
BRANCH 33 36
ATOM     34  C1  NAG B   3      14.758   9.013   8.5890  0.00  0.00     0.000 C
ATOM     35  C2  NAG B   3      14.642   8.912  10.0980  0.00  0.00     0.000 C
ATOM     36  C3  NAG B   3      13.182   9.049  10.5560  0.00  0.00     0.000 C
ATOM     37  C4  NAG B   3      12.578  10.315   9.9520  0.00  0.00     0.000 C
ATOM     38  C5  NAG B   3      12.827  10.353   8.4460  0.00  0.00     0.000 C
ATOM     39  O5  NAG B   3      14.218  10.263   8.1840  0.00  0.00     0.000 O
ATOM     40   O  NAG B   3      11.165  10.354  10.2030  0.00  0.00     0.000 O
ATOM     42  HD  NAG B   3      11.140  10.449   9.3430  0.00  0.00     0.000 HD
ATOM     42   C  NAG B   3      12.372  11.647   7.7780  0.00  0.00     0.000 C
ATOM     43   O  NAG B   3      13.165  12.740   8.2590  0.00  0.00     0.000 O
ATOM     45  HD  NAG B   3      13.140  12.835   7.3980  0.00  0.00     0.000 HD
BRANCH 35 47
ATOM     45   N  NAG B   3      15.773   8.746  11.0010  0.00  0.00     0.000 N
ATOM     47  HD  NAG B   3      15.369   9.505  11.1080  0.00  0.00     0.000 HD
ATOM     47   C  NAG B   3      16.078   7.594  11.5630  0.00  0.00     0.000 C
ATOM     48   C  NAG B   3      17.263   7.601  12.4840  0.00  0.00     0.000 C
ATOM     49   O  NAG B   3      15.416   6.577  11.3670  0.00  0.00     0.000 OA
ENDBRANCH 35 47
BRANCH 34 50
ATOM     50  O4  BDP B   4      16.151   8.982   8.3580  0.00  0.00     0.000 O
BRANCH 50 54
ATOM     51  C1  BDP B   4      19.037   8.693   5.5050  0.00  0.00     0.000 C
ATOM     52  C2  BDP B   4      18.146   9.924   5.3810  0.00  0.00     0.000 C
ATOM     53  C3  BDP B   4      17.399  10.107   6.6660  0.00  0.00     0.000 C
ATOM     54  C4  BDP B   4      16.623   8.804   7.0120  0.00  0.00     0.000 C
ATOM     55  C5  BDP B   4      17.505   7.565   6.9310  0.00  0.00     0.000 C
ATOM     56  O5  BDP B   4      18.227   7.548   5.7030  0.00  0.00     0.000 O
ATOM     57   O  BDP B   4      18.929  11.071   5.1270  0.00  0.00     0.000 O
ATOM     59  HD  BDP B   4      18.823  11.225   4.2810  0.00  0.00     0.000 HD
ATOM     59   O  BDP B   4      16.432  11.154   6.4440  0.00  0.00     0.000 O
ATOM     61  HD  BDP B   4      16.326  11.308   5.5980  0.00  0.00     0.000 HD
BRANCH 55 61
ATOM     61   C  BDP B   4      16.635   6.324   7.0160  0.00  0.00     0.000 C
ATOM     62   O  BDP B   4      16.656   5.521   6.0470  0.00  0.00     0.000 OA
ATOM     63   O  BDP B   4      15.931   6.154   8.0570  0.00  0.00     0.000 OA
ENDBRANCH 55 61
BRANCH 51 64
ATOM     64  O3  NAG B   5      19.787   8.583   4.2800  0.00  0.00     0.000 O
BRANCH 64 67
ATOM     65  C1  NAG B   5      23.279   7.404   4.1880  0.00  0.00     0.000 C
ATOM     66  C2  NAG B   5      22.117   8.369   4.3450  0.00  0.00     0.000 C
ATOM     67  C3  NAG B   5      20.802   7.601   4.3500  0.00  0.00     0.000 C
ATOM     68  C4  NAG B   5      20.701   6.674   3.1310  0.00  0.00     0.000 C
ATOM     69  C5  NAG B   5      21.948   5.814   3.0050  0.00  0.00     0.000 C
ATOM     70  O5  NAG B   5      23.118   6.645   3.0110  0.00  0.00     0.000 O
ATOM     71   O  NAG B   5      19.542   5.878   3.2630  0.00  0.00     0.000 O
ATOM     73  HD  NAG B   5      19.467   6.061   2.4200  0.00  0.00     0.000 HD
ATOM     73   C  NAG B   5      21.991   4.945   1.7400  0.00  0.00     0.000 C
ATOM     74   O  NAG B   5      22.037   5.791   0.5720  0.00  0.00     0.000 O
ATOM     76  HD  NAG B   5      21.962   5.974  -0.2710  0.00  0.00     0.000 HD
BRANCH 66 78
ATOM     76   N  NAG B   5      22.516   9.121   5.5500  0.00  0.00     0.000 N
ATOM     78  HD  NAG B   5      22.256   9.301   4.7440  0.00  0.00     0.000 HD
ATOM     78   C  NAG B   5      22.367  10.442   5.7420  0.00  0.00     0.000 C
ATOM     79   C  NAG B   5      22.856  10.912   7.0850  0.00  0.00     0.000 C
ATOM     80   O  NAG B   5      21.866  11.228   4.8610  0.00  0.00     0.000 OA
ENDBRANCH 66 78
BRANCH 65 81
ATOM     81  O4  BDP B   6      24.517   8.126   4.1350  0.00  0.00     0.000 O
BRANCH 81 85
ATOM     82  C1  BDP B   6      28.698   7.468   4.8030  0.00  0.00     0.000 C
ATOM     83  C2  BDP B   6      28.145   7.142   3.4190  0.00  0.00     0.000 C
ATOM     84  C3  BDP B   6      26.778   7.780   3.1580  0.00  0.00     0.000 C
ATOM     85  C4  BDP B   6      25.782   7.478   4.2810  0.00  0.00     0.000 C
ATOM     86  C5  BDP B   6      26.467   7.815   5.6270  0.00  0.00     0.000 C
ATOM     87  O5  BDP B   6      27.738   7.106   5.7850  0.00  0.00     0.000 O
ATOM     88   O  BDP B   6      29.098   7.662   2.4960  0.00  0.00     0.000 O
ATOM     90  HD  BDP B   6      29.134   8.094   1.7460  0.00  0.00     0.000 HD
ATOM     90   O  BDP B   6      26.275   7.339   1.8950  0.00  0.00     0.000 O
ATOM     92  HD  BDP B   6      26.311   7.771   1.1450  0.00  0.00     0.000 HD
BRANCH 86 92
ATOM     92   C  BDP B   6      25.633   7.319   6.7840  0.00  0.00     0.000 C
ATOM     93   O  BDP B   6      25.673   6.092   7.1020  0.00  0.00     0.000 OA
ATOM     94   O  BDP B   6      24.933   8.175   7.4100  0.00  0.00     0.000 OA
ENDBRANCH 86 92
BRANCH 82 95
ATOM     95  O3  NAG B   7      29.877   6.668   5.0210  0.00  0.00     0.000 O
BRANCH 95 98
ATOM     96  C1  NAG B   7      33.456   7.118   5.5940  0.00  0.00     0.000 C
ATOM     97  C2  NAG B   7      32.205   6.424   5.0700  0.00  0.00     0.000 C
ATOM     98  C3  NAG B   7      31.044   7.283   5.5650  0.00  0.00     0.000 C
ATOM     99  C4  NAG B   7      31.053   7.341   7.0900  0.00  0.00     0.000 C
ATOM    100  C5  NAG B   7      32.414   7.809   7.6110  0.00  0.00     0.000 C
ATOM    101  O5  NAG B   7      33.430   7.012   7.0220  0.00  0.00     0.000 O
BRANCH 97 104
ATOM    102   N  NAG B   7      32.017   6.380   3.6140  0.00  0.00     0.000 N
ATOM    104  HD  NAG B   7      31.681   6.476   2.8210  0.00  0.00     0.000 HD
ATOM    104   O  NAG B   7      31.736   5.423   1.5800  0.00  0.00     0.000 OA
ATOM    105   C  NAG B   7      31.963   5.308   2.8010  0.00  0.00     0.000 C
ATOM    106   C  NAG B   7      32.166   3.950   3.3790  0.00  0.00     0.000 C
ENDBRANCH 97 104
ATOM    107   O  NAG B   7      33.583   8.444   9.5420  0.00  0.00     0.000 O
ATOM    109  HD  NAG B   7      33.463   8.609   8.7010  0.00  0.00     0.000 HD
ATOM    109   O  NAG B   7      33.583   8.444   9.5420  0.00  0.00     0.000 O
ATOM    111  HD  NAG B   7      33.463   8.609   8.7010  0.00  0.00     0.000 HD
ENDBRANCH 95 98
ENDBRANCH 82 95
ENDBRANCH 81 85
ENDBRANCH 65 81
ENDBRANCH 64 67
ENDBRANCH 51 64
ENDBRANCH 50 54
ENDBRANCH 34 50
ENDBRANCH 33 36
ENDBRANCH 20 33
ENDBRANCH 19 23
ENDBRANCH 1 19
TORSDOF 19
ENDMDL
MODEL 35
REMARK VINA RESULT:      -5.1      8.071     13.169
ROOT
ATOM      1  C1  NAG B   1      10.595   9.579  11.8390  0.00  0.00     0.000 C
ATOM      2  C2  NAG B   1      10.526   8.073  12.0790  0.00  0.00     0.000 C
ATOM      3  C3  NAG B   1       9.224   7.667  12.7400  0.00  0.00     0.000 C
ATOM      4  C4  NAG B   1       9.159   8.466  14.0380  0.00  0.00     0.000 C
ATOM      5  C5  NAG B   1       9.099   9.962  13.7050  0.00  0.00     0.000 C
ATOM      6  O5  NAG B   1      10.278  10.383  12.9870  0.00  0.00     0.000 O
ATOM      7   O  NAG B   1       9.168   6.246  13.0060  0.00  0.00     0.000 O
ATOM      9  HD  NAG B   1       9.612   6.280  12.2630  0.00  0.00     0.000 HD
ATOM      9   O  NAG B   1       8.011   8.093  14.7830  0.00  0.00     0.000 O
ATOM     11  HD  NAG B   1       8.455   8.127  14.0400  0.00  0.00     0.000 HD
ATOM     11   C  NAG B   1       8.894  10.776  14.9880  0.00  0.00     0.000 C
ATOM     12   O  NAG B   1       9.465  12.078  14.8720  0.00  0.00     0.000 O
ATOM     14  HD  NAG B   1       9.909  12.112  14.1290  0.00  0.00     0.000 HD
ENDROOT
BRANCH 2 16
ATOM     14   N  NAG B   1      10.705   7.271  10.8560  0.00  0.00     0.000 N
ATOM     16  HD  NAG B   1      11.076   7.281  10.0730  0.00  0.00     0.000 HD
ATOM     16   C  NAG B   1      11.822   6.571  10.5940  0.00  0.00     0.000 C
ATOM     17   C  NAG B   1      12.976   6.606  11.5610  0.00  0.00     0.000 C
ATOM     18   O  NAG B   1      11.916   5.872   9.5850  0.00  0.00     0.000 OA
ENDBRANCH 2 16
BRANCH 1 19
ATOM     19  O4  BDP B   2      11.974   9.801  11.5740  0.00  0.00     0.000 O
BRANCH 19 23
ATOM     20  C1  BDP B   2      14.213  12.824   9.9040  0.00  0.00     0.000 C
ATOM     21  C2  BDP B   2      13.566  13.125  11.2400  0.00  0.00     0.000 C
ATOM     22  C3  BDP B   2      13.140  11.855  11.9420  0.00  0.00     0.000 C
ATOM     23  C4  BDP B   2      12.263  11.048  10.9890  0.00  0.00     0.000 C
ATOM     24  C5  BDP B   2      13.018  10.800   9.6970  0.00  0.00     0.000 C
ATOM     25  O5  BDP B   2      13.349  12.037   9.0970  0.00  0.00     0.000 O
ATOM     26   O  BDP B   2      14.455  13.848  12.0640  0.00  0.00     0.000 O
ATOM     28  HD  BDP B   2      14.870  13.895  11.3050  0.00  0.00     0.000 HD
ATOM     28   O  BDP B   2      12.450  12.193  13.1550  0.00  0.00     0.000 O
ATOM     30  HD  BDP B   2      12.864  12.240  12.3960  0.00  0.00     0.000 HD
BRANCH 24 30
ATOM     30   C  BDP B   2      12.213  10.025   8.7160  0.00  0.00     0.000 C
ATOM     31   O  BDP B   2      11.055  10.435   8.4710  0.00  0.00     0.000 OA
ATOM     32   O  BDP B   2      12.731   8.998   8.1920  0.00  0.00     0.000 OA
ENDBRANCH 24 30
BRANCH 20 33
ATOM     33  O3  NAG B   3      14.374  14.090   9.3120  0.00  0.00     0.000 O
BRANCH 33 36
ATOM     34  C1  NAG B   3      16.729  14.336   6.3890  0.00  0.00     0.000 C
ATOM     35  C2  NAG B   3      16.289  14.226   7.8360  0.00  0.00     0.000 C
ATOM     36  C3  NAG B   3      14.775  13.986   7.9430  0.00  0.00     0.000 C
ATOM     37  C4  NAG B   3      14.037  15.046   7.1300  0.00  0.00     0.000 C
ATOM     38  C5  NAG B   3      14.616  15.130   5.7200  0.00  0.00     0.000 C
ATOM     39  O5  NAG B   3      16.006  15.399   5.7850  0.00  0.00     0.000 O
ATOM     40   O  NAG B   3      12.640  14.721   7.0530  0.00  0.00     0.000 O
ATOM     42  HD  NAG B   3      12.795  14.797   6.2050  0.00  0.00     0.000 HD
ATOM     42   C  NAG B   3      14.024  16.255   4.8760  0.00  0.00     0.000 C
ATOM     43   O  NAG B   3      14.384  17.521   5.4430  0.00  0.00     0.000 O
ATOM     45  HD  NAG B   3      14.540  17.597   4.5950  0.00  0.00     0.000 HD
BRANCH 35 47
ATOM     45   N  NAG B   3      17.120  14.369   9.0250  0.00  0.00     0.000 N
ATOM     47  HD  NAG B   3      16.477  14.949   8.9960  0.00  0.00     0.000 HD
ATOM     47   C  NAG B   3      17.621  13.340   9.6780  0.00  0.00     0.000 C
ATOM     48   C  NAG B   3      18.439  13.662  10.8930  0.00  0.00     0.000 C
ATOM     49   O  NAG B   3      17.409  12.181   9.3280  0.00  0.00     0.000 OA
ENDBRANCH 35 47
BRANCH 34 50
ATOM     50  O4  BDP B   4      18.100  14.664   6.4810  0.00  0.00     0.000 O
BRANCH 50 54
ATOM     51  C1  BDP B   4      21.716  14.358   4.6410  0.00  0.00     0.000 C
ATOM     52  C2  BDP B   4      20.677  15.158   3.8630  0.00  0.00     0.000 C
ATOM     53  C3  BDP B   4      19.552  15.509   4.7880  0.00  0.00     0.000 C
ATOM     54  C4  BDP B   4      18.987  14.215   5.4420  0.00  0.00     0.000 C
ATOM     55  C5  BDP B   4      20.082  13.340   6.0360  0.00  0.00     0.000 C
ATOM     56  O5  BDP B   4      21.133  13.149   5.0930  0.00  0.00     0.000 O
ATOM     57   O  BDP B   4      21.251  16.343   3.3550  0.00  0.00     0.000 O
ATOM     59  HD  BDP B   4      21.380  16.180   2.5140  0.00  0.00     0.000 HD
ATOM     59   O  BDP B   4      18.509  16.090   3.9780  0.00  0.00     0.000 O
ATOM     61  HD  BDP B   4      18.638  15.927   3.1380  0.00  0.00     0.000 HD
BRANCH 55 61
ATOM     61   C  BDP B   4      19.497  11.991   6.4110  0.00  0.00     0.000 C
ATOM     62   O  BDP B   4      19.929  11.428   7.4510  0.00  0.00     0.000 OA
ATOM     63   O  BDP B   4      18.601  11.495   5.6620  0.00  0.00     0.000 OA
ENDBRANCH 55 61
BRANCH 51 64
ATOM     64  O3  NAG B   5      22.811  14.093   3.7430  0.00  0.00     0.000 O
BRANCH 64 67
ATOM     65  C1  NAG B   5      26.319  14.112   4.8780  0.00  0.00     0.000 C
ATOM     66  C2  NAG B   5      24.987  14.659   4.3950  0.00  0.00     0.000 C
ATOM     67  C3  NAG B   5      23.939  13.553   4.4040  0.00  0.00     0.000 C
ATOM     68  C4  NAG B   5      24.435  12.318   3.6410  0.00  0.00     0.000 C
ATOM     69  C5  NAG B   5      25.813  11.901   4.1300  0.00  0.00     0.000 C
ATOM     70  O5  NAG B   5      26.709  13.021   4.0760  0.00  0.00     0.000 O
ATOM     71   O  NAG B   5      23.496  11.276   3.8090  0.00  0.00     0.000 O
ATOM     73  HD  NAG B   5      23.656  11.160   2.9660  0.00  0.00     0.000 HD
ATOM     73   C  NAG B   5      26.444  10.749   3.3360  0.00  0.00     0.000 C
ATOM     74   O  NAG B   5      26.674  11.169   1.9750  0.00  0.00     0.000 O
ATOM     76  HD  NAG B   5      26.834  11.052   1.1320  0.00  0.00     0.000 HD
BRANCH 66 78
ATOM     76   N  NAG B   5      24.785  15.820   5.2830  0.00  0.00     0.000 N
ATOM     78  HD  NAG B   5      24.791  15.663   4.4310  0.00  0.00     0.000 HD
ATOM     78   C  NAG B   5      24.322  17.025   4.9130  0.00  0.00     0.000 C
ATOM     79   C  NAG B   5      24.209  18.000   6.0530  0.00  0.00     0.000 C
ATOM     80   O  NAG B   5      24.014  17.319   3.7030  0.00  0.00     0.000 OA
ENDBRANCH 66 78
BRANCH 65 81
ATOM     81  O4  BDP B   6      27.320  15.137   4.8280  0.00  0.00     0.000 O
BRANCH 81 85
ATOM     82  C1  BDP B   6      31.092  16.134   6.6000  0.00  0.00     0.000 C
ATOM     83  C2  BDP B   6      31.085  15.067   5.5090  0.00  0.00     0.000 C
ATOM     84  C3  BDP B   6      29.802  15.077   4.6740  0.00  0.00     0.000 C
ATOM     85  C4  BDP B   6      28.549  15.036   5.5510  0.00  0.00     0.000 C
ATOM     86  C5  BDP B   6      28.688  16.133   6.6330  0.00  0.00     0.000 C
ATOM     87  O5  BDP B   6      29.927  15.989   7.3990  0.00  0.00     0.000 O
ATOM     88   O  BDP B   6      32.200  15.370   4.6740  0.00  0.00     0.000 O
ATOM     90  HD  BDP B   6      32.416  15.404   3.8360  0.00  0.00     0.000 HD
ATOM     90   O  BDP B   6      29.820  13.984   3.7540  0.00  0.00     0.000 O
ATOM     92  HD  BDP B   6      30.036  14.017   2.9160  0.00  0.00     0.000 HD
BRANCH 86 92
ATOM     92   C  BDP B   6      27.603  15.993   7.6730  0.00  0.00     0.000 C
ATOM     93   O  BDP B   6      26.916  17.008   7.9990  0.00  0.00     0.000 OA
ATOM     94   O  BDP B   6      27.410  14.839   8.1660  0.00  0.00     0.000 OA
ENDBRANCH 86 92
BRANCH 82 95
ATOM     95  O3  NAG B   7      32.239  15.913   7.4440  0.00  0.00     0.000 O
BRANCH 95 98
ATOM     96  C1  NAG B   7      35.313  17.618   8.4340  0.00  0.00     0.000 C
ATOM     97  C2  NAG B   7      34.427  16.425   8.1010  0.00  0.00     0.000 C
ATOM     98  C3  NAG B   7      33.051  17.025   7.8180  0.00  0.00     0.000 C
ATOM     99  C4  NAG B   7      32.546  17.768   9.0510  0.00  0.00     0.000 C
ATOM    100  C5  NAG B   7      33.569  18.803   9.5230  0.00  0.00     0.000 C
ATOM    101  O5  NAG B   7      34.831  18.170   9.6650  0.00  0.00     0.000 O
BRANCH 97 104
ATOM    102   N  NAG B   7      34.739  15.670   6.8790  0.00  0.00     0.000 N
ATOM    104  HD  NAG B   7      34.674  15.289   6.1040  0.00  0.00     0.000 HD
ATOM    104   O  NAG B   7      35.299  13.860   5.6380  0.00  0.00     0.000 OA
ATOM    105   C  NAG B   7      35.125  14.386   6.7550  0.00  0.00     0.000 C
ATOM    106   C  NAG B   7      35.336  13.571   7.9850  0.00  0.00     0.000 C
ENDBRANCH 97 104
ATOM    107   O  NAG B   7      33.921  20.562  11.0350  0.00  0.00     0.000 O
ATOM    109  HD  NAG B   7      34.063  20.283  10.2270  0.00  0.00     0.000 HD
ATOM    109   O  NAG B   7      33.921  20.562  11.0350  0.00  0.00     0.000 O
ATOM    111  HD  NAG B   7      34.063  20.283  10.2270  0.00  0.00     0.000 HD
ENDBRANCH 95 98
ENDBRANCH 82 95
ENDBRANCH 81 85
ENDBRANCH 65 81
ENDBRANCH 64 67
ENDBRANCH 51 64
ENDBRANCH 50 54
ENDBRANCH 34 50
ENDBRANCH 33 36
ENDBRANCH 20 33
ENDBRANCH 19 23
ENDBRANCH 1 19
TORSDOF 19
ENDMDL
MODEL 36
REMARK VINA RESULT:      -5.1      8.258     13.712
ROOT
ATOM      1  C1  NAG B   1      10.558   9.556  11.7990  0.00  0.00     0.000 C
ATOM      2  C2  NAG B   1      10.522   8.049  12.0350  0.00  0.00     0.000 C
ATOM      3  C3  NAG B   1       9.231   7.612  12.6950  0.00  0.00     0.000 C
ATOM      4  C4  NAG B   1       9.148   8.406  13.9950  0.00  0.00     0.000 C
ATOM      5  C5  NAG B   1       9.054   9.901  13.6660  0.00  0.00     0.000 C
ATOM      6  O5  NAG B   1      10.224  10.350  12.9480  0.00  0.00     0.000 O
ATOM      7   O  NAG B   1       9.206   6.190  12.9580  0.00  0.00     0.000 O
ATOM      9  HD  NAG B   1       9.649   6.235  12.2150  0.00  0.00     0.000 HD
ATOM      9   O  NAG B   1       8.009   8.006  14.7390  0.00  0.00     0.000 O
ATOM     11  HD  NAG B   1       8.452   8.051  13.9960  0.00  0.00     0.000 HD
ATOM     11   C  NAG B   1       8.832  10.708  14.9510  0.00  0.00     0.000 C
ATOM     12   O  NAG B   1       9.374  12.023  14.8380  0.00  0.00     0.000 O
ATOM     14  HD  NAG B   1       9.816  12.068  14.0950  0.00  0.00     0.000 HD
ENDROOT
BRANCH 2 16
ATOM     14   N  NAG B   1      10.690   7.179  10.8580  0.00  0.00     0.000 N
ATOM     16  HD  NAG B   1      10.993   7.167  10.0470  0.00  0.00     0.000 HD
ATOM     16   C  NAG B   1      11.852   6.579  10.5460  0.00  0.00     0.000 C
ATOM     17   C  NAG B   1      13.069   6.807  11.4040  0.00  0.00     0.000 C
ATOM     18   O  NAG B   1      11.940   5.820   9.5820  0.00  0.00     0.000 OA
ENDBRANCH 2 16
BRANCH 1 19
ATOM     19  O4  BDP B   2      11.931   9.810  11.5340  0.00  0.00     0.000 O
BRANCH 19 23
ATOM     20  C1  BDP B   2      14.098  12.869   9.8340  0.00  0.00     0.000 C
ATOM     21  C2  BDP B   2      13.429  13.173  11.1580  0.00  0.00     0.000 C
ATOM     22  C3  BDP B   2      13.033  11.904  11.8770  0.00  0.00     0.000 C
ATOM     23  C4  BDP B   2      12.191  11.054  10.9300  0.00  0.00     0.000 C
ATOM     24  C5  BDP B   2      12.965  10.806   9.6500  0.00  0.00     0.000 C
ATOM     25  O5  BDP B   2      13.267  12.043   9.0320  0.00  0.00     0.000 O
ATOM     26   O  BDP B   2      14.288  13.936  11.9770  0.00  0.00     0.000 O
ATOM     28  HD  BDP B   2      14.709  13.982  11.2220  0.00  0.00     0.000 HD
ATOM     28   O  BDP B   2      12.321  12.242  13.0770  0.00  0.00     0.000 O
ATOM     30  HD  BDP B   2      12.741  12.288  12.3220  0.00  0.00     0.000 HD
BRANCH 24 30
ATOM     30   C  BDP B   2      12.194   9.991   8.6750  0.00  0.00     0.000 C
ATOM     31   O  BDP B   2      12.776   9.008   8.1620  0.00  0.00     0.000 OA
ATOM     32   O  BDP B   2      11.007  10.334   8.4110  0.00  0.00     0.000 OA
ENDBRANCH 24 30
BRANCH 20 33
ATOM     33  O3  NAG B   3      14.229  14.128   9.2210  0.00  0.00     0.000 O
BRANCH 33 36
ATOM     34  C1  NAG B   3      16.784  14.465   6.4800  0.00  0.00     0.000 C
ATOM     35  C2  NAG B   3      16.240  14.361   7.8930  0.00  0.00     0.000 C
ATOM     36  C3  NAG B   3      14.742  14.018   7.8910  0.00  0.00     0.000 C
ATOM     37  C4  NAG B   3      13.999  15.003   6.9910  0.00  0.00     0.000 C
ATOM     38  C5  NAG B   3      14.681  15.093   5.6280  0.00  0.00     0.000 C
ATOM     39  O5  NAG B   3      16.040  15.460   5.7910  0.00  0.00     0.000 O
ATOM     40   O  NAG B   3      12.638  14.580   6.8180  0.00  0.00     0.000 O
ATOM     42  HD  NAG B   3      12.854  14.646   5.9820  0.00  0.00     0.000 HD
ATOM     42   C  NAG B   3      14.082  16.153   4.7070  0.00  0.00     0.000 C
ATOM     43   O  NAG B   3      14.310  17.454   5.2620  0.00  0.00     0.000 O
ATOM     45  HD  NAG B   3      14.526  17.520   4.4260  0.00  0.00     0.000 HD
BRANCH 35 47
ATOM     45   N  NAG B   3      16.997  14.593   9.1160  0.00  0.00     0.000 N
ATOM     47  HD  NAG B   3      16.345  15.154   9.0160  0.00  0.00     0.000 HD
ATOM     47   C  NAG B   3      17.480  13.616   9.8570  0.00  0.00     0.000 C
ATOM     48   C  NAG B   3      18.218  14.028  11.0960  0.00  0.00     0.000 C
ATOM     49   O  NAG B   3      17.313  12.433   9.5650  0.00  0.00     0.000 OA
ENDBRANCH 35 47
BRANCH 34 50
ATOM     50  O4  BDP B   4      18.118  14.890   6.6670  0.00  0.00     0.000 O
BRANCH 50 54
ATOM     51  C1  BDP B   4      21.877  14.765   5.1150  0.00  0.00     0.000 C
ATOM     52  C2  BDP B   4      20.818  15.309   4.1630  0.00  0.00     0.000 C
ATOM     53  C3  BDP B   4      19.592  15.650   4.9530  0.00  0.00     0.000 C
ATOM     54  C4  BDP B   4      19.127  14.406   5.7650  0.00  0.00     0.000 C
ATOM     55  C5  BDP B   4      20.265  13.769   6.5510  0.00  0.00     0.000 C
ATOM     56  O5  BDP B   4      21.401  13.573   5.7130  0.00  0.00     0.000 O
ATOM     57   O  BDP B   4      21.293  16.468   3.5120  0.00  0.00     0.000 O
ATOM     59  HD  BDP B   4      21.504  16.201   2.7160  0.00  0.00     0.000 HD
ATOM     59   O  BDP B   4      18.556  15.974   4.0030  0.00  0.00     0.000 O
ATOM     61  HD  BDP B   4      18.768  15.706   3.2070  0.00  0.00     0.000 HD
BRANCH 55 61
ATOM     61   C  BDP B   4      19.808  12.428   7.0950  0.00  0.00     0.000 C
ATOM     62   O  BDP B   4      20.238  12.070   8.2230  0.00  0.00     0.000 OA
ATOM     63   O  BDP B   4      19.015  11.732   6.3890  0.00  0.00     0.000 OA
ENDBRANCH 55 61
BRANCH 51 64
ATOM     64  O3  NAG B   5      23.061  14.509   4.3360  0.00  0.00     0.000 O
BRANCH 64 67
ATOM     65  C1  NAG B   5      26.447  15.102   5.6680  0.00  0.00     0.000 C
ATOM     66  C2  NAG B   5      25.106  15.414   5.0280  0.00  0.00     0.000 C
ATOM     67  C3  NAG B   5      24.185  14.205   5.1380  0.00  0.00     0.000 C
ATOM     68  C4  NAG B   5      24.870  12.940   4.6010  0.00  0.00     0.000 C
ATOM     69  C5  NAG B   5      26.242  12.763   5.2310  0.00  0.00     0.000 C
ATOM     70  O5  NAG B   5      27.014  13.962   5.0640  0.00  0.00     0.000 O
ATOM     71   O  NAG B   5      24.039  11.830   4.8650  0.00  0.00     0.000 O
ATOM     73  HD  NAG B   5      24.275  11.615   4.0600  0.00  0.00     0.000 HD
ATOM     73   C  NAG B   5      27.054  11.593   4.6580  0.00  0.00     0.000 C
ATOM     74   O  NAG B   5      27.343  11.839   3.2660  0.00  0.00     0.000 O
ATOM     76  HD  NAG B   5      27.579  11.624   2.4620  0.00  0.00     0.000 HD
BRANCH 66 78
ATOM     76   N  NAG B   5      24.717  16.660   5.7160  0.00  0.00     0.000 N
ATOM     78  HD  NAG B   5      24.799  16.382   4.9000  0.00  0.00     0.000 HD
ATOM     78   C  NAG B   5      24.151  17.734   5.1430  0.00  0.00     0.000 C
ATOM     79   C  NAG B   5      23.855  18.845   6.1140  0.00  0.00     0.000 C
ATOM     80   O  NAG B   5      23.897  17.810   3.8880  0.00  0.00     0.000 OA
ENDBRANCH 66 78
BRANCH 65 81
ATOM     81  O4  BDP B   6      27.333  16.220   5.5260  0.00  0.00     0.000 O
BRANCH 81 85
ATOM     82  C1  BDP B   6      30.834  17.881   7.3540  0.00  0.00     0.000 C
ATOM     83  C2  BDP B   6      31.029  16.716   6.3880  0.00  0.00     0.000 C
ATOM     84  C3  BDP B   6      29.807  16.472   5.4970  0.00  0.00     0.000 C
ATOM     85  C4  BDP B   6      28.518  16.356   6.3130  0.00  0.00     0.000 C
ATOM     86  C5  BDP B   6      28.453  17.567   7.2740  0.00  0.00     0.000 C
ATOM     87  O5  BDP B   6      29.651  17.666   8.1090  0.00  0.00     0.000 O
ATOM     88   O  BDP B   6      32.145  17.076   5.5780  0.00  0.00     0.000 O
ATOM     90  HD  BDP B   6      32.406  17.052   4.7530  0.00  0.00     0.000 HD
ATOM     90   O  BDP B   6      30.019  15.302   4.7040  0.00  0.00     0.000 O
ATOM     92  HD  BDP B   6      30.280  15.277   3.8780  0.00  0.00     0.000 HD
BRANCH 86 92
ATOM     92   C  BDP B   6      27.333  17.393   8.2710  0.00  0.00     0.000 C
ATOM     93   O  BDP B   6      26.459  18.304   8.3940  0.00  0.00     0.000 OA
ATOM     94   O  BDP B   6      27.304  16.311   8.9360  0.00  0.00     0.000 OA
ENDBRANCH 86 92
BRANCH 82 95
ATOM     95  O3  NAG B   7      31.946  17.900   8.2710  0.00  0.00     0.000 O
BRANCH 95 98
ATOM     96  C1  NAG B   7      34.720  20.083   9.2110  0.00  0.00     0.000 C
ATOM     97  C2  NAG B   7      34.010  18.757   8.9710  0.00  0.00     0.000 C
ATOM     98  C3  NAG B   7      32.591  19.140   8.5560  0.00  0.00     0.000 C
ATOM     99  C4  NAG B   7      31.922  19.939   9.6720  0.00  0.00     0.000 C
ATOM    100  C5  NAG B   7      32.778  21.141  10.0720  0.00  0.00     0.000 C
ATOM    101  O5  NAG B   7      34.098  20.695  10.3460  0.00  0.00     0.000 O
BRANCH 97 104
ATOM    102   N  NAG B   7      34.487  17.923   7.8590  0.00  0.00     0.000 N
ATOM    104  HD  NAG B   7      34.515  17.456   7.1310  0.00  0.00     0.000 HD
ATOM    104   O  NAG B   7      35.343  16.080   6.8600  0.00  0.00     0.000 OA
ATOM    105   C  NAG B   7      35.039  16.696   7.9000  0.00  0.00     0.000 C
ATOM    106   C  NAG B   7      35.278  16.052   9.2240  0.00  0.00     0.000 C
ENDBRANCH 97 104
ATOM    107   O  NAG B   7      32.816  23.081  11.3910  0.00  0.00     0.000 O
ATOM    109  HD  NAG B   7      33.042  22.739  10.6280  0.00  0.00     0.000 HD
ATOM    109   O  NAG B   7      32.816  23.081  11.3910  0.00  0.00     0.000 O
ATOM    111  HD  NAG B   7      33.042  22.739  10.6280  0.00  0.00     0.000 HD
ENDBRANCH 95 98
ENDBRANCH 82 95
ENDBRANCH 81 85
ENDBRANCH 65 81
ENDBRANCH 64 67
ENDBRANCH 51 64
ENDBRANCH 50 54
ENDBRANCH 34 50
ENDBRANCH 33 36
ENDBRANCH 20 33
ENDBRANCH 19 23
ENDBRANCH 1 19
TORSDOF 19
ENDMDL
MODEL 37
REMARK VINA RESULT:      -5.1      8.613     15.655
ROOT
ATOM      1  C1  NAG B   1      10.562   9.511  11.7570  0.00  0.00     0.000 C
ATOM      2  C2  NAG B   1      10.592   8.004  11.9970  0.00  0.00     0.000 C
ATOM      3  C3  NAG B   1       9.346   7.521  12.7110  0.00  0.00     0.000 C
ATOM      4  C4  NAG B   1       9.287   8.315  14.0120  0.00  0.00     0.000 C
ATOM      5  C5  NAG B   1       9.125   9.805  13.6840  0.00  0.00     0.000 C
ATOM      6  O5  NAG B   1      10.247  10.295  12.9180  0.00  0.00     0.000 O
ATOM      7   O  NAG B   1       9.385   6.100  12.9760  0.00  0.00     0.000 O
ATOM      9  HD  NAG B   1       9.795   6.159  12.2150  0.00  0.00     0.000 HD
ATOM      9   O  NAG B   1       8.196   7.876  14.8030  0.00  0.00     0.000 O
ATOM     11  HD  NAG B   1       8.606   7.935  14.0420  0.00  0.00     0.000 HD
ATOM     11   C  NAG B   1       8.927  10.607  14.9760  0.00  0.00     0.000 C
ATOM     12   O  NAG B   1       9.414  11.940  14.8390  0.00  0.00     0.000 O
ATOM     14  HD  NAG B   1       9.824  12.000  14.0780  0.00  0.00     0.000 HD
ENDROOT
BRANCH 2 16
ATOM     14   N  NAG B   1      10.736   7.108  10.8360  0.00  0.00     0.000 N
ATOM     16  HD  NAG B   1      10.981   7.089  10.0050  0.00  0.00     0.000 HD
ATOM     16   C  NAG B   1      11.913   6.580  10.4560  0.00  0.00     0.000 C
ATOM     17   C  NAG B   1      13.168   6.920  11.2140  0.00  0.00     0.000 C
ATOM     18   O  NAG B   1      11.985   5.795   9.5110  0.00  0.00     0.000 OA
ENDBRANCH 2 16
BRANCH 1 19
ATOM     19  O4  BDP B   2      11.913   9.814  11.4350  0.00  0.00     0.000 O
BRANCH 19 23
ATOM     20  C1  BDP B   2      13.906  12.989   9.7350  0.00  0.00     0.000 C
ATOM     21  C2  BDP B   2      13.246  13.247  11.0740  0.00  0.00     0.000 C
ATOM     22  C3  BDP B   2      12.922  11.953  11.7840  0.00  0.00     0.000 C
ATOM     23  C4  BDP B   2      12.104  11.076  10.8410  0.00  0.00     0.000 C
ATOM     24  C5  BDP B   2      12.867  10.878   9.5470  0.00  0.00     0.000 C
ATOM     25  O5  BDP B   2      13.100  12.133   8.9370  0.00  0.00     0.000 O
ATOM     26   O  BDP B   2      14.083  14.040  11.8870  0.00  0.00     0.000 O
ATOM     28  HD  BDP B   2      14.489  14.114  11.1260  0.00  0.00     0.000 HD
ATOM     28   O  BDP B   2      12.216  12.244  13.0000  0.00  0.00     0.000 O
ATOM     30  HD  BDP B   2      12.621  12.318  12.2380  0.00  0.00     0.000 HD
BRANCH 24 30
ATOM     30   C  BDP B   2      12.118  10.038   8.5750  0.00  0.00     0.000 C
ATOM     31   O  BDP B   2      12.714   9.047   8.0930  0.00  0.00     0.000 OA
ATOM     32   O  BDP B   2      10.934  10.370   8.2820  0.00  0.00     0.000 OA
ENDBRANCH 24 30
BRANCH 20 33
ATOM     33  O3  NAG B   3      13.968  14.259   9.1350  0.00  0.00     0.000 O
BRANCH 33 36
ATOM     34  C1  NAG B   3      16.941  15.352   7.1050  0.00  0.00     0.000 C
ATOM     35  C2  NAG B   3      16.079  15.134   8.3340  0.00  0.00     0.000 C
ATOM     36  C3  NAG B   3      14.850  14.271   8.0100  0.00  0.00     0.000 C
ATOM     37  C4  NAG B   3      14.116  14.867   6.8120  0.00  0.00     0.000 C
ATOM     38  C5  NAG B   3      15.092  15.123   5.6660  0.00  0.00     0.000 C
ATOM     39  O5  NAG B   3      16.141  15.968   6.1060  0.00  0.00     0.000 O
ATOM     40   O  NAG B   3      13.086  13.968   6.3700  0.00  0.00     0.000 O
ATOM     42  HD  NAG B   3      13.500  14.062   5.6150  0.00  0.00     0.000 HD
ATOM     42   C  NAG B   3      14.467  15.840   4.4720  0.00  0.00     0.000 C
ATOM     43   O  NAG B   3      14.077  17.163   4.8580  0.00  0.00     0.000 O
ATOM     45  HD  NAG B   3      14.491  17.257   4.1030  0.00  0.00     0.000 HD
BRANCH 35 47
ATOM     45   N  NAG B   3      16.419  15.715   9.6270  0.00  0.00     0.000 N
ATOM     47  HD  NAG B   3      15.719  16.081   9.2710  0.00  0.00     0.000 HD
ATOM     47   C  NAG B   3      16.871  15.001  10.6380  0.00  0.00     0.000 C
ATOM     48   C  NAG B   3      17.153  15.753  11.9050  0.00  0.00     0.000 C
ATOM     49   O  NAG B   3      17.027  13.784  10.5570  0.00  0.00     0.000 OA
ENDBRANCH 35 47
BRANCH 34 50
ATOM     50  O4  BDP B   4      17.942  16.242   7.5530  0.00  0.00     0.000 O
BRANCH 50 54
ATOM     51  C1  BDP B   4      21.842  17.320   7.1350  0.00  0.00     0.000 C
ATOM     52  C2  BDP B   4      21.027  17.386   5.8480  0.00  0.00     0.000 C
ATOM     53  C3  BDP B   4      19.572  17.337   6.2000  0.00  0.00     0.000 C
ATOM     54  C4  BDP B   4      19.282  16.075   7.0620  0.00  0.00     0.000 C
ATOM     55  C5  BDP B   4      20.250  15.936   8.2290  0.00  0.00     0.000 C
ATOM     56  O5  BDP B   4      21.594  16.085   7.7820  0.00  0.00     0.000 O
ATOM     57   O  BDP B   4      21.301  18.586   5.1560  0.00  0.00     0.000 O
ATOM     59  HD  BDP B   4      21.826  18.349   4.5090  0.00  0.00     0.000 HD
ATOM     59   O  BDP B   4      18.845  17.206   4.9610  0.00  0.00     0.000 O
ATOM     61  HD  BDP B   4      19.370  16.970   4.3140  0.00  0.00     0.000 HD
BRANCH 55 61
ATOM     61   C  BDP B   4      20.082  14.564   8.8580  0.00  0.00     0.000 C
ATOM     62   O  BDP B   4      20.266  14.457  10.0990  0.00  0.00     0.000 OA
ATOM     63   O  BDP B   4      19.764  13.593   8.1060  0.00  0.00     0.000 OA
ENDBRANCH 55 61
BRANCH 51 64
ATOM     64  O3  NAG B   5      23.231  17.434   6.7670  0.00  0.00     0.000 O
BRANCH 64 67
ATOM     65  C1  NAG B   5      25.656  19.264   8.8550  0.00  0.00     0.000 C
ATOM     66  C2  NAG B   5      24.560  19.043   7.8280  0.00  0.00     0.000 C
ATOM     67  C3  NAG B   5      24.078  17.599   7.8870  0.00  0.00     0.000 C
ATOM     68  C4  NAG B   5      25.257  16.620   7.7840  0.00  0.00     0.000 C
ATOM     69  C5  NAG B   5      26.342  16.978   8.7870  0.00  0.00     0.000 C
ATOM     70  O5  NAG B   5      26.712  18.357   8.6360  0.00  0.00     0.000 O
ATOM     71   O  NAG B   5      24.776  15.310   7.9960  0.00  0.00     0.000 O
ATOM     73  HD  NAG B   5      25.310  15.137   7.3370  0.00  0.00     0.000 HD
ATOM     73   C  NAG B   5      27.616  16.130   8.6700  0.00  0.00     0.000 C
ATOM     74   O  NAG B   5      28.238  16.367   7.3900  0.00  0.00     0.000 O
ATOM     76  HD  NAG B   5      28.772  16.194   6.7300  0.00  0.00     0.000 HD
BRANCH 66 78
ATOM     76   N  NAG B   5      23.615  20.127   8.1580  0.00  0.00     0.000 N
ATOM     78  HD  NAG B   5      24.021  19.829   7.4540  0.00  0.00     0.000 HD
ATOM     78   C  NAG B   5      22.943  20.885   7.2760  0.00  0.00     0.000 C
ATOM     79   C  NAG B   5      22.038  21.897   7.9230  0.00  0.00     0.000 C
ATOM     80   O  NAG B   5      23.069  20.763   6.0060  0.00  0.00     0.000 OA
ENDBRANCH 66 78
BRANCH 65 81
ATOM     81  O4  BDP B   6      26.145  20.610   8.7720  0.00  0.00     0.000 O
BRANCH 81 85
ATOM     82  C1  BDP B   6      28.192  23.508  11.1750  0.00  0.00     0.000 C
ATOM     83  C2  BDP B   6      29.034  22.423  10.5080  0.00  0.00     0.000 C
ATOM     84  C3  BDP B   6      28.293  21.709   9.3740  0.00  0.00     0.000 C
ATOM     85  C4  BDP B   6      26.919  21.203   9.8170  0.00  0.00     0.000 C
ATOM     86  C5  BDP B   6      26.180  22.376  10.5050  0.00  0.00     0.000 C
ATOM     87  O5  BDP B   6      26.962  22.943  11.6050  0.00  0.00     0.000 O
ATOM     88   O  BDP B   6      30.175  23.097   9.9830  0.00  0.00     0.000 O
ATOM     90  HD  BDP B   6      30.674  23.111   9.2760  0.00  0.00     0.000 HD
ATOM     90   O  BDP B   6      29.098  20.637   8.8760  0.00  0.00     0.000 O
ATOM     92  HD  BDP B   6      29.598  20.651   8.1690  0.00  0.00     0.000 HD
BRANCH 86 92
ATOM     92   C  BDP B   6      24.919  21.887  11.1750  0.00  0.00     0.000 C
ATOM     93   O  BDP B   6      23.812  22.444  10.9050  0.00  0.00     0.000 OA
ATOM     94   O  BDP B   6      25.023  20.907  11.9770  0.00  0.00     0.000 OA
ENDBRANCH 86 92
BRANCH 82 95
ATOM     95  O3  NAG B   7      28.897  23.975  12.3420  0.00  0.00     0.000 O
BRANCH 95 98
ATOM     96  C1  NAG B   7      30.407  27.046  13.6170  0.00  0.00     0.000 C
ATOM     97  C2  NAG B   7      30.260  25.543  13.4220  0.00  0.00     0.000 C
ATOM     98  C3  NAG B   7      28.998  25.379  12.5770  0.00  0.00     0.000 C
ATOM     99  C4  NAG B   7      27.798  25.966  13.3170  0.00  0.00     0.000 C
ATOM    100  C5  NAG B   7      28.065  27.415  13.7260  0.00  0.00     0.000 C
ATOM    101  O5  NAG B   7      29.302  27.477  14.4200  0.00  0.00     0.000 O
BRANCH 97 104
ATOM    102   N  NAG B   7      31.296  24.855  12.6390  0.00  0.00     0.000 N
ATOM    104  HD  NAG B   7      31.695  24.379  12.0370  0.00  0.00     0.000 HD
ATOM    104   O  NAG B   7      32.954  23.365  12.2380  0.00  0.00     0.000 OA
ATOM    105   C  NAG B   7      32.163  23.905  13.0370  0.00  0.00     0.000 C
ATOM    106   C  NAG B   7      32.166  23.479  14.4650  0.00  0.00     0.000 C
ENDBRANCH 97 104
ATOM    107   O  NAG B   7      27.079  29.330  14.6560  0.00  0.00     0.000 O
ATOM    109  HD  NAG B   7      27.628  29.038  14.0530  0.00  0.00     0.000 HD
ATOM    109   O  NAG B   7      27.079  29.330  14.6560  0.00  0.00     0.000 O
ATOM    111  HD  NAG B   7      27.628  29.038  14.0530  0.00  0.00     0.000 HD
ENDBRANCH 95 98
ENDBRANCH 82 95
ENDBRANCH 81 85
ENDBRANCH 65 81
ENDBRANCH 64 67
ENDBRANCH 51 64
ENDBRANCH 50 54
ENDBRANCH 34 50
ENDBRANCH 33 36
ENDBRANCH 20 33
ENDBRANCH 19 23
ENDBRANCH 1 19
TORSDOF 19
ENDMDL
MODEL 38
REMARK VINA RESULT:      -5.1     15.248     21.950
ROOT
ATOM      1  C1  NAG B   1      15.737   7.899   8.6510  0.00  0.00     0.000 C
ATOM      2  C2  NAG B   1      15.973   9.034   7.6580  0.00  0.00     0.000 C
ATOM      3  C3  NAG B   1      16.835   8.593   6.4920  0.00  0.00     0.000 C
ATOM      4  C4  NAG B   1      18.132   8.085   7.1130  0.00  0.00     0.000 C
ATOM      5  C5  NAG B   1      17.825   6.865   7.9910  0.00  0.00     0.000 C
ATOM      6  O5  NAG B   1      16.926   7.211   9.0670  0.00  0.00     0.000 O
ATOM      7   O  NAG B   1      17.096   9.674   5.5670  0.00  0.00     0.000 O
ATOM      9  HD  NAG B   1      16.290   9.847   5.8350  0.00  0.00     0.000 HD
ATOM      9   O  NAG B   1      19.052   7.725   6.0960  0.00  0.00     0.000 O
ATOM     11  HD  NAG B   1      18.247   7.898   6.3640  0.00  0.00     0.000 HD
ATOM     11   C  NAG B   1      19.130   6.255   8.5160  0.00  0.00     0.000 C
ATOM     12   O  NAG B   1      18.932   5.607   9.7710  0.00  0.00     0.000 O
ATOM     14  HD  NAG B   1      18.127   5.781  10.0390  0.00  0.00     0.000 HD
ENDROOT
BRANCH 2 16
ATOM     14   N  NAG B   1      14.599   9.534   7.4740  0.00  0.00     0.000 N
ATOM     16  HD  NAG B   1      13.910   9.831   7.9060  0.00  0.00     0.000 HD
ATOM     16   C  NAG B   1      14.284  10.841   7.4910  0.00  0.00     0.000 C
ATOM     17   C  NAG B   1      15.357  11.869   7.7340  0.00  0.00     0.000 C
ATOM     18   O  NAG B   1      13.133  11.223   7.2850  0.00  0.00     0.000 OA
ENDBRANCH 2 16
BRANCH 1 19
ATOM     19  O4  BDP B   2      15.251   8.574   9.8030  0.00  0.00     0.000 O
BRANCH 19 23
ATOM     20  C1  BDP B   2      13.671   7.423  13.4260  0.00  0.00     0.000 C
ATOM     21  C2  BDP B   2      15.180   7.365  13.3000  0.00  0.00     0.000 C
ATOM     22  C3  BDP B   2      15.664   8.184  12.1260  0.00  0.00     0.000 C
ATOM     23  C4  BDP B   2      14.913   7.729  10.8770  0.00  0.00     0.000 C
ATOM     24  C5  BDP B   2      13.421   7.842  11.1170  0.00  0.00     0.000 C
ATOM     25  O5  BDP B   2      13.053   7.024  12.2110  0.00  0.00     0.000 O
ATOM     26   O  BDP B   2      15.788   7.828  14.4860  0.00  0.00     0.000 O
ATOM     28  HD  BDP B   2      14.966   7.753  14.7500  0.00  0.00     0.000 HD
ATOM     28   O  BDP B   2      17.085   8.023  11.9900  0.00  0.00     0.000 O
ATOM     30  HD  BDP B   2      16.263   7.948  12.2530  0.00  0.00     0.000 HD
BRANCH 24 30
ATOM     30   C  BDP B   2      12.627   7.402   9.9390  0.00  0.00     0.000 C
ATOM     31   O  BDP B   2      12.120   8.295   9.2220  0.00  0.00     0.000 OA
ATOM     32   O  BDP B   2      12.501   6.162   9.7290  0.00  0.00     0.000 OA
ENDBRANCH 24 30
BRANCH 20 33
ATOM     33  O3  NAG B   3      13.376   6.479  14.4260  0.00  0.00     0.000 O
BRANCH 33 36
ATOM     34  C1  NAG B   3       9.955   6.289  15.9780  0.00  0.00     0.000 C
ATOM     35  C2  NAG B   3      11.383   6.757  15.7730  0.00  0.00     0.000 C
ATOM     36  C3  NAG B   3      11.979   6.183  14.4780  0.00  0.00     0.000 C
ATOM     37  C4  NAG B   3      11.794   4.667  14.4650  0.00  0.00     0.000 C
ATOM     38  C5  NAG B   3      10.341   4.308  14.7660  0.00  0.00     0.000 C
ATOM     39  O5  NAG B   3       9.952   4.869  16.0090  0.00  0.00     0.000 O
ATOM     40   O  NAG B   3      12.161   4.139  13.1810  0.00  0.00     0.000 O
ATOM     42  HD  NAG B   3      11.364   3.802  13.2310  0.00  0.00     0.000 HD
ATOM     42   C  NAG B   3      10.092   2.808  14.9030  0.00  0.00     0.000 C
ATOM     43   O  NAG B   3      10.787   2.309  16.0520  0.00  0.00     0.000 O
ATOM     45  HD  NAG B   3       9.990   1.973  16.1010  0.00  0.00     0.000 HD
BRANCH 35 47
ATOM     45   N  NAG B   3      12.188   7.593  16.6540  0.00  0.00     0.000 N
ATOM     47  HD  NAG B   3      12.550   6.821  16.5050  0.00  0.00     0.000 HD
ATOM     47   C  NAG B   3      12.311   8.895  16.4920  0.00  0.00     0.000 C
ATOM     48   C  NAG B   3      13.194   9.604  17.4760  0.00  0.00     0.000 C
ATOM     49   O  NAG B   3      11.756   9.492  15.5710  0.00  0.00     0.000 OA
ENDBRANCH 35 47
BRANCH 34 50
ATOM     50  O4  BDP B   4       9.612   6.809  17.2460  0.00  0.00     0.000 O
BRANCH 50 54
ATOM     51  C1  BDP B   4       6.533   8.021  19.6130  0.00  0.00     0.000 C
ATOM     52  C2  BDP B   4       6.471   6.556  19.1970  0.00  0.00     0.000 C
ATOM     53  C3  BDP B   4       7.812   6.151  18.6660  0.00  0.00     0.000 C
ATOM     54  C4  BDP B   4       8.234   7.112  17.5170  0.00  0.00     0.000 C
ATOM     55  C5  BDP B   4       8.091   8.578  17.9060  0.00  0.00     0.000 C
ATOM     56  O5  BDP B   4       6.808   8.819  18.4760  0.00  0.00     0.000 O
ATOM     57   O  BDP B   4       6.143   5.745  20.3050  0.00  0.00     0.000 O
ATOM     59  HD  BDP B   4       5.308   5.548  20.1910  0.00  0.00     0.000 HD
ATOM     59   O  BDP B   4       7.661   4.830  18.1070  0.00  0.00     0.000 O
ATOM     61  HD  BDP B   4       6.826   4.632  17.9930  0.00  0.00     0.000 HD
BRANCH 55 61
ATOM     61   C  BDP B   4       8.259   9.442  16.6690  0.00  0.00     0.000 C
ATOM     62   O  BDP B   4       8.918  10.510  16.7800  0.00  0.00     0.000 OA
ATOM     63   O  BDP B   4       7.730   9.049  15.5850  0.00  0.00     0.000 OA
ENDBRANCH 55 61
BRANCH 51 64
ATOM     64  O3  NAG B   5       5.252   8.359  20.1770  0.00  0.00     0.000 O
BRANCH 64 67
ATOM     65  C1  NAG B   5       4.962  10.564  23.1190  0.00  0.00     0.000 C
ATOM     66  C2  NAG B   5       5.188   9.289  22.3250  0.00  0.00     0.000 C
ATOM     67  C3  NAG B   5       5.261   9.610  20.8370  0.00  0.00     0.000 C
ATOM     68  C4  NAG B   5       4.044  10.432  20.3910  0.00  0.00     0.000 C
ATOM     69  C5  NAG B   5       3.845  11.635  21.3000  0.00  0.00     0.000 C
ATOM     70  O5  NAG B   5       3.792  11.209  22.6690  0.00  0.00     0.000 O
ATOM     71   O  NAG B   5       4.236  10.831  19.0500  0.00  0.00     0.000 O
ATOM     73  HD  NAG B   5       3.399  10.615  18.9940  0.00  0.00     0.000 HD
ATOM     73   C  NAG B   5       2.575  12.446  21.0060  0.00  0.00     0.000 C
ATOM     74   O  NAG B   5       1.412  11.630  21.2550  0.00  0.00     0.000 O
ATOM     76  HD  NAG B   5       0.575  11.415  21.1980  0.00  0.00     0.000 HD
BRANCH 66 78
ATOM     76   N  NAG B   5       5.396   8.011  23.0330  0.00  0.00     0.000 N
ATOM     78  HD  NAG B   5       5.867   8.559  22.5570  0.00  0.00     0.000 HD
ATOM     78   C  NAG B   5       6.580   7.428  23.2780  0.00  0.00     0.000 C
ATOM     79   C  NAG B   5       6.465   6.136  24.0410  0.00  0.00     0.000 C
ATOM     80   O  NAG B   5       7.699   7.920  22.8910  0.00  0.00     0.000 OA
ENDBRANCH 66 78
BRANCH 65 81
ATOM     81  O4  BDP B   6       4.846  10.261  24.5150  0.00  0.00     0.000 O
BRANCH 81 85
ATOM     82  C1  BDP B   6       5.794  11.930  28.3460  0.00  0.00     0.000 C
ATOM     83  C2  BDP B   6       4.773  12.671  27.4870  0.00  0.00     0.000 C
ATOM     84  C3  BDP B   6       4.208  11.807  26.3560  0.00  0.00     0.000 C
ATOM     85  C4  BDP B   6       5.316  11.153  25.5280  0.00  0.00     0.000 C
ATOM     86  C5  BDP B   6       6.301  10.469  26.5060  0.00  0.00     0.000 C
ATOM     87  O5  BDP B   6       6.813  11.405  27.5080  0.00  0.00     0.000 O
ATOM     88   O  BDP B   6       3.722  13.037  28.3770  0.00  0.00     0.000 O
ATOM     90  HD  BDP B   6       2.857  13.069  28.4120  0.00  0.00     0.000 HD
ATOM     90   O  BDP B   6       3.350  12.598  25.5310  0.00  0.00     0.000 O
ATOM     92  HD  BDP B   6       2.485  12.630  25.5650  0.00  0.00     0.000 HD
BRANCH 86 92
ATOM     92   C  BDP B   6       7.540  10.010  25.7760  0.00  0.00     0.000 C
ATOM     93   O  BDP B   6       8.056  10.758  24.8920  0.00  0.00     0.000 OA
ATOM     94   O  BDP B   6       8.029   8.885  26.1030  0.00  0.00     0.000 OA
ENDBRANCH 86 92
BRANCH 82 95
ATOM     95  O3  NAG B   7       6.404  12.878  29.2450  0.00  0.00     0.000 O
BRANCH 95 98
ATOM     96  C1  NAG B   7       6.892  13.188  32.8510  0.00  0.00     0.000 C
ATOM     97  C2  NAG B   7       6.546  13.663  31.4460  0.00  0.00     0.000 C
ATOM     98  C3  NAG B   7       6.788  12.450  30.5500  0.00  0.00     0.000 C
ATOM     99  C4  NAG B   7       8.248  12.014  30.6490  0.00  0.00     0.000 C
ATOM    100  C5  NAG B   7       8.650  11.778  32.1060  0.00  0.00     0.000 C
ATOM    101  O5  NAG B   7       8.299  12.921  32.8710  0.00  0.00     0.000 O
BRANCH 97 104
ATOM    102   N  NAG B   7       5.147  14.026  31.1820  0.00  0.00     0.000 N
ATOM    104  HD  NAG B   7       4.351  14.053  30.8420  0.00  0.00     0.000 HD
ATOM    104   O  NAG B   7       3.424  15.365  30.5770  0.00  0.00     0.000 OA
ATOM    105   C  NAG B   7       4.636  15.220  30.8280  0.00  0.00     0.000 C
ATOM    106   C  NAG B   7       5.548  16.395  30.7210  0.00  0.00     0.000 C
ENDBRANCH 97 104
ATOM    107   O  NAG B   7      10.370  10.983  33.4880  0.00  0.00     0.000 O
ATOM    109  HD  NAG B   7       9.513  11.010  33.3690  0.00  0.00     0.000 HD
ATOM    109   O  NAG B   7      10.370  10.983  33.4880  0.00  0.00     0.000 O
ATOM    111  HD  NAG B   7       9.513  11.010  33.3690  0.00  0.00     0.000 HD
ENDBRANCH 95 98
ENDBRANCH 82 95
ENDBRANCH 81 85
ENDBRANCH 65 81
ENDBRANCH 64 67
ENDBRANCH 51 64
ENDBRANCH 50 54
ENDBRANCH 34 50
ENDBRANCH 33 36
ENDBRANCH 20 33
ENDBRANCH 19 23
ENDBRANCH 1 19
TORSDOF 19
ENDMDL
MODEL 39
REMARK VINA RESULT:      -5.1      5.955     16.691
ROOT
ATOM      1  C1  NAG B   1      12.234   7.532  11.3690  0.00  0.00     0.000 C
ATOM      2  C2  NAG B   1      12.598   6.585  12.5090  0.00  0.00     0.000 C
ATOM      3  C3  NAG B   1      11.486   5.598  12.7990  0.00  0.00     0.000 C
ATOM      4  C4  NAG B   1      10.260   6.447  13.1180  0.00  0.00     0.000 C
ATOM      5  C5  NAG B   1       9.881   7.269  11.8800  0.00  0.00     0.000 C
ATOM      6  O5  NAG B   1      10.951   8.163  11.5020  0.00  0.00     0.000 O
ATOM      7   O  NAG B   1      11.808   4.722  13.9040  0.00  0.00     0.000 O
ATOM      9  HD  NAG B   1      12.579   4.839  13.5270  0.00  0.00     0.000 HD
ATOM      9   O  NAG B   1       9.174   5.615  13.4920  0.00  0.00     0.000 O
ATOM     11  HD  NAG B   1       9.945   5.732  13.1160  0.00  0.00     0.000 HD
ATOM     11   C  NAG B   1       8.572   8.026  12.1340  0.00  0.00     0.000 C
ATOM     12   O  NAG B   1       8.516   9.233  11.3760  0.00  0.00     0.000 O
ATOM     14  HD  NAG B   1       9.287   9.350  10.9990  0.00  0.00     0.000 HD
ENDROOT
BRANCH 2 16
ATOM     14   N  NAG B   1      13.871   5.902  12.2160  0.00  0.00     0.000 N
ATOM     16  HD  NAG B   1      14.642   6.013  11.8370  0.00  0.00     0.000 HD
ATOM     16   C  NAG B   1      14.991   6.098  12.9330  0.00  0.00     0.000 C
ATOM     17   C  NAG B   1      14.989   7.073  14.0800  0.00  0.00     0.000 C
ATOM     18   O  NAG B   1      16.023   5.472  12.6890  0.00  0.00     0.000 OA
ENDBRANCH 2 16
BRANCH 1 19
ATOM     19  O4  BDP B   2      13.196   8.572  11.4930  0.00  0.00     0.000 O
BRANCH 19 23
ATOM     20  C1  BDP B   2      14.960  11.276   8.9400  0.00  0.00     0.000 C
ATOM     21  C2  BDP B   2      13.516  11.544   9.3120  0.00  0.00     0.000 C
ATOM     22  C3  BDP B   2      13.113  10.763  10.5420  0.00  0.00     0.000 C
ATOM     23  C4  BDP B   2      13.436   9.291  10.3070  0.00  0.00     0.000 C
ATOM     24  C5  BDP B   2      14.903   9.146   9.9560  0.00  0.00     0.000 C
ATOM     25  O5  BDP B   2      15.184   9.882   8.7800  0.00  0.00     0.000 O
ATOM     26   O  BDP B   2      13.317  12.923   9.5370  0.00  0.00     0.000 O
ATOM     28  HD  BDP B   2      14.105  12.935   9.1780  0.00  0.00     0.000 HD
ATOM     28   O  BDP B   2      11.716  10.975  10.8010  0.00  0.00     0.000 O
ATOM     30  HD  BDP B   2      12.504  10.987  10.4420  0.00  0.00     0.000 HD
BRANCH 24 30
ATOM     30   C  BDP B   2      15.284   7.732   9.7020  0.00  0.00     0.000 C
ATOM     31   O  BDP B   2      14.421   6.990   9.1780  0.00  0.00     0.000 OA
ATOM     32   O  BDP B   2      16.444   7.352  10.0310  0.00  0.00     0.000 OA
ENDBRANCH 24 30
BRANCH 20 33
ATOM     33  O3  NAG B   3      15.115  11.915   7.6970  0.00  0.00     0.000 O
BRANCH 33 36
ATOM     34  C1  NAG B   3      17.441  14.671   6.6260  0.00  0.00     0.000 C
ATOM     35  C2  NAG B   3      16.127  13.975   6.9250  0.00  0.00     0.000 C
ATOM     36  C3  NAG B   3      16.355  12.622   7.6170  0.00  0.00     0.000 C
ATOM     37  C4  NAG B   3      17.344  11.796   6.7980  0.00  0.00     0.000 C
ATOM     38  C5  NAG B   3      18.589  12.621   6.4830  0.00  0.00     0.000 C
ATOM     39  O5  NAG B   3      18.222  13.812   5.8080  0.00  0.00     0.000 O
ATOM     40   O  NAG B   3      17.722  10.619   7.5270  0.00  0.00     0.000 O
ATOM     42  HD  NAG B   3      18.516  10.928   7.3710  0.00  0.00     0.000 HD
ATOM     42   C  NAG B   3      19.577  11.917   5.5550  0.00  0.00     0.000 C
ATOM     43   O  NAG B   3      18.979  11.739   4.2650  0.00  0.00     0.000 O
ATOM     45  HD  NAG B   3      19.773  12.049   4.1100  0.00  0.00     0.000 HD
BRANCH 35 47
ATOM     45   N  NAG B   3      14.779  14.420   6.5940  0.00  0.00     0.000 N
ATOM     47  HD  NAG B   3      14.968  13.646   6.2530  0.00  0.00     0.000 HD
ATOM     47   C  NAG B   3      14.009  15.070   7.4430  0.00  0.00     0.000 C
ATOM     48   C  NAG B   3      12.641  15.436   6.9480  0.00  0.00     0.000 C
ATOM     49   O  NAG B   3      14.378  15.337   8.5850  0.00  0.00     0.000 OA
ENDBRANCH 35 47
BRANCH 34 50
ATOM     50  O4  BDP B   4      17.053  15.821   5.9030  0.00  0.00     0.000 O
BRANCH 50 54
ATOM     51  C1  BDP B   4      18.191  19.557   4.7640  0.00  0.00     0.000 C
ATOM     52  C2  BDP B   4      18.871  18.428   3.9970  0.00  0.00     0.000 C
ATOM     53  C3  BDP B   4      18.110  17.160   4.2370  0.00  0.00     0.000 C
ATOM     54  C4  BDP B   4      17.995  16.899   5.7660  0.00  0.00     0.000 C
ATOM     55  C5  BDP B   4      17.499  18.121   6.5270  0.00  0.00     0.000 C
ATOM     56  O5  BDP B   4      18.242  19.277   6.1510  0.00  0.00     0.000 O
ATOM     57   O  BDP B   4      18.881  18.713   2.6140  0.00  0.00     0.000 O
ATOM     59  HD  BDP B   4      19.692  18.968   2.4500  0.00  0.00     0.000 HD
ATOM     59   O  BDP B   4      18.886  16.090   3.6600  0.00  0.00     0.000 O
ATOM     61  HD  BDP B   4      19.697  16.345   3.4960  0.00  0.00     0.000 HD
BRANCH 55 61
ATOM     61   C  BDP B   4      17.665  17.884   8.0180  0.00  0.00     0.000 C
ATOM     62   O  BDP B   4      16.653  18.025   8.7540  0.00  0.00     0.000 OA
ATOM     63   O  BDP B   4      18.811  17.554   8.4500  0.00  0.00     0.000 OA
ENDBRANCH 55 61
BRANCH 51 64
ATOM     64  O3  NAG B   5      18.907  20.770   4.4610  0.00  0.00     0.000 O
BRANCH 64 67
ATOM     65  C1  NAG B   5      17.149  23.997   4.1580  0.00  0.00     0.000 C
ATOM     66  C2  NAG B   5      17.669  22.628   3.7570  0.00  0.00     0.000 C
ATOM     67  C3  NAG B   5      18.263  21.923   4.9690  0.00  0.00     0.000 C
ATOM     68  C4  NAG B   5      19.294  22.814   5.6750  0.00  0.00     0.000 C
ATOM     69  C5  NAG B   5      18.713  24.192   5.9520  0.00  0.00     0.000 C
ATOM     70  O5  NAG B   5      18.186  24.753   4.7410  0.00  0.00     0.000 O
ATOM     71   O  NAG B   5      19.698  22.180   6.8690  0.00  0.00     0.000 O
ATOM     73  HD  NAG B   5      20.477  22.456   6.6100  0.00  0.00     0.000 HD
ATOM     73   C  NAG B   5      19.715  25.194   6.5420  0.00  0.00     0.000 C
ATOM     74   O  NAG B   5      20.764  25.449   5.5850  0.00  0.00     0.000 O
ATOM     76  HD  NAG B   5      21.543  25.725   5.3260  0.00  0.00     0.000 HD
BRANCH 66 78
ATOM     76   N  NAG B   5      17.429  22.181   2.3710  0.00  0.00     0.000 N
ATOM     78  HD  NAG B   5      17.183  21.946   3.1680  0.00  0.00     0.000 HD
ATOM     78   C  NAG B   5      16.499  21.296   1.9770  0.00  0.00     0.000 C
ATOM     79   C  NAG B   5      16.487  21.060   0.4910  0.00  0.00     0.000 C
ATOM     80   O  NAG B   5      15.703  20.704   2.7900  0.00  0.00     0.000 OA
ENDBRANCH 66 78
BRANCH 65 81
ATOM     81  O4  BDP B   6      16.631  24.684   3.0120  0.00  0.00     0.000 O
BRANCH 81 85
ATOM     82  C1  BDP B   6      13.499  27.399   1.9230  0.00  0.00     0.000 C
ATOM     83  C2  BDP B   6      14.555  27.897   2.9060  0.00  0.00     0.000 C
ATOM     84  C3  BDP B   6      15.818  27.033   2.9120  0.00  0.00     0.000 C
ATOM     85  C4  BDP B   6      15.495  25.548   3.0920  0.00  0.00     0.000 C
ATOM     86  C5  BDP B   6      14.395  25.173   2.0700  0.00  0.00     0.000 C
ATOM     87  O5  BDP B   6      13.218  26.033   2.1950  0.00  0.00     0.000 O
ATOM     88   O  BDP B   6      14.881  29.216   2.4780  0.00  0.00     0.000 O
ATOM     90  HD  BDP B   6      15.568  29.732   2.3710  0.00  0.00     0.000 HD
ATOM     90   O  BDP B   6      16.708  27.490   3.9330  0.00  0.00     0.000 O
ATOM     92  HD  BDP B   6      17.396  28.006   3.8260  0.00  0.00     0.000 HD
BRANCH 86 92
ATOM     92   C  BDP B   6      13.861  23.789   2.3490  0.00  0.00     0.000 C
ATOM     93   O  BDP B   6      13.587  23.018   1.3810  0.00  0.00     0.000 OA
ATOM     94   O  BDP B   6      13.730  23.447   3.5650  0.00  0.00     0.000 OA
ENDBRANCH 86 92
BRANCH 82 95
ATOM     95  O3  NAG B   7      12.289  28.151   2.1370  0.00  0.00     0.000 O
BRANCH 95 98
ATOM     96  C1  NAG B   7       9.752  29.560  -0.0810  0.00  0.00     0.000 C
ATOM     97  C2  NAG B   7      10.792  29.573   1.0310  0.00  0.00     0.000 C
ATOM     98  C3  NAG B   7      11.269  28.126   1.1390  0.00  0.00     0.000 C
ATOM     99  C4  NAG B   7      10.093  27.216   1.4840  0.00  0.00     0.000 C
ATOM    100  C5  NAG B   7       8.949  27.401   0.4870  0.00  0.00     0.000 C
ATOM    101  O5  NAG B   7       8.644  28.783   0.3880  0.00  0.00     0.000 O
BRANCH 97 104
ATOM    102   N  NAG B   7      12.034  30.325   0.8020  0.00  0.00     0.000 N
ATOM    104  HD  NAG B   7      12.871  30.533   0.7270  0.00  0.00     0.000 HD
ATOM    104   O  NAG B   7      13.598  31.920   1.1740  0.00  0.00     0.000 OA
ATOM    105   C  NAG B   7      12.487  31.421   1.4390  0.00  0.00     0.000 C
ATOM    106   C  NAG B   7      11.643  32.045   2.4980  0.00  0.00     0.000 C
ENDBRANCH 97 104
ATOM    107   O  NAG B   7       6.857  26.563  -0.1670  0.00  0.00     0.000 O
ATOM    109  HD  NAG B   7       7.611  26.884  -0.4480  0.00  0.00     0.000 HD
ATOM    109   O  NAG B   7       6.857  26.563  -0.1670  0.00  0.00     0.000 O
ATOM    111  HD  NAG B   7       7.611  26.884  -0.4480  0.00  0.00     0.000 HD
ENDBRANCH 95 98
ENDBRANCH 82 95
ENDBRANCH 81 85
ENDBRANCH 65 81
ENDBRANCH 64 67
ENDBRANCH 51 64
ENDBRANCH 50 54
ENDBRANCH 34 50
ENDBRANCH 33 36
ENDBRANCH 20 33
ENDBRANCH 19 23
ENDBRANCH 1 19
TORSDOF 19
ENDMDL
MODEL 40
REMARK VINA RESULT:      -5.1      2.766     17.087
ROOT
ATOM      1  C1  NAG B   1      18.750   3.445   5.8870  0.00  0.00     0.000 C
ATOM      2  C2  NAG B   1      18.326   1.995   5.6730  0.00  0.00     0.000 C
ATOM      3  C3  NAG B   1      18.296   1.218   6.9730  0.00  0.00     0.000 C
ATOM      4  C4  NAG B   1      19.703   1.333   7.5500  0.00  0.00     0.000 C
ATOM      5  C5  NAG B   1      20.001   2.805   7.8600  0.00  0.00     0.000 C
ATOM      6  O5  NAG B   1      19.948   3.610   6.6630  0.00  0.00     0.000 O
ATOM      7   O  NAG B   1      17.932  -0.167   6.7730  0.00  0.00     0.000 O
ATOM      9  HD  NAG B   1      17.459   0.239   6.1720  0.00  0.00     0.000 HD
ATOM      9   O  NAG B   1      19.809   0.562   8.7350  0.00  0.00     0.000 O
ATOM     11  HD  NAG B   1      19.335   0.968   8.1350  0.00  0.00     0.000 HD
ATOM     11   C  NAG B   1      21.356   2.928   8.5670  0.00  0.00     0.000 C
ATOM     12   O  NAG B   1      21.970   4.187   8.2960  0.00  0.00     0.000 O
ATOM     14  HD  NAG B   1      21.496   4.593   7.6960  0.00  0.00     0.000 HD
ENDROOT
BRANCH 2 16
ATOM     14   N  NAG B   1      17.031   1.668   5.0500  0.00  0.00     0.000 N
ATOM     16  HD  NAG B   1      16.375   2.013   4.6020  0.00  0.00     0.000 HD
ATOM     16   C  NAG B   1      16.883   1.452   3.7320  0.00  0.00     0.000 C
ATOM     17   C  NAG B   1      18.071   1.566   2.8140  0.00  0.00     0.000 C
ATOM     18   O  NAG B   1      15.795   1.132   3.2550  0.00  0.00     0.000 OA
ENDBRANCH 2 16
BRANCH 1 19
ATOM     19  O4  BDP B   2      19.070   3.886   4.5750  0.00  0.00     0.000 O
BRANCH 19 23
ATOM     20  C1  BDP B   2      18.253   7.848   5.3370  0.00  0.00     0.000 C
ATOM     21  C2  BDP B   2      17.119   7.026   4.7610  0.00  0.00     0.000 C
ATOM     22  C3  BDP B   2      17.382   5.545   4.9160  0.00  0.00     0.000 C
ATOM     23  C4  BDP B   2      18.750   5.232   4.3160  0.00  0.00     0.000 C
ATOM     24  C5  BDP B   2      19.801   6.104   4.9750  0.00  0.00     0.000 C
ATOM     25  O5  BDP B   2      19.492   7.467   4.7560  0.00  0.00     0.000 O
ATOM     26   O  BDP B   2      15.902   7.361   5.3930  0.00  0.00     0.000 O
ATOM     28  HD  BDP B   2      16.410   8.000   5.6810  0.00  0.00     0.000 HD
ATOM     28   O  BDP B   2      16.330   4.807   4.2740  0.00  0.00     0.000 O
ATOM     30  HD  BDP B   2      16.838   5.447   4.5630  0.00  0.00     0.000 HD
BRANCH 24 30
ATOM     30   C  BDP B   2      21.160   5.857   4.4260  0.00  0.00     0.000 C
ATOM     31   O  BDP B   2      22.066   5.570   5.2420  0.00  0.00     0.000 OA
ATOM     32   O  BDP B   2      21.332   5.957   3.1780  0.00  0.00     0.000 OA
ENDBRANCH 24 30
BRANCH 20 33
ATOM     33  O3  NAG B   3      17.947   9.166   4.9520  0.00  0.00     0.000 O
BRANCH 33 36
ATOM     34  C1  NAG B   3      18.510  12.234   7.0540  0.00  0.00     0.000 C
ATOM     35  C2  NAG B   3      17.758  11.075   6.4290  0.00  0.00     0.000 C
ATOM     36  C3  NAG B   3      18.711  10.123   5.6900  0.00  0.00     0.000 C
ATOM     37  C4  NAG B   3      19.571  10.926   4.7170  0.00  0.00     0.000 C
ATOM     38  C5  NAG B   3      20.211  12.113   5.4310  0.00  0.00     0.000 C
ATOM     39  O5  NAG B   3      19.206  12.919   6.0230  0.00  0.00     0.000 O
ATOM     40   O  NAG B   3      20.600  10.089   4.1660  0.00  0.00     0.000 O
ATOM     42  HD  NAG B   3      21.106  10.726   4.4640  0.00  0.00     0.000 HD
ATOM     42   C  NAG B   3      20.986  13.047   4.5040  0.00  0.00     0.000 C
ATOM     43   O  NAG B   3      20.079  13.676   3.5910  0.00  0.00     0.000 O
ATOM     45  HD  NAG B   3      20.584  14.313   3.8880  0.00  0.00     0.000 HD
BRANCH 35 47
ATOM     45   N  NAG B   3      16.311  10.982   6.5800  0.00  0.00     0.000 N
ATOM     47  HD  NAG B   3      16.549  11.221   5.7820  0.00  0.00     0.000 HD
ATOM     47   C  NAG B   3      15.723  10.048   7.3000  0.00  0.00     0.000 C
ATOM     48   C  NAG B   3      14.224  10.084   7.3330  0.00  0.00     0.000 C
ATOM     49   O  NAG B   3      16.364   9.180   7.8890  0.00  0.00     0.000 OA
ENDBRANCH 35 47
BRANCH 34 50
ATOM     50  O4  BDP B   4      17.486  13.051   7.5830  0.00  0.00     0.000 O
BRANCH 50 54
ATOM     51  C1  BDP B   4      16.669  15.756  10.5090  0.00  0.00     0.000 C
ATOM     52  C2  BDP B   4      18.027  15.940   9.8400  0.00  0.00     0.000 C
ATOM     53  C3  BDP B   4      18.045  15.150   8.5680  0.00  0.00     0.000 C
ATOM     54  C4  BDP B   4      17.688  13.665   8.8670  0.00  0.00     0.000 C
ATOM     55  C5  BDP B   4      16.429  13.530   9.7110  0.00  0.00     0.000 C
ATOM     56  O5  BDP B   4      16.494  14.392  10.8440  0.00  0.00     0.000 O
ATOM     57   O  BDP B   4      18.248  17.303   9.5470  0.00  0.00     0.000 O
ATOM     59  HD  BDP B   4      18.800  17.571  10.1580  0.00  0.00     0.000 HD
ATOM     59   O  BDP B   4      19.397  15.191   8.0670  0.00  0.00     0.000 O
ATOM     61  HD  BDP B   4      19.949  15.458   8.6790  0.00  0.00     0.000 HD
BRANCH 55 61
ATOM     61   C  BDP B   4      16.294  12.094  10.1830  0.00  0.00     0.000 C
ATOM     62   O  BDP B   4      17.348  11.434  10.3760  0.00  0.00     0.000 OA
ATOM     63   O  BDP B   4      15.127  11.628  10.3630  0.00  0.00     0.000 OA
ENDBRANCH 55 61
BRANCH 51 64
ATOM     64  O3  NAG B   5      16.662  16.578  11.6930  0.00  0.00     0.000 O
BRANCH 64 67
ATOM     65  C1  NAG B   5      13.396  18.245  12.0770  0.00  0.00     0.000 C
ATOM     66  C2  NAG B   5      14.709  17.840  11.4290  0.00  0.00     0.000 C
ATOM     67  C3  NAG B   5      15.367  16.732  12.2400  0.00  0.00     0.000 C
ATOM     68  C4  NAG B   5      15.482  17.126  13.7190  0.00  0.00     0.000 C
ATOM     69  C5  NAG B   5      14.141  17.604  14.2530  0.00  0.00     0.000 C
ATOM     70  O5  NAG B   5      13.622  18.643  13.4100  0.00  0.00     0.000 O
ATOM     71   O  NAG B   5      15.955  16.013  14.4480  0.00  0.00     0.000 O
ATOM     73  HD  NAG B   5      16.434  16.622  14.8340  0.00  0.00     0.000 HD
ATOM     73   C  NAG B   5      14.188  18.140  15.6910  0.00  0.00     0.000 C
ATOM     74   O  NAG B   5      15.019  19.318  15.7420  0.00  0.00     0.000 O
ATOM     76  HD  NAG B   5      15.498  19.927  16.1280  0.00  0.00     0.000 HD
BRANCH 66 78
ATOM     76   N  NAG B   5      15.060  18.463  10.1380  0.00  0.00     0.000 N
ATOM     78  HD  NAG B   5      14.863  17.672  10.4310  0.00  0.00     0.000 HD
ATOM     78   C  NAG B   5      14.959  17.886   8.9300  0.00  0.00     0.000 C
ATOM     79   C  NAG B   5      15.377  18.786   7.7990  0.00  0.00     0.000 C
ATOM     80   O  NAG B   5      14.554  16.681   8.7570  0.00  0.00     0.000 OA
ENDBRANCH 66 78
BRANCH 65 81
ATOM     81  O4  BDP B   6      12.795  19.320  11.3430  0.00  0.00     0.000 O
BRANCH 81 85
ATOM     82  C1  BDP B   6       8.940  20.693  10.0700  0.00  0.00     0.000 C
ATOM     83  C2  BDP B   6       9.151  20.467  11.5650  0.00  0.00     0.000 C
ATOM     84  C3  BDP B   6      10.630  20.382  11.9510  0.00  0.00     0.000 C
ATOM     85  C4  BDP B   6      11.390  19.373  11.0870  0.00  0.00     0.000 C
ATOM     86  C5  BDP B   6      11.071  19.681   9.6050  0.00  0.00     0.000 C
ATOM     87  O5  BDP B   6       9.630  19.684   9.3460  0.00  0.00     0.000 O
ATOM     88   O  BDP B   6       8.554  21.591  12.2060  0.00  0.00     0.000 O
ATOM     90  HD  BDP B   6       8.702  22.145  12.8560  0.00  0.00     0.000 HD
ATOM     90   O  BDP B   6      10.745  20.057  13.3390  0.00  0.00     0.000 O
ATOM     92  HD  BDP B   6      10.892  20.611  13.9890  0.00  0.00     0.000 HD
BRANCH 86 92
ATOM     92   C  BDP B   6      11.595  18.583   8.7110  0.00  0.00     0.000 C
ATOM     93   O  BDP B   6      11.597  17.386   9.1290  0.00  0.00     0.000 OA
ATOM     94   O  BDP B   6      11.996  18.913   7.5520  0.00  0.00     0.000 OA
ENDBRANCH 86 92
BRANCH 82 95
ATOM     95  O3  NAG B   7       7.534  20.559   9.7850  0.00  0.00     0.000 O
BRANCH 95 98
ATOM     96  C1  NAG B   7       5.088  22.335   7.7340  0.00  0.00     0.000 C
ATOM     97  C2  NAG B   7       5.624  21.653   8.9860  0.00  0.00     0.000 C
ATOM     98  C3  NAG B   7       7.008  21.142   8.5930  0.00  0.00     0.000 C
ATOM     99  C4  NAG B   7       6.889  20.161   7.4300  0.00  0.00     0.000 C
ATOM    100  C5  NAG B   7       6.124  20.787   6.2630  0.00  0.00     0.000 C
ATOM    101  O5  NAG B   7       4.899  21.315   6.7470  0.00  0.00     0.000 O
BRANCH 97 104
ATOM    102   N  NAG B   7       5.757  21.950  10.4190  0.00  0.00     0.000 N
ATOM    104  HD  NAG B   7       5.647  21.940  11.2780  0.00  0.00     0.000 HD
ATOM    104   O  NAG B   7       5.663  23.208  12.3000  0.00  0.00     0.000 OA
ATOM    105   C  NAG B   7       5.571  23.119  11.0600  0.00  0.00     0.000 C
ATOM    106   C  NAG B   7       5.234  24.335  10.2660  0.00  0.00     0.000 C
ENDBRANCH 97 104
ATOM    107   O  NAG B   7       5.473  20.458   4.0330  0.00  0.00     0.000 O
ATOM    109  HD  NAG B   7       5.754  21.039   4.6110  0.00  0.00     0.000 HD
ATOM    109   O  NAG B   7       5.473  20.458   4.0330  0.00  0.00     0.000 O
ATOM    111  HD  NAG B   7       5.754  21.039   4.6110  0.00  0.00     0.000 HD
ENDBRANCH 95 98
ENDBRANCH 82 95
ENDBRANCH 81 85
ENDBRANCH 65 81
ENDBRANCH 64 67
ENDBRANCH 51 64
ENDBRANCH 50 54
ENDBRANCH 34 50
ENDBRANCH 33 36
ENDBRANCH 20 33
ENDBRANCH 19 23
ENDBRANCH 1 19
TORSDOF 19
ENDMDL
MODEL 41
REMARK VINA RESULT:      -5.0      8.496     14.265
ROOT
ATOM      1  C1  NAG B   1      10.579   9.541  11.8500  0.00  0.00     0.000 C
ATOM      2  C2  NAG B   1      10.580   8.036  12.1030  0.00  0.00     0.000 C
ATOM      3  C3  NAG B   1       9.313   7.580  12.7960  0.00  0.00     0.000 C
ATOM      4  C4  NAG B   1       9.242   8.386  14.0890  0.00  0.00     0.000 C
ATOM      5  C5  NAG B   1       9.109   9.876  13.7460  0.00  0.00     0.000 C
ATOM      6  O5  NAG B   1      10.253  10.341  12.9970  0.00  0.00     0.000 O
ATOM      7   O  NAG B   1       9.324   6.161  13.0740  0.00  0.00     0.000 O
ATOM      9  HD  NAG B   1       9.749   6.207  12.3210  0.00  0.00     0.000 HD
ATOM      9   O  NAG B   1       8.129   7.971  14.8630  0.00  0.00     0.000 O
ATOM     11  HD  NAG B   1       8.554   8.017  14.1100  0.00  0.00     0.000 HD
ATOM     11   C  NAG B   1       8.899  10.692  15.0270  0.00  0.00     0.000 C
ATOM     12   O  NAG B   1       9.410  12.016  14.8870  0.00  0.00     0.000 O
ATOM     14  HD  NAG B   1       9.835  12.062  14.1340  0.00  0.00     0.000 HD
ENDROOT
BRANCH 2 16
ATOM     14   N  NAG B   1      10.775   7.250  10.8720  0.00  0.00     0.000 N
ATOM     16  HD  NAG B   1      11.143   7.275  10.0880  0.00  0.00     0.000 HD
ATOM     16   C  NAG B   1      11.907   6.578  10.6000  0.00  0.00     0.000 C
ATOM     17   C  NAG B   1      13.062   6.631  11.5650  0.00  0.00     0.000 C
ATOM     18   O  NAG B   1      12.014   5.891   9.5850  0.00  0.00     0.000 OA
ENDBRANCH 2 16
BRANCH 1 19
ATOM     19  O4  BDP B   2      11.940   9.821  11.5510  0.00  0.00     0.000 O
BRANCH 19 23
ATOM     20  C1  BDP B   2      14.010  12.927   9.8160  0.00  0.00     0.000 C
ATOM     21  C2  BDP B   2      13.353  13.217  11.1500  0.00  0.00     0.000 C
ATOM     22  C3  BDP B   2      12.998  11.940  11.8760  0.00  0.00     0.000 C
ATOM     23  C4  BDP B   2      12.161  11.070  10.9420  0.00  0.00     0.000 C
ATOM     24  C5  BDP B   2      12.922  10.838   9.6520  0.00  0.00     0.000 C
ATOM     25  O5  BDP B   2      13.185  12.081   9.0270  0.00  0.00     0.000 O
ATOM     26   O  BDP B   2      14.207  14.001  11.9560  0.00  0.00     0.000 O
ATOM     28  HD  BDP B   2      14.615  14.056  11.1940  0.00  0.00     0.000 HD
ATOM     28   O  BDP B   2      12.296  12.262  13.0870  0.00  0.00     0.000 O
ATOM     30  HD  BDP B   2      12.704  12.318  12.3250  0.00  0.00     0.000 HD
BRANCH 24 30
ATOM     30   C  BDP B   2      12.156  10.005   8.6890  0.00  0.00     0.000 C
ATOM     31   O  BDP B   2      10.992  10.374   8.4090  0.00  0.00     0.000 OA
ATOM     32   O  BDP B   2      12.709   8.973   8.2130  0.00  0.00     0.000 OA
ENDBRANCH 24 30
BRANCH 20 33
ATOM     33  O3  NAG B   3      14.102  14.188   9.2000  0.00  0.00     0.000 O
BRANCH 33 36
ATOM     34  C1  NAG B   3      16.990  14.940   6.9110  0.00  0.00     0.000 C
ATOM     35  C2  NAG B   3      16.231  14.785   8.2150  0.00  0.00     0.000 C
ATOM     36  C3  NAG B   3      14.859  14.131   7.9890  0.00  0.00     0.000 C
ATOM     37  C4  NAG B   3      14.109  14.894   6.9000  0.00  0.00     0.000 C
ATOM     38  C5  NAG B   3      14.994  15.066   5.6690  0.00  0.00     0.000 C
ATOM     39  O5  NAG B   3      16.199  15.722   6.0270  0.00  0.00     0.000 O
ATOM     40   O  NAG B   3      12.916  14.183   6.5360  0.00  0.00     0.000 O
ATOM     42  HD  NAG B   3      13.263  14.256   5.7450  0.00  0.00     0.000 HD
ATOM     42   C  NAG B   3      14.371  15.932   4.5770  0.00  0.00     0.000 C
ATOM     43   O  NAG B   3      14.227  17.275   5.0540  0.00  0.00     0.000 O
ATOM     45  HD  NAG B   3      14.573  17.348   4.2640  0.00  0.00     0.000 HD
BRANCH 35 47
ATOM     45   N  NAG B   3      17.101  14.075   9.1450  0.00  0.00     0.000 N
ATOM     47  HD  NAG B   3      17.447  14.150   8.3550  0.00  0.00     0.000 HD
ATOM     47   C  NAG B   3      17.219  14.410  10.4140  0.00  0.00     0.000 C
ATOM     48   C  NAG B   3      18.173  13.587  11.2290  0.00  0.00     0.000 C
ATOM     49   O  NAG B   3      16.603  15.357  10.8980  0.00  0.00     0.000 OA
ENDBRANCH 35 47
BRANCH 34 50
ATOM     50  O4  BDP B   4      18.155  15.647   7.2840  0.00  0.00     0.000 O
BRANCH 50 54
ATOM     51  C1  BDP B   4      22.062  16.298   6.3550  0.00  0.00     0.000 C
ATOM     52  C2  BDP B   4      21.071  17.087   5.5070  0.00  0.00     0.000 C
ATOM     53  C3  BDP B   4      19.732  17.053   6.1780  0.00  0.00     0.000 C
ATOM     54  C4  BDP B   4      19.307  15.577   6.4290  0.00  0.00     0.000 C
ATOM     55  C5  BDP B   4      20.405  14.765   7.1020  0.00  0.00     0.000 C
ATOM     56  O5  BDP B   4      21.646  14.946   6.4240  0.00  0.00     0.000 O
ATOM     57   O  BDP B   4      21.495  18.427   5.3770  0.00  0.00     0.000 O
ATOM     59  HD  BDP B   4      21.825  18.475   4.5780  0.00  0.00     0.000 HD
ATOM     59   O  BDP B   4      18.786  17.637   5.2580  0.00  0.00     0.000 O
ATOM     61  HD  BDP B   4      19.116  17.685   4.4590  0.00  0.00     0.000 HD
BRANCH 55 61
ATOM     61   C  BDP B   4      20.030  13.294   7.0720  0.00  0.00     0.000 C
ATOM     62   O  BDP B   4      19.679  12.752   8.1520  0.00  0.00     0.000 OA
ATOM     63   O  BDP B   4      20.087  12.682   5.9620  0.00  0.00     0.000 OA
ENDBRANCH 55 61
BRANCH 51 64
ATOM     64  O3  NAG B   5      23.349  16.404   5.7170  0.00  0.00     0.000 O
BRANCH 64 67
ATOM     65  C1  NAG B   5      26.474  16.690   7.6530  0.00  0.00     0.000 C
ATOM     66  C2  NAG B   5      25.190  17.127   6.9690  0.00  0.00     0.000 C
ATOM     67  C3  NAG B   5      24.398  15.904   6.5230  0.00  0.00     0.000 C
ATOM     68  C4  NAG B   5      25.272  14.955   5.6920  0.00  0.00     0.000 C
ATOM     69  C5  NAG B   5      26.573  14.649   6.4170  0.00  0.00     0.000 C
ATOM     70  O5  NAG B   5      27.227  15.873   6.7860  0.00  0.00     0.000 O
ATOM     71   O  NAG B   5      24.540  13.775   5.4360  0.00  0.00     0.000 O
ATOM     73  HD  NAG B   5      24.891  13.873   4.6500  0.00  0.00     0.000 HD
ATOM     73   C  NAG B   5      27.567  13.807   5.6050  0.00  0.00     0.000 C
ATOM     74   O  NAG B   5      27.988  14.546   4.4400  0.00  0.00     0.000 O
ATOM     76  HD  NAG B   5      28.338  14.644   3.6540  0.00  0.00     0.000 HD
BRANCH 66 78
ATOM     76   N  NAG B   5      24.592  18.024   7.9770  0.00  0.00     0.000 N
ATOM     78  HD  NAG B   5      24.799  18.058   7.1370  0.00  0.00     0.000 HD
ATOM     78   C  NAG B   5      23.985  19.195   7.7300  0.00  0.00     0.000 C
ATOM     79   C  NAG B   5      23.459  19.871   8.9670  0.00  0.00     0.000 C
ATOM     80   O  NAG B   5      23.873  19.695   6.5540  0.00  0.00     0.000 OA
ENDBRANCH 66 78
BRANCH 65 81
ATOM     81  O4  BDP B   6      27.245  17.837   8.0340  0.00  0.00     0.000 O
BRANCH 81 85
ATOM     82  C1  BDP B   6      30.334  18.911  10.8020  0.00  0.00     0.000 C
ATOM     83  C2  BDP B   6      30.762  18.313   9.4650  0.00  0.00     0.000 C
ATOM     84  C3  BDP B   6      29.649  18.348   8.4140  0.00  0.00     0.000 C
ATOM     85  C4  BDP B   6      28.345  17.746   8.9420  0.00  0.00     0.000 C
ATOM     86  C5  BDP B   6      28.037  18.402  10.3090  0.00  0.00     0.000 C
ATOM     87  O5  BDP B   6      29.153  18.260  11.2460  0.00  0.00     0.000 O
ATOM     88   O  BDP B   6      31.858  19.111   9.0250  0.00  0.00     0.000 O
ATOM     90  HD  BDP B   6      32.170  19.478   8.3050  0.00  0.00     0.000 HD
ATOM     90   O  BDP B   6      30.084  17.672   7.2320  0.00  0.00     0.000 O
ATOM     92  HD  BDP B   6      30.396  18.038   6.5120  0.00  0.00     0.000 HD
BRANCH 86 92
ATOM     92   C  BDP B   6      26.898  17.689  10.9950  0.00  0.00     0.000 C
ATOM     93   O  BDP B   6      25.732  18.186  10.9490  0.00  0.00     0.000 OA
ATOM     94   O  BDP B   6      27.160  16.591  11.5770  0.00  0.00     0.000 OA
ENDBRANCH 86 92
BRANCH 82 95
ATOM     95  O3  NAG B   7      31.372  18.652  11.7680  0.00  0.00     0.000 O
BRANCH 95 98
ATOM     96  C1  NAG B   7      33.422  20.621  14.0610  0.00  0.00     0.000 C
ATOM     97  C2  NAG B   7      33.137  19.546  13.0210  0.00  0.00     0.000 C
ATOM     98  C3  NAG B   7      31.629  19.615  12.7880  0.00  0.00     0.000 C
ATOM     99  C4  NAG B   7      30.889  19.339  14.0950  0.00  0.00     0.000 C
ATOM    100  C5  NAG B   7      31.372  20.275  15.2040  0.00  0.00     0.000 C
ATOM    101  O5  NAG B   7      32.788  20.210  15.2770  0.00  0.00     0.000 O
BRANCH 97 104
ATOM    102   N  NAG B   7      33.709  19.733  11.6810  0.00  0.00     0.000 N
ATOM    104  HD  NAG B   7      33.792  19.826  10.8230  0.00  0.00     0.000 HD
ATOM    104   O  NAG B   7      34.962  19.224   9.8640  0.00  0.00     0.000 OA
ATOM    105   C  NAG B   7      34.611  18.971  11.0330  0.00  0.00     0.000 C
ATOM    106   C  NAG B   7      35.191  17.787  11.7280  0.00  0.00     0.000 C
ENDBRANCH 97 104
ATOM    107   O  NAG B   7      30.968  20.957  17.4120  0.00  0.00     0.000 O
ATOM    109  HD  NAG B   7      31.192  21.222  16.6190  0.00  0.00     0.000 HD
ATOM    109   O  NAG B   7      30.968  20.957  17.4120  0.00  0.00     0.000 O
ATOM    111  HD  NAG B   7      31.192  21.222  16.6190  0.00  0.00     0.000 HD
ENDBRANCH 95 98
ENDBRANCH 82 95
ENDBRANCH 81 85
ENDBRANCH 65 81
ENDBRANCH 64 67
ENDBRANCH 51 64
ENDBRANCH 50 54
ENDBRANCH 34 50
ENDBRANCH 33 36
ENDBRANCH 20 33
ENDBRANCH 19 23
ENDBRANCH 1 19
TORSDOF 19
ENDMDL
MODEL 42
REMARK VINA RESULT:      -5.0      9.503     18.835
ROOT
ATOM      1  C1  NAG B   1      27.413   3.992  10.0980  0.00  0.00     0.000 C
ATOM      2  C2  NAG B   1      27.764   2.846  11.0430  0.00  0.00     0.000 C
ATOM      3  C3  NAG B   1      28.861   1.966  10.4800  0.00  0.00     0.000 C
ATOM      4  C4  NAG B   1      28.339   1.471   9.1350  0.00  0.00     0.000 C
ATOM      5  C5  NAG B   1      28.138   2.672   8.2010  0.00  0.00     0.000 C
ATOM      6  O5  NAG B   1      27.166   3.594   8.7400  0.00  0.00     0.000 O
ATOM      7   O  NAG B   1      29.172   0.856  11.3520  0.00  0.00     0.000 O
ATOM      9  HD  NAG B   1      28.979   1.486  11.9140  0.00  0.00     0.000 HD
ATOM      9   O  NAG B   1      29.261   0.563   8.5580  0.00  0.00     0.000 O
ATOM     11  HD  NAG B   1      29.068   1.193   9.1190  0.00  0.00     0.000 HD
ATOM     11   C  NAG B   1      27.744   2.185   6.8010  0.00  0.00     0.000 C
ATOM     12   O  NAG B   1      26.941   3.151   6.1240  0.00  0.00     0.000 O
ATOM     14  HD  NAG B   1      26.749   3.782   6.6860  0.00  0.00     0.000 HD
ENDROOT
BRANCH 2 16
ATOM     14   N  NAG B   1      27.001   2.636  12.2860  0.00  0.00     0.000 N
ATOM     16  HD  NAG B   1      26.981   2.164  13.0120  0.00  0.00     0.000 HD
ATOM     16   C  NAG B   1      27.375   3.146  13.4720  0.00  0.00     0.000 C
ATOM     17   C  NAG B   1      28.642   3.952  13.5780  0.00  0.00     0.000 C
ATOM     18   O  NAG B   1      26.685   2.991  14.4800  0.00  0.00     0.000 OA
ENDBRANCH 2 16
BRANCH 1 19
ATOM     19  O4  BDP B   2      26.168   4.457  10.6010  0.00  0.00     0.000 O
BRANCH 19 23
ATOM     20  C1  BDP B   2      22.442   5.216   9.0240  0.00  0.00     0.000 C
ATOM     21  C2  BDP B   2      22.839   3.759   9.1440  0.00  0.00     0.000 C
ATOM     22  C3  BDP B   2      24.001   3.583  10.0940  0.00  0.00     0.000 C
ATOM     23  C4  BDP B   2      25.133   4.506   9.6490  0.00  0.00     0.000 C
ATOM     24  C5  BDP B   2      24.622   5.932   9.5780  0.00  0.00     0.000 C
ATOM     25  O5  BDP B   2      23.559   6.008   8.6470  0.00  0.00     0.000 O
ATOM     26   O  BDP B   2      21.742   2.988   9.5860  0.00  0.00     0.000 O
ATOM     28  HD  BDP B   2      21.345   3.735   9.4010  0.00  0.00     0.000 HD
ATOM     28   O  BDP B   2      24.402   2.204  10.1030  0.00  0.00     0.000 O
ATOM     30  HD  BDP B   2      24.004   2.951   9.9180  0.00  0.00     0.000 HD
BRANCH 24 30
ATOM     30   C  BDP B   2      25.675   6.884   9.1370  0.00  0.00     0.000 C
ATOM     31   O  BDP B   2      26.124   6.748   7.9750  0.00  0.00     0.000 OA
ATOM     32   O  BDP B   2      26.066   7.768   9.9520  0.00  0.00     0.000 OA
ENDBRANCH 24 30
BRANCH 20 33
ATOM     33  O3  NAG B   3      21.495   5.227   7.9840  0.00  0.00     0.000 O
BRANCH 33 36
ATOM     34  C1  NAG B   3      18.852   7.903   7.9920  0.00  0.00     0.000 C
ATOM     35  C2  NAG B   3      19.547   6.610   8.3740  0.00  0.00     0.000 C
ATOM     36  C3  NAG B   3      20.958   6.534   7.7710  0.00  0.00     0.000 C
ATOM     37  C4  NAG B   3      20.881   6.799   6.2700  0.00  0.00     0.000 C
ATOM     38  C5  NAG B   3      20.090   8.075   5.9970  0.00  0.00     0.000 C
ATOM     39  O5  NAG B   3      18.799   7.977   6.5750  0.00  0.00     0.000 O
ATOM     40   O  NAG B   3      22.203   6.931   5.7260  0.00  0.00     0.000 O
ATOM     42  HD  NAG B   3      21.876   7.679   5.4370  0.00  0.00     0.000 HD
ATOM     42   C  NAG B   3      19.851   8.348   4.5140  0.00  0.00     0.000 C
ATOM     43   O  NAG B   3      19.005   7.328   3.9700  0.00  0.00     0.000 O
ATOM     45  HD  NAG B   3      18.677   8.076   3.6810  0.00  0.00     0.000 HD
BRANCH 35 47
ATOM     45   N  NAG B   3      19.509   6.497   9.8270  0.00  0.00     0.000 N
ATOM     47  HD  NAG B   3      19.191   7.250   9.5430  0.00  0.00     0.000 HD
ATOM     47   C  NAG B   3      19.230   5.370  10.4510  0.00  0.00     0.000 C
ATOM     48   C  NAG B   3      19.212   5.431  11.9500  0.00  0.00     0.000 C
ATOM     49   O  NAG B   3      18.971   4.334   9.8410  0.00  0.00     0.000 OA
ENDBRANCH 35 47
BRANCH 34 50
ATOM     50  O4  BDP B   4      17.553   7.755   8.5260  0.00  0.00     0.000 O
BRANCH 50 54
ATOM     51  C1  BDP B   4      14.581   9.745  10.4650  0.00  0.00     0.000 C
ATOM     52  C2  BDP B   4      14.484   9.790   8.9440  0.00  0.00     0.000 C
ATOM     53  C3  BDP B   4      15.385   8.737   8.3750  0.00  0.00     0.000 C
ATOM     54  C4  BDP B   4      16.830   8.934   8.9170  0.00  0.00     0.000 C
ATOM     55  C5  BDP B   4      16.865   9.087  10.4320  0.00  0.00     0.000 C
ATOM     56  O5  BDP B   4      15.907  10.051  10.8570  0.00  0.00     0.000 O
ATOM     57   O  BDP B   4      13.157   9.542   8.5310  0.00  0.00     0.000 O
ATOM     59  HD  BDP B   4      12.846  10.322   8.3180  0.00  0.00     0.000 HD
ATOM     59   O  BDP B   4      15.415   8.937   6.9470  0.00  0.00     0.000 O
ATOM     61  HD  BDP B   4      15.104   9.717   6.7340  0.00  0.00     0.000 HD
BRANCH 55 61
ATOM     61   C  BDP B   4      18.251   9.537  10.8580  0.00  0.00     0.000 C
ATOM     62   O  BDP B   4      18.708  10.597  10.3550  0.00  0.00     0.000 OA
ATOM     63   O  BDP B   4      18.881   8.828  11.7010  0.00  0.00     0.000 OA
ENDBRANCH 55 61
BRANCH 51 64
ATOM     64  O3  NAG B   5      13.657  10.723  10.9810  0.00  0.00     0.000 O
BRANCH 64 67
ATOM     65  C1  NAG B   5      11.703  10.148  14.0540  0.00  0.00     0.000 C
ATOM     66  C2  NAG B   5      12.077  10.080  12.5840  0.00  0.00     0.000 C
ATOM     67  C3  NAG B   5      13.486  10.623  12.3810  0.00  0.00     0.000 C
ATOM     68  C4  NAG B   5      13.636  12.014  13.0140  0.00  0.00     0.000 C
ATOM     69  C5  NAG B   5      13.152  12.004  14.4550  0.00  0.00     0.000 C
ATOM     70  O5  NAG B   5      11.820  11.474  14.5190  0.00  0.00     0.000 O
ATOM     71   O  NAG B   5      14.991  12.402  12.9320  0.00  0.00     0.000 O
ATOM     73  HD  NAG B   5      14.635  13.162  12.7180  0.00  0.00     0.000 HD
ATOM     73   C  NAG B   5      13.147  13.382  15.1300  0.00  0.00     0.000 C
ATOM     74   O  NAG B   5      12.208  14.247  14.4570  0.00  0.00     0.000 O
ATOM     76  HD  NAG B   5      11.851  15.006  14.2420  0.00  0.00     0.000 HD
BRANCH 66 78
ATOM     76   N  NAG B   5      11.741   8.673  12.2950  0.00  0.00     0.000 N
ATOM     78  HD  NAG B   5      11.607   9.447  11.9310  0.00  0.00     0.000 HD
ATOM     78   C  NAG B   5      11.235   8.202  11.1440  0.00  0.00     0.000 C
ATOM     79   C  NAG B   5      11.017   6.713  11.1490  0.00  0.00     0.000 C
ATOM     80   O  NAG B   5      10.956   8.951  10.1410  0.00  0.00     0.000 OA
ENDBRANCH 66 78
BRANCH 65 81
ATOM     81  O4  BDP B   6      10.361   9.682  14.2440  0.00  0.00     0.000 O
BRANCH 81 85
ATOM     82  C1  BDP B   6       7.837   8.145  17.3480  0.00  0.00     0.000 C
ATOM     83  C2  BDP B   6       8.020   9.659  17.2720  0.00  0.00     0.000 C
ATOM     84  C3  BDP B   6       8.582  10.123  15.9250  0.00  0.00     0.000 C
ATOM     85  C4  BDP B   6       9.846   9.353  15.5360  0.00  0.00     0.000 C
ATOM     86  C5  BDP B   6       9.548   7.842  15.6860  0.00  0.00     0.000 C
ATOM     87  O5  BDP B   6       9.068   7.511  17.0290  0.00  0.00     0.000 O
ATOM     88   O  BDP B   6       6.720  10.209  17.4610  0.00  0.00     0.000 O
ATOM     90  HD  BDP B   6       6.208  10.835  17.1500  0.00  0.00     0.000 HD
ATOM     90   O  BDP B   6       8.832  11.530  15.9700  0.00  0.00     0.000 O
ATOM     92  HD  BDP B   6       8.321  12.156  15.6590  0.00  0.00     0.000 HD
BRANCH 86 92
ATOM     92   C  BDP B   6      10.816   7.036  15.5490  0.00  0.00     0.000 C
ATOM     93   O  BDP B   6      11.635   6.991  16.5160  0.00  0.00     0.000 OA
ATOM     94   O  BDP B   6      10.997   6.409  14.4580  0.00  0.00     0.000 OA
ENDBRANCH 86 92
BRANCH 82 95
ATOM     95  O3  NAG B   7       7.499   7.797  18.7050  0.00  0.00     0.000 O
BRANCH 95 98
ATOM     96  C1  NAG B   7       4.753   6.094  20.4080  0.00  0.00     0.000 C
ATOM     97  C2  NAG B   7       5.802   7.178  20.1950  0.00  0.00     0.000 C
ATOM     98  C3  NAG B   7       6.559   6.749  18.9400  0.00  0.00     0.000 C
ATOM     99  C4  NAG B   7       7.204   5.384  19.1630  0.00  0.00     0.000 C
ATOM    100  C5  NAG B   7       6.167   4.358  19.6210  0.00  0.00     0.000 C
ATOM    101  O5  NAG B   7       5.454   4.887  20.7290  0.00  0.00     0.000 O
BRANCH 97 104
ATOM    102   N  NAG B   7       5.307   8.526  19.8830  0.00  0.00     0.000 N
ATOM    104  HD  NAG B   7       5.157   9.278  19.4820  0.00  0.00     0.000 HD
ATOM    104   O  NAG B   7       5.054  10.761  20.1460  0.00  0.00     0.000 OA
ATOM    105   C  NAG B   7       5.488   9.671  20.5670  0.00  0.00     0.000 C
ATOM    106   C  NAG B   7       6.241   9.635  21.8540  0.00  0.00     0.000 C
ENDBRANCH 97 104
ATOM    107   O  NAG B   7       5.833   2.082  20.0830  0.00  0.00     0.000 O
ATOM    109  HD  NAG B   7       5.481   2.793  19.7350  0.00  0.00     0.000 HD
ATOM    109   O  NAG B   7       5.833   2.082  20.0830  0.00  0.00     0.000 O
ATOM    111  HD  NAG B   7       5.481   2.793  19.7350  0.00  0.00     0.000 HD
ENDBRANCH 95 98
ENDBRANCH 82 95
ENDBRANCH 81 85
ENDBRANCH 65 81
ENDBRANCH 64 67
ENDBRANCH 51 64
ENDBRANCH 50 54
ENDBRANCH 34 50
ENDBRANCH 33 36
ENDBRANCH 20 33
ENDBRANCH 19 23
ENDBRANCH 1 19
TORSDOF 19
ENDMDL
MODEL 43
REMARK VINA RESULT:      -5.0      9.360     15.880
ROOT
ATOM      1  C1  NAG B   1      19.104  16.919   4.0440  0.00  0.00     0.000 C
ATOM      2  C2  NAG B   1      19.357  18.009   3.0060  0.00  0.00     0.000 C
ATOM      3  C3  NAG B   1      18.311  19.103   3.0700  0.00  0.00     0.000 C
ATOM      4  C4  NAG B   1      16.973  18.401   2.8610  0.00  0.00     0.000 C
ATOM      5  C5  NAG B   1      16.735  17.419   4.0160  0.00  0.00     0.000 C
ATOM      6  O5  NAG B   1      17.763  16.406   4.0580  0.00  0.00     0.000 O
ATOM      7   O  NAG B   1      18.522  20.120   2.0640  0.00  0.00     0.000 O
ATOM      9  HD  NAG B   1      19.331  19.893   2.2730  0.00  0.00     0.000 HD
ATOM      9   O  NAG B   1      15.923  19.353   2.8170  0.00  0.00     0.000 O
ATOM     11  HD  NAG B   1      16.733  19.126   3.0250  0.00  0.00     0.000 HD
ATOM     11   C  NAG B   1      15.335  16.802   3.8980  0.00  0.00     0.000 C
ATOM     12   O  NAG B   1      15.295  15.496   4.4710  0.00  0.00     0.000 O
ATOM     14  HD  NAG B   1      16.104  15.269   4.6790  0.00  0.00     0.000 HD
ENDROOT
BRANCH 2 16
ATOM     14   N  NAG B   1      20.434  17.937   2.0030  0.00  0.00     0.000 N
ATOM     16  HD  NAG B   1      20.859  18.408   1.4130  0.00  0.00     0.000 HD
ATOM     16   C  NAG B   1      21.678  18.395   2.2260  0.00  0.00     0.000 C
ATOM     17   C  NAG B   1      22.016  19.041   3.5430  0.00  0.00     0.000 C
ATOM     18   O  NAG B   1      22.565  18.272   1.3820  0.00  0.00     0.000 OA
ENDBRANCH 2 16
BRANCH 1 19
ATOM     19  O4  BDP B   2      19.927  15.850   3.5970  0.00  0.00     0.000 O
BRANCH 19 23
ATOM     20  C1  BDP B   2      18.460  13.007   6.1870  0.00  0.00     0.000 C
ATOM     21  C2  BDP B   2      19.532  13.927   6.7340  0.00  0.00     0.000 C
ATOM     22  C3  BDP B   2      19.687  15.160   5.8730  0.00  0.00     0.000 C
ATOM     23  C4  BDP B   2      19.919  14.717   4.4320  0.00  0.00     0.000 C
ATOM     24  C5  BDP B   2      18.782  13.815   3.9930  0.00  0.00     0.000 C
ATOM     25  O5  BDP B   2      18.730  12.677   4.8320  0.00  0.00     0.000 O
ATOM     26   O  BDP B   2      19.222  14.307   8.0580  0.00  0.00     0.000 O
ATOM     28  HD  BDP B   2      18.645  13.672   7.9370  0.00  0.00     0.000 HD
ATOM     28   O  BDP B   2      20.774  15.954   6.3750  0.00  0.00     0.000 O
ATOM     30  HD  BDP B   2      20.198  15.319   6.2540  0.00  0.00     0.000 HD
BRANCH 24 30
ATOM     30   C  BDP B   2      18.952  13.336   2.5960  0.00  0.00     0.000 C
ATOM     31   O  BDP B   2      18.188  13.815   1.7270  0.00  0.00     0.000 OA
ATOM     32   O  BDP B   2      19.845  12.472   2.3600  0.00  0.00     0.000 OA
ENDBRANCH 24 30
BRANCH 20 33
ATOM     33  O3  NAG B   3      18.571  11.848   6.9760  0.00  0.00     0.000 O
BRANCH 33 36
ATOM     34  C1  NAG B   3      15.558   9.940   8.1720  0.00  0.00     0.000 C
ATOM     35  C2  NAG B   3      16.665  10.977   8.1880  0.00  0.00     0.000 C
ATOM     36  C3  NAG B   3      17.420  11.010   6.8510  0.00  0.00     0.000 C
ATOM     37  C4  NAG B   3      17.873   9.597   6.4910  0.00  0.00     0.000 C
ATOM     38  C5  NAG B   3      16.702   8.624   6.5900  0.00  0.00     0.000 C
ATOM     39  O5  NAG B   3      16.139   8.675   7.8900  0.00  0.00     0.000 O
ATOM     40   O  NAG B   3      18.401   9.576   5.1560  0.00  0.00     0.000 O
ATOM     42  HD  NAG B   3      17.814   8.946   5.0660  0.00  0.00     0.000 HD
ATOM     42   C  NAG B   3      17.092   7.164   6.3730  0.00  0.00     0.000 C
ATOM     43   O  NAG B   3      17.951   6.736   7.4370  0.00  0.00     0.000 O
ATOM     45  HD  NAG B   3      17.364   6.105   7.3470  0.00  0.00     0.000 HD
BRANCH 35 47
ATOM     45   N  NAG B   3      16.965  11.801   9.3520  0.00  0.00     0.000 N
ATOM     47  HD  NAG B   3      17.596  11.235   9.1720  0.00  0.00     0.000 HD
ATOM     47   C  NAG B   3      16.645  13.077   9.4300  0.00  0.00     0.000 C
ATOM     48   C  NAG B   3      17.046  13.783  10.6910  0.00  0.00     0.000 C
ATOM     49   O  NAG B   3      16.075  13.662   8.5120  0.00  0.00     0.000 OA
ENDBRANCH 35 47
BRANCH 34 50
ATOM     50  O4  BDP B   4      15.055   9.967   9.4910  0.00  0.00     0.000 O
BRANCH 50 54
ATOM     51  C1  BDP B   4      12.115   8.541  11.9150  0.00  0.00     0.000 C
ATOM     52  C2  BDP B   4      13.323   7.622  11.7790  0.00  0.00     0.000 C
ATOM     53  C3  BDP B   4      14.456   8.403  11.1900  0.00  0.00     0.000 C
ATOM     54  C4  BDP B   4      14.007   9.050   9.8480  0.00  0.00     0.000 C
ATOM     55  C5  BDP B   4      12.686   9.797   9.9790  0.00  0.00     0.000 C
ATOM     56  O5  BDP B   4      11.716   8.982  10.6300  0.00  0.00     0.000 O
ATOM     57   O  BDP B   4      13.705   7.125  13.0440  0.00  0.00     0.000 O
ATOM     59  HD  BDP B   4      13.409   6.311  13.0580  0.00  0.00     0.000 HD
ATOM     59   O  BDP B   4      15.509   7.461  10.8980  0.00  0.00     0.000 O
ATOM     61  HD  BDP B   4      15.213   6.647  10.9120  0.00  0.00     0.000 HD
BRANCH 55 61
ATOM     61   C  BDP B   4      12.181  10.168   8.5960  0.00  0.00     0.000 C
ATOM     62   O  BDP B   4      11.885  11.372   8.3790  0.00  0.00     0.000 OA
ATOM     63   O  BDP B   4      12.084   9.249   7.7260  0.00  0.00     0.000 OA
ENDBRANCH 55 61
BRANCH 51 64
ATOM     64  O3  NAG B   5      11.066   7.779  12.5430  0.00  0.00     0.000 O
BRANCH 64 67
ATOM     65  C1  NAG B   5       8.793   9.024  15.1660  0.00  0.00     0.000 C
ATOM     66  C2  NAG B   5      10.019   8.371  14.5510  0.00  0.00     0.000 C
ATOM     67  C3  NAG B   5      10.025   8.595  13.0440  0.00  0.00     0.000 C
ATOM     68  C4  NAG B   5       8.692   8.165  12.4180  0.00  0.00     0.000 C
ATOM     69  C5  NAG B   5       7.522   8.796  13.1570  0.00  0.00     0.000 C
ATOM     70  O5  NAG B   5       7.625   8.518  14.5620  0.00  0.00     0.000 O
ATOM     71   O  NAG B   5       8.693   8.533  11.0550  0.00  0.00     0.000 O
ATOM     73  HD  NAG B   5       8.338   7.749  10.9670  0.00  0.00     0.000 HD
ATOM     73   C  NAG B   5       6.143   8.322  12.6800  0.00  0.00     0.000 C
ATOM     74   O  NAG B   5       5.997   6.911  12.9450  0.00  0.00     0.000 O
ATOM     76  HD  NAG B   5       5.642   6.126  12.8570  0.00  0.00     0.000 HD
BRANCH 66 78
ATOM     76   N  NAG B   5      11.144   8.960  15.3030  0.00  0.00     0.000 N
ATOM     78  HD  NAG B   5      10.834   8.169  15.1360  0.00  0.00     0.000 HD
ATOM     78   C  NAG B   5      12.186   8.289  15.8180  0.00  0.00     0.000 C
ATOM     79   C  NAG B   5      13.183   9.175  16.5160  0.00  0.00     0.000 C
ATOM     80   O  NAG B   5      12.315   7.016  15.7320  0.00  0.00     0.000 OA
ENDBRANCH 66 78
BRANCH 65 81
ATOM     81  O4  BDP B   6       8.759   8.776  16.5770  0.00  0.00     0.000 O
BRANCH 81 85
ATOM     82  C1  BDP B   6       7.060  10.428  20.1480  0.00  0.00     0.000 C
ATOM     83  C2  BDP B   6       6.170   9.529  19.2940  0.00  0.00     0.000 C
ATOM     84  C3  BDP B   6       6.963   8.681  18.2960  0.00  0.00     0.000 C
ATOM     85  C4  BDP B   6       7.925   9.529  17.4610  0.00  0.00     0.000 C
ATOM     86  C5  BDP B   6       8.742  10.416  18.4310  0.00  0.00     0.000 C
ATOM     87  O5  BDP B   6       7.877  11.218  19.2970  0.00  0.00     0.000 O
ATOM     88   O  BDP B   6       5.495   8.677  20.2140  0.00  0.00     0.000 O
ATOM     90  HD  BDP B   6       5.257   7.849  20.3060  0.00  0.00     0.000 HD
ATOM     90   O  BDP B   6       6.060   7.955  17.4580  0.00  0.00     0.000 O
ATOM     92  HD  BDP B   6       5.822   7.128  17.5500  0.00  0.00     0.000 HD
BRANCH 86 92
ATOM     92   C  BDP B   6       9.538  11.444  17.6650  0.00  0.00     0.000 C
ATOM     93   O  BDP B   6       8.946  12.450  17.1690  0.00  0.00     0.000 OA
ATOM     94   O  BDP B   6      10.792  11.263  17.5700  0.00  0.00     0.000 OA
ENDBRANCH 86 92
BRANCH 82 95
ATOM     95  O3  NAG B   7       6.215  11.318  20.9030  0.00  0.00     0.000 O
BRANCH 95 98
ATOM     96  C1  NAG B   7       5.857  12.931  24.1600  0.00  0.00     0.000 C
ATOM     97  C2  NAG B   7       5.462  12.567  22.7350  0.00  0.00     0.000 C
ATOM     98  C3  NAG B   7       6.615  11.711  22.2140  0.00  0.00     0.000 C
ATOM     99  C4  NAG B   7       7.913  12.515  22.2460  0.00  0.00     0.000 C
ATOM    100  C5  NAG B   7       8.168  13.086  23.6420  0.00  0.00     0.000 C
ATOM    101  O5  NAG B   7       7.008  13.780  24.0740  0.00  0.00     0.000 O
BRANCH 97 104
ATOM    102   N  NAG B   7       4.314  11.685  22.4800  0.00  0.00     0.000 N
ATOM    104  HD  NAG B   7       3.809  11.059  22.1600  0.00  0.00     0.000 HD
ATOM    104   O  NAG B   7       2.219  11.137  21.8190  0.00  0.00     0.000 OA
ATOM    105   C  NAG B   7       3.080  12.008  22.0490  0.00  0.00     0.000 C
ATOM    106   C  NAG B   7       2.743  13.443  21.8270  0.00  0.00     0.000 C
ENDBRANCH 97 104
ATOM    107   O  NAG B   7       9.735  14.231  24.9590  0.00  0.00     0.000 O
ATOM    109  HD  NAG B   7       9.145  13.597  24.9510  0.00  0.00     0.000 HD
ATOM    109   O  NAG B   7       9.735  14.231  24.9590  0.00  0.00     0.000 O
ATOM    111  HD  NAG B   7       9.145  13.597  24.9510  0.00  0.00     0.000 HD
ENDBRANCH 95 98
ENDBRANCH 82 95
ENDBRANCH 81 85
ENDBRANCH 65 81
ENDBRANCH 64 67
ENDBRANCH 51 64
ENDBRANCH 50 54
ENDBRANCH 34 50
ENDBRANCH 33 36
ENDBRANCH 20 33
ENDBRANCH 19 23
ENDBRANCH 1 19
TORSDOF 19
ENDMDL
MODEL 44
REMARK VINA RESULT:      -5.0     10.374     13.923
ROOT
ATOM      1  C1  NAG B   1      10.440  15.096  23.5760  0.00  0.00     0.000 C
ATOM      2  C2  NAG B   1      10.758  16.264  24.5060  0.00  0.00     0.000 C
ATOM      3  C3  NAG B   1      12.238  16.353  24.8140  0.00  0.00     0.000 C
ATOM      4  C4  NAG B   1      12.610  15.006  25.4260  0.00  0.00     0.000 C
ATOM      5  C5  NAG B   1      12.386  13.902  24.3840  0.00  0.00     0.000 C
ATOM      6  O5  NAG B   1      11.001  13.838  23.9830  0.00  0.00     0.000 O
ATOM      7   O  NAG B   1      12.542  17.434  25.7250  0.00  0.00     0.000 O
ATOM      9  HD  NAG B   1      11.888  17.760  25.2600  0.00  0.00     0.000 HD
ATOM      9   O  NAG B   1      13.967  15.013  25.8340  0.00  0.00     0.000 O
ATOM     11  HD  NAG B   1      13.314  15.339  25.3690  0.00  0.00     0.000 HD
ATOM     11   C  NAG B   1      12.882  12.558  24.9320  0.00  0.00     0.000 C
ATOM     12   O  NAG B   1      12.154  11.469  24.3670  0.00  0.00     0.000 O
ATOM     14  HD  NAG B   1      11.500  11.795  23.9020  0.00  0.00     0.000 HD
ENDROOT
BRANCH 2 16
ATOM     14   N  NAG B   1       9.549  16.993  24.9300  0.00  0.00     0.000 N
ATOM     16  HD  NAG B   1       9.270  17.608  25.4730  0.00  0.00     0.000 HD
ATOM     16   C  NAG B   1       9.250  18.232  24.5020  0.00  0.00     0.000 C
ATOM     17   C  NAG B   1      10.184  18.949  23.5640  0.00  0.00     0.000 C
ATOM     18   O  NAG B   1       8.206  18.789  24.8400  0.00  0.00     0.000 OA
ENDBRANCH 2 16
BRANCH 1 19
ATOM     19  O4  BDP B   2       9.031  14.956  23.7030  0.00  0.00     0.000 O
BRANCH 19 23
ATOM     20  C1  BDP B   2       8.541  13.255  19.9860  0.00  0.00     0.000 C
ATOM     21  C2  BDP B   2       8.332  14.753  20.0740  0.00  0.00     0.000 C
ATOM     22  C3  BDP B   2       8.933  15.317  21.3410  0.00  0.00     0.000 C
ATOM     23  C4  BDP B   2       8.377  14.536  22.5290  0.00  0.00     0.000 C
ATOM     24  C5  BDP B   2       8.656  13.058  22.3360  0.00  0.00     0.000 C
ATOM     25  O5  BDP B   2       8.034  12.610  21.1460  0.00  0.00     0.000 O
ATOM     26   O  BDP B   2       8.899  15.393  18.9520  0.00  0.00     0.000 O
ATOM     28  HD  BDP B   2       8.935  14.566  18.6960  0.00  0.00     0.000 HD
ATOM     28   O  BDP B   2       8.629  16.718  21.4270  0.00  0.00     0.000 O
ATOM     30  HD  BDP B   2       8.665  15.891  21.1710  0.00  0.00     0.000 HD
BRANCH 24 30
ATOM     30   C  BDP B   2       8.128  12.235  23.4560  0.00  0.00     0.000 C
ATOM     31   O  BDP B   2       8.927  11.451  24.0180  0.00  0.00     0.000 OA
ATOM     32   O  BDP B   2       6.912  12.363  23.7750  0.00  0.00     0.000 OA
ENDBRANCH 24 30
BRANCH 20 33
ATOM     33  O3  NAG B   3       7.776  12.869  18.8710  0.00  0.00     0.000 O
BRANCH 33 36
ATOM     34  C1  NAG B   3       8.886   9.910  16.8300  0.00  0.00     0.000 C
ATOM     35  C2  NAG B   3       8.844  11.345  17.3220  0.00  0.00     0.000 C
ATOM     36  C3  NAG B   3       7.949  11.484  18.5640  0.00  0.00     0.000 C
ATOM     37  C4  NAG B   3       6.583  10.866  18.2740  0.00  0.00     0.000 C
ATOM     38  C5  NAG B   3       6.748   9.460  17.7060  0.00  0.00     0.000 C
ATOM     39  O5  NAG B   3       7.558   9.500  16.5430  0.00  0.00     0.000 O
ATOM     40   O  NAG B   3       5.806  10.806  19.4800  0.00  0.00     0.000 O
ATOM     42  HD  NAG B   3       5.750   9.972  19.2560  0.00  0.00     0.000 HD
ATOM     42   C  NAG B   3       5.436   8.815  17.2650  0.00  0.00     0.000 C
ATOM     43   O  NAG B   3       4.893   9.543  16.1570  0.00  0.00     0.000 O
ATOM     45  HD  NAG B   3       4.837   8.709  15.9320  0.00  0.00     0.000 HD
BRANCH 35 47
ATOM     45   N  NAG B   3       9.526  12.463  16.6840  0.00  0.00     0.000 N
ATOM     47  HD  NAG B   3       8.664  12.542  16.6620  0.00  0.00     0.000 HD
ATOM     47   C  NAG B   3      10.649  12.977  17.1460  0.00  0.00     0.000 C
ATOM     48   C  NAG B   3      11.208  14.139  16.3810  0.00  0.00     0.000 C
ATOM     49   O  NAG B   3      11.192  12.546  18.1610  0.00  0.00     0.000 OA
ENDBRANCH 35 47
BRANCH 34 50
ATOM     50  O4  BDP B   4       9.646   9.987  15.6420  0.00  0.00     0.000 O
BRANCH 50 54
ATOM     51  C1  BDP B   4      12.195   7.965  13.2000  0.00  0.00     0.000 C
ATOM     52  C2  BDP B   4      10.745   7.500  13.1250  0.00  0.00     0.000 C
ATOM     53  C3  BDP B   4       9.874   8.539  13.7610  0.00  0.00     0.000 C
ATOM     54  C4  BDP B   4      10.368   8.822  15.2090  0.00  0.00     0.000 C
ATOM     55  C5  BDP B   4      11.866   9.088  15.2690  0.00  0.00     0.000 C
ATOM     56  O5  BDP B   4      12.579   8.080  14.5570  0.00  0.00     0.000 O
ATOM     57   O  BDP B   4      10.356   7.324  11.7790  0.00  0.00     0.000 O
ATOM     59  HD  BDP B   4      10.369   6.466  11.6580  0.00  0.00     0.000 HD
ATOM     59   O  BDP B   4       8.547   7.980  13.8460  0.00  0.00     0.000 O
ATOM     61  HD  BDP B   4       8.561   7.122  13.7250  0.00  0.00     0.000 HD
BRANCH 55 61
ATOM     61   C  BDP B   4      12.317   9.090  16.7180  0.00  0.00     0.000 C
ATOM     62   O  BDP B   4      12.098   8.059  17.4070  0.00  0.00     0.000 OA
ATOM     63   O  BDP B   4      12.895  10.127  17.1670  0.00  0.00     0.000 OA
ENDBRANCH 55 61
BRANCH 51 64
ATOM     64  O3  NAG B   5      12.996   6.977  12.5230  0.00  0.00     0.000 O
BRANCH 64 67
ATOM     65  C1  NAG B   5      15.804   7.799  10.2790  0.00  0.00     0.000 C
ATOM     66  C2  NAG B   5      14.373   7.529  10.7130  0.00  0.00     0.000 C
ATOM     67  C3  NAG B   5      14.300   7.441  12.2320  0.00  0.00     0.000 C
ATOM     68  C4  NAG B   5      15.331   6.443  12.7770  0.00  0.00     0.000 C
ATOM     69  C5  NAG B   5      16.713   6.738  12.2150  0.00  0.00     0.000 C
ATOM     70  O5  NAG B   5      16.656   6.796  10.7820  0.00  0.00     0.000 O
ATOM     71   O  NAG B   5      15.326   6.513  14.1860  0.00  0.00     0.000 O
ATOM     73  HD  NAG B   5      15.374   5.652  14.1090  0.00  0.00     0.000 HD
ATOM     73   C  NAG B   5      17.786   5.712  12.6060  0.00  0.00     0.000 C
ATOM     74   O  NAG B   5      17.453   4.426  12.0430  0.00  0.00     0.000 O
ATOM     76  HD  NAG B   5      17.501   3.564  11.9660  0.00  0.00     0.000 HD
BRANCH 66 78
ATOM     76   N  NAG B   5      13.641   8.607  10.0210  0.00  0.00     0.000 N
ATOM     78  HD  NAG B   5      13.586   7.746  10.0960  0.00  0.00     0.000 HD
ATOM     78   C  NAG B   5      12.449   8.489   9.4150  0.00  0.00     0.000 C
ATOM     79   C  NAG B   5      11.952   9.776   8.8140  0.00  0.00     0.000 C
ATOM     80   O  NAG B   5      11.801   7.384   9.3470  0.00  0.00     0.000 OA
ENDBRANCH 66 78
BRANCH 65 81
ATOM     81  O4  BDP B   6      15.886   7.836   8.8480  0.00  0.00     0.000 O
BRANCH 81 85
ATOM     82  C1  BDP B   6      18.391   9.388   5.7360  0.00  0.00     0.000 C
ATOM     83  C2  BDP B   6      18.889   8.162   6.4970  0.00  0.00     0.000 C
ATOM     84  C3  BDP B   6      17.778   7.455   7.2790  0.00  0.00     0.000 C
ATOM     85  C4  BDP B   6      16.995   8.426   8.1660  0.00  0.00     0.000 C
ATOM     86  C5  BDP B   6      16.577   9.634   7.2950  0.00  0.00     0.000 C
ATOM     87  O5  BDP B   6      17.728  10.260   6.6410  0.00  0.00     0.000 O
ATOM     88   O  BDP B   6      19.407   7.282   5.5040  0.00  0.00     0.000 O
ATOM     90  HD  BDP B   6      19.417   6.441   5.2960  0.00  0.00     0.000 HD
ATOM     90   O  BDP B   6      18.339   6.392   8.0530  0.00  0.00     0.000 O
ATOM     92  HD  BDP B   6      18.348   5.551   7.8460  0.00  0.00     0.000 HD
BRANCH 86 92
ATOM     92   C  BDP B   6      16.010  10.737   8.1560  0.00  0.00     0.000 C
ATOM     93   O  BDP B   6      16.679  11.162   9.1460  0.00  0.00     0.000 OA
ATOM     94   O  BDP B   6      14.878  11.212   7.8300  0.00  0.00     0.000 OA
ENDBRANCH 86 92
BRANCH 82 95
ATOM     95  O3  NAG B   7      19.533  10.087   5.2040  0.00  0.00     0.000 O
BRANCH 95 98
ATOM     96  C1  NAG B   7      20.282  11.664   1.9960  0.00  0.00     0.000 C
ATOM     97  C2  NAG B   7      20.515  10.734   3.1800  0.00  0.00     0.000 C
ATOM     98  C3  NAG B   7      19.347  11.003   4.1260  0.00  0.00     0.000 C
ATOM     99  C4  NAG B   7      19.354  12.468   4.5570  0.00  0.00     0.000 C
ATOM    100  C5  NAG B   7      19.370  13.394   3.3400  0.00  0.00     0.000 C
ATOM    101  O5  NAG B   7      20.428  13.005   2.4780  0.00  0.00     0.000 O
BRANCH 97 104
ATOM    102   N  NAG B   7      20.990   9.353   3.3410  0.00  0.00     0.000 N
ATOM    104  HD  NAG B   7      21.501   8.655   3.3840  0.00  0.00     0.000 HD
ATOM    104   O  NAG B   7      21.178   7.148   2.8590  0.00  0.00     0.000 OA
ATOM    105   C  NAG B   7      20.642   8.253   2.6460  0.00  0.00     0.000 C
ATOM    106   C  NAG B   7      19.599   8.366   1.5870  0.00  0.00     0.000 C
ENDBRANCH 97 104
ATOM    107   O  NAG B   7      19.219  15.637   2.6690  0.00  0.00     0.000 O
ATOM    109  HD  NAG B   7      18.992  14.823   2.4770  0.00  0.00     0.000 HD
ATOM    109   O  NAG B   7      19.219  15.637   2.6690  0.00  0.00     0.000 O
ATOM    111  HD  NAG B   7      18.992  14.823   2.4770  0.00  0.00     0.000 HD
ENDBRANCH 95 98
ENDBRANCH 82 95
ENDBRANCH 81 85
ENDBRANCH 65 81
ENDBRANCH 64 67
ENDBRANCH 51 64
ENDBRANCH 50 54
ENDBRANCH 34 50
ENDBRANCH 33 36
ENDBRANCH 20 33
ENDBRANCH 19 23
ENDBRANCH 1 19
TORSDOF 19
ENDMDL
MODEL 45
REMARK VINA RESULT:      -5.0      9.183     17.891
ROOT
ATOM      1  C1  NAG B   1      26.609   7.392   9.6080  0.00  0.00     0.000 C
ATOM      2  C2  NAG B   1      27.985   6.970  10.1150  0.00  0.00     0.000 C
ATOM      3  C3  NAG B   1      28.345   7.661  11.4140  0.00  0.00     0.000 C
ATOM      4  C4  NAG B   1      28.268   9.155  11.1160  0.00  0.00     0.000 C
ATOM      5  C5  NAG B   1      26.825   9.520  10.7440  0.00  0.00     0.000 C
ATOM      6  O5  NAG B   1      26.398   8.812   9.5610  0.00  0.00     0.000 O
ATOM      7   O  NAG B   1      29.664   7.296  11.8790  0.00  0.00     0.000 O
ATOM      9  HD  NAG B   1      29.385   6.562  11.5140  0.00  0.00     0.000 HD
ATOM      9   O  NAG B   1      28.674   9.901  12.2520  0.00  0.00     0.000 O
ATOM     11  HD  NAG B   1      28.395   9.167  11.8870  0.00  0.00     0.000 HD
ATOM     11   C  NAG B   1      26.696  11.039  10.5750  0.00  0.00     0.000 C
ATOM     12   O  NAG B   1      25.666  11.371   9.6450  0.00  0.00     0.000 O
ATOM     14  HD  NAG B   1      25.387  10.637   9.2800  0.00  0.00     0.000 HD
ENDROOT
BRANCH 2 16
ATOM     14   N  NAG B   1      28.666   6.039   9.1980  0.00  0.00     0.000 N
ATOM     16  HD  NAG B   1      29.424   5.646   9.0510  0.00  0.00     0.000 HD
ATOM     16   C  NAG B   1      28.855   4.738   9.4780  0.00  0.00     0.000 C
ATOM     17   C  NAG B   1      28.384   4.177  10.7930  0.00  0.00     0.000 C
ATOM     18   O  NAG B   1      29.384   3.980   8.6650  0.00  0.00     0.000 OA
ENDBRANCH 2 16
BRANCH 1 19
ATOM     19  O4  BDP B   2      26.611   6.951   8.2570  0.00  0.00     0.000 O
BRANCH 19 23
ATOM     20  C1  BDP B   2      22.520   6.647   7.9310  0.00  0.00     0.000 C
ATOM     21  C2  BDP B   2      23.248   5.419   8.4380  0.00  0.00     0.000 C
ATOM     22  C3  BDP B   2      24.642   5.764   8.9100  0.00  0.00     0.000 C
ATOM     23  C4  BDP B   2      25.364   6.501   7.7860  0.00  0.00     0.000 C
ATOM     24  C5  BDP B   2      24.550   7.712   7.3720  0.00  0.00     0.000 C
ATOM     25  O5  BDP B   2      23.277   7.294   6.9180  0.00  0.00     0.000 O
ATOM     26   O  BDP B   2      22.523   4.820   9.4900  0.00  0.00     0.000 O
ATOM     28  HD  BDP B   2      21.934   5.380   9.1930  0.00  0.00     0.000 HD
ATOM     28   O  BDP B   2      25.324   4.560   9.2920  0.00  0.00     0.000 O
ATOM     30  HD  BDP B   2      24.735   5.120   8.9940  0.00  0.00     0.000 HD
BRANCH 24 30
ATOM     30   C  BDP B   2      25.194   8.472   6.2690  0.00  0.00     0.000 C
ATOM     31   O  BDP B   2      25.416   7.855   5.2010  0.00  0.00     0.000 OA
ATOM     32   O  BDP B   2      25.489   9.685   6.4660  0.00  0.00     0.000 OA
ENDBRANCH 24 30
BRANCH 20 33
ATOM     33  O3  NAG B   3      21.338   6.133   7.3670  0.00  0.00     0.000 O
BRANCH 33 36
ATOM     34  C1  NAG B   3      18.238   8.262   7.4550  0.00  0.00     0.000 C
ATOM     35  C2  NAG B   3      19.311   7.318   7.9620  0.00  0.00     0.000 C
ATOM     36  C3  NAG B   3      20.456   7.176   6.9460  0.00  0.00     0.000 C
ATOM     37  C4  NAG B   3      19.877   6.814   5.5800  0.00  0.00     0.000 C
ATOM     38  C5  NAG B   3      18.751   7.775   5.2100  0.00  0.00     0.000 C
ATOM     39  O5  NAG B   3      17.754   7.762   6.2170  0.00  0.00     0.000 O
ATOM     40   O  NAG B   3      20.906   6.875   4.5800  0.00  0.00     0.000 O
ATOM     42  HD  NAG B   3      20.334   7.403   4.2010  0.00  0.00     0.000 HD
ATOM     42   C  NAG B   3      18.027   7.408   3.9170  0.00  0.00     0.000 C
ATOM     43   O  NAG B   3      17.338   6.164   4.0910  0.00  0.00     0.000 O
ATOM     45  HD  NAG B   3      16.766   6.692   3.7120  0.00  0.00     0.000 HD
BRANCH 35 47
ATOM     45   N  NAG B   3      19.237   6.615   9.2360  0.00  0.00     0.000 N
ATOM     47  HD  NAG B   3      19.200   6.079   8.5560  0.00  0.00     0.000 HD
ATOM     47   C  NAG B   3      19.936   6.973  10.2940  0.00  0.00     0.000 C
ATOM     48   C  NAG B   3      19.757   6.128  11.5210  0.00  0.00     0.000 C
ATOM     49   O  NAG B   3      20.710   7.927  10.2720  0.00  0.00     0.000 OA
ENDBRANCH 35 47
BRANCH 34 50
ATOM     50  O4  BDP B   4      17.232   8.185   8.4440  0.00  0.00     0.000 O
BRANCH 50 54
ATOM     51  C1  BDP B   4      14.393  10.290  10.4590  0.00  0.00     0.000 C
ATOM     52  C2  BDP B   4      14.171  10.212   8.9530  0.00  0.00     0.000 C
ATOM     53  C3  BDP B   4      15.042   9.128   8.3960  0.00  0.00     0.000 C
ATOM     54  C4  BDP B   4      16.522   9.384   8.8000  0.00  0.00     0.000 C
ATOM     55  C5  BDP B   4      16.677   9.656  10.2900  0.00  0.00     0.000 C
ATOM     56  O5  BDP B   4      15.740  10.641  10.7160  0.00  0.00     0.000 O
ATOM     57   O  BDP B   4      12.819   9.917   8.6710  0.00  0.00     0.000 O
ATOM     59  HD  BDP B   4      12.478  10.674   8.4240  0.00  0.00     0.000 HD
ATOM     59   O  BDP B   4      14.952   9.214   6.9590  0.00  0.00     0.000 O
ATOM     61  HD  BDP B   4      14.610   9.970   6.7110  0.00  0.00     0.000 HD
BRANCH 55 61
ATOM     61   C  BDP B   4      18.085  10.156  10.5630  0.00  0.00     0.000 C
ATOM     62   O  BDP B   4      18.657  10.830   9.6680  0.00  0.00     0.000 OA
ATOM     63   O  BDP B   4      18.616   9.872  11.6800  0.00  0.00     0.000 OA
ENDBRANCH 55 61
BRANCH 51 64
ATOM     64  O3  NAG B   5      13.496  11.294  10.9710  0.00  0.00     0.000 O
BRANCH 64 67
ATOM     65  C1  NAG B   5      11.570  10.855  14.0840  0.00  0.00     0.000 C
ATOM     66  C2  NAG B   5      11.915  10.749  12.6090  0.00  0.00     0.000 C
ATOM     67  C3  NAG B   5      13.344  11.223  12.3750  0.00  0.00     0.000 C
ATOM     68  C4  NAG B   5      13.569  12.613  12.9850  0.00  0.00     0.000 C
ATOM     69  C5  NAG B   5      13.109  12.646  14.4340  0.00  0.00     0.000 C
ATOM     70  O5  NAG B   5      11.755  12.180  14.5270  0.00  0.00     0.000 O
ATOM     71   O  NAG B   5      14.939  12.938  12.8760  0.00  0.00     0.000 O
ATOM     73  HD  NAG B   5      14.614  13.710  12.6560  0.00  0.00     0.000 HD
ATOM     73   C  NAG B   5      13.179  14.033  15.0880  0.00  0.00     0.000 C
ATOM     74   O  NAG B   5      12.269  14.930  14.4180  0.00  0.00     0.000 O
ATOM     76  HD  NAG B   5      11.945  15.703  14.1980  0.00  0.00     0.000 HD
BRANCH 66 78
ATOM     76   N  NAG B   5      11.654   9.336  12.2730  0.00  0.00     0.000 N
ATOM     78  HD  NAG B   5      11.378  10.114  12.0120  0.00  0.00     0.000 HD
ATOM     78   C  NAG B   5      10.963   8.891  11.2110  0.00  0.00     0.000 C
ATOM     79   C  NAG B   5      10.886   7.391  11.1310  0.00  0.00     0.000 C
ATOM     80   O  NAG B   5      10.414   9.671  10.3530  0.00  0.00     0.000 OA
ENDBRANCH 66 78
BRANCH 65 81
ATOM     81  O4  BDP B   6      10.211  10.453  14.3020  0.00  0.00     0.000 O
BRANCH 81 85
ATOM     82  C1  BDP B   6       7.691   8.859  17.3800  0.00  0.00     0.000 C
ATOM     83  C2  BDP B   6       8.292  10.243  17.6070  0.00  0.00     0.000 C
ATOM     84  C3  BDP B   6       8.819  10.882  16.3190  0.00  0.00     0.000 C
ATOM     85  C4  BDP B   6       9.761   9.944  15.5600  0.00  0.00     0.000 C
ATOM     86  C5  BDP B   6       9.059   8.572  15.4240  0.00  0.00     0.000 C
ATOM     87  O5  BDP B   6       8.647   8.039  16.7240  0.00  0.00     0.000 O
ATOM     88   O  BDP B   6       7.232  11.037  18.1330  0.00  0.00     0.000 O
ATOM     90  HD  BDP B   6       6.892  11.830  18.0590  0.00  0.00     0.000 HD
ATOM     90   O  BDP B   6       9.467  12.119  16.6270  0.00  0.00     0.000 O
ATOM     92  HD  BDP B   6       9.127  12.912  16.5530  0.00  0.00     0.000 HD
BRANCH 86 92
ATOM     92   C  BDP B   6      10.020   7.535  14.8980  0.00  0.00     0.000 C
ATOM     93   O  BDP B   6       9.583   6.588  14.1770  0.00  0.00     0.000 OA
ATOM     94   O  BDP B   6      11.249   7.674  15.1880  0.00  0.00     0.000 OA
ENDBRANCH 86 92
BRANCH 82 95
ATOM     95  O3  NAG B   7       7.411   8.270  18.6650  0.00  0.00     0.000 O
BRANCH 95 98
ATOM     96  C1  NAG B   7       4.567   6.338  19.8980  0.00  0.00     0.000 C
ATOM     97  C2  NAG B   7       5.552   7.499  19.8620  0.00  0.00     0.000 C
ATOM     98  C3  NAG B   7       6.527   7.152  18.7390  0.00  0.00     0.000 C
ATOM     99  C4  NAG B   7       7.229   5.833  19.0510  0.00  0.00     0.000 C
ATOM    100  C5  NAG B   7       6.212   4.726  19.3300  0.00  0.00     0.000 C
ATOM    101  O5  NAG B   7       5.297   5.179  20.3150  0.00  0.00     0.000 O
BRANCH 97 104
ATOM    102   N  NAG B   7       5.118   8.842  19.4540  0.00  0.00     0.000 N
ATOM    104  HD  NAG B   7       5.091   9.624  19.0810  0.00  0.00     0.000 HD
ATOM    104   O  NAG B   7       4.554  11.019  19.7260  0.00  0.00     0.000 OA
ATOM    105   C  NAG B   7       4.859   9.917  20.2230  0.00  0.00     0.000 C
ATOM    106   C  NAG B   7       4.952   9.787  21.7050  0.00  0.00     0.000 C
ENDBRANCH 97 104
ATOM    107   O  NAG B   7       5.981   2.423  19.7140  0.00  0.00     0.000 O
ATOM    109  HD  NAG B   7       5.636   3.113  19.3210  0.00  0.00     0.000 HD
ATOM    109   O  NAG B   7       5.981   2.423  19.7140  0.00  0.00     0.000 O
ATOM    111  HD  NAG B   7       5.636   3.113  19.3210  0.00  0.00     0.000 HD
ENDBRANCH 95 98
ENDBRANCH 82 95
ENDBRANCH 81 85
ENDBRANCH 65 81
ENDBRANCH 64 67
ENDBRANCH 51 64
ENDBRANCH 50 54
ENDBRANCH 34 50
ENDBRANCH 33 36
ENDBRANCH 20 33
ENDBRANCH 19 23
ENDBRANCH 1 19
TORSDOF 19
ENDMDL
MODEL 46
REMARK VINA RESULT:      -4.9      3.053      4.393
ROOT
ATOM      1  C1  NAG B   1       8.992  23.137   9.1520  0.00  0.00     0.000 C
ATOM      2  C2  NAG B   1       9.374  24.096   8.0280  0.00  0.00     0.000 C
ATOM      3  C3  NAG B   1       8.194  24.414   7.1330  0.00  0.00     0.000 C
ATOM      4  C4  NAG B   1       7.706  23.068   6.6070  0.00  0.00     0.000 C
ATOM      5  C5  NAG B   1       7.218  22.215   7.7860  0.00  0.00     0.000 C
ATOM      6  O5  NAG B   1       8.287  21.962   8.7230  0.00  0.00     0.000 O
ATOM      7   O  NAG B   1       8.557  25.292   6.0430  0.00  0.00     0.000 O
ATOM      9  HD  NAG B   1       9.061  25.576   6.6870  0.00  0.00     0.000 HD
ATOM      9   O  NAG B   1       6.649  23.259   5.6830  0.00  0.00     0.000 O
ATOM     11  HD  NAG B   1       7.153  23.542   6.3270  0.00  0.00     0.000 HD
ATOM     11   C  NAG B   1       6.598  20.912   7.2670  0.00  0.00     0.000 C
ATOM     12   O  NAG B   1       6.735  19.858   8.2190  0.00  0.00     0.000 O
ATOM     14  HD  NAG B   1       7.240  20.142   8.8630  0.00  0.00     0.000 HD
ENDROOT
BRANCH 2 16
ATOM     14   N  NAG B   1      10.778  24.516   7.8720  0.00  0.00     0.000 N
ATOM     16  HD  NAG B   1      11.295  25.038   7.4140  0.00  0.00     0.000 HD
ATOM     16   C  NAG B   1      11.266  25.657   8.3870  0.00  0.00     0.000 C
ATOM     17   C  NAG B   1      10.356  26.590   9.1420  0.00  0.00     0.000 C
ATOM     18   O  NAG B   1      12.456  25.950   8.2790  0.00  0.00     0.000 OA
ENDBRANCH 2 16
BRANCH 1 19
ATOM     19  O4  BDP B   2      10.251  22.685   9.6330  0.00  0.00     0.000 O
BRANCH 19 23
ATOM     20  C1  BDP B   2      11.988  19.030  10.3890  0.00  0.00     0.000 C
ATOM     21  C2  BDP B   2      11.661  19.334   8.9410  0.00  0.00     0.000 C
ATOM     22  C3  BDP B   2      11.432  20.813   8.7290  0.00  0.00     0.000 C
ATOM     23  C4  BDP B   2      10.374  21.285   9.7230  0.00  0.00     0.000 C
ATOM     24  C5  BDP B   2      10.815  20.939  11.1310  0.00  0.00     0.000 C
ATOM     25  O5  BDP B   2      10.975  19.538  11.2470  0.00  0.00     0.000 O
ATOM     26   O  BDP B   2      12.703  18.888   8.1000  0.00  0.00     0.000 O
ATOM     28  HD  BDP B   2      12.930  18.510   8.8460  0.00  0.00     0.000 HD
ATOM     28   O  BDP B   2      11.035  21.040   7.3680  0.00  0.00     0.000 O
ATOM     30  HD  BDP B   2      11.262  20.663   8.1140  0.00  0.00     0.000 HD
BRANCH 24 30
ATOM     30   C  BDP B   2       9.820  21.363  12.1510  0.00  0.00     0.000 C
ATOM     31   O  BDP B   2       8.645  20.949  12.0150  0.00  0.00     0.000 OA
ATOM     32   O  BDP B   2      10.205  22.118  13.0890  0.00  0.00     0.000 OA
ENDBRANCH 24 30
BRANCH 20 33
ATOM     33  O3  NAG B   3      11.984  17.625  10.4510  0.00  0.00     0.000 O
BRANCH 33 36
ATOM     34  C1  NAG B   3      14.653  15.167  11.4460  0.00  0.00     0.000 C
ATOM     35  C2  NAG B   3      13.629  15.851  10.5600  0.00  0.00     0.000 C
ATOM     36  C3  NAG B   3      13.082  17.127  11.2190  0.00  0.00     0.000 C
ATOM     37  C4  NAG B   3      12.591  16.798  12.6270  0.00  0.00     0.000 C
ATOM     38  C5  NAG B   3      13.667  16.038  13.3990  0.00  0.00     0.000 C
ATOM     39  O5  NAG B   3      14.035  14.867  12.6890  0.00  0.00     0.000 O
ATOM     40   O  NAG B   3      12.265  18.008  13.3290  0.00  0.00     0.000 O
ATOM     42  HD  NAG B   3      12.815  17.673  13.9080  0.00  0.00     0.000 HD
ATOM     42   C  NAG B   3      13.215  15.553  14.7740  0.00  0.00     0.000 C
ATOM     43   O  NAG B   3      12.182  14.572  14.6200  0.00  0.00     0.000 O
ATOM     45  HD  NAG B   3      12.731  14.238  15.2000  0.00  0.00     0.000 HD
BRANCH 35 47
ATOM     45   N  NAG B   3      13.171  15.361   9.2660  0.00  0.00     0.000 N
ATOM     47  HD  NAG B   3      12.536  15.391   9.8550  0.00  0.00     0.000 HD
ATOM     47   C  NAG B   3      13.608  15.844   8.1210  0.00  0.00     0.000 C
ATOM     48   C  NAG B   3      13.018  15.240   6.8810  0.00  0.00     0.000 C
ATOM     49   O  NAG B   3      14.431  16.755   8.0700  0.00  0.00     0.000 OA
ENDBRANCH 35 47
BRANCH 34 50
ATOM     50  O4  BDP B   4      14.957  13.978  10.7480  0.00  0.00     0.000 O
BRANCH 50 54
ATOM     51  C1  BDP B   4      17.869  11.249   9.9560  0.00  0.00     0.000 C
ATOM     52  C2  BDP B   4      17.494  11.363  11.4290  0.00  0.00     0.000 C
ATOM     53  C3  BDP B   4      16.192  12.096  11.5370  0.00  0.00     0.000 C
ATOM     54  C4  BDP B   4      16.299  13.467  10.8090  0.00  0.00     0.000 C
ATOM     55  C5  BDP B   4      16.868  13.333   9.4030  0.00  0.00     0.000 C
ATOM     56  O5  BDP B   4      18.056  12.546   9.4190  0.00  0.00     0.000 O
ATOM     57   O  BDP B   4      17.356  10.079  12.0000  0.00  0.00     0.000 O
ATOM     59  HD  BDP B   4      18.083   9.966  12.4580  0.00  0.00     0.000 HD
ATOM     59   O  BDP B   4      15.970  12.353  12.9390  0.00  0.00     0.000 O
ATOM     61  HD  BDP B   4      16.696  12.239  13.3960  0.00  0.00     0.000 HD
BRANCH 55 61
ATOM     61   C  BDP B   4      17.192  14.714   8.8600  0.00  0.00     0.000 C
ATOM     62   O  BDP B   4      17.088  14.900   7.6200  0.00  0.00     0.000 OA
ATOM     63   O  BDP B   4      17.549  15.613   9.6810  0.00  0.00     0.000 OA
ENDBRANCH 55 61
BRANCH 51 64
ATOM     64  O3  NAG B   5      19.088  10.485   9.8830  0.00  0.00     0.000 O
BRANCH 64 67
ATOM     65  C1  NAG B   5      19.831   8.243   7.0520  0.00  0.00     0.000 C
ATOM     66  C2  NAG B   5      19.238   8.704   8.3730  0.00  0.00     0.000 C
ATOM     67  C3  NAG B   5      19.472  10.198   8.5530  0.00  0.00     0.000 C
ATOM     68  C4  NAG B   5      20.954  10.551   8.3610  0.00  0.00     0.000 C
ATOM     69  C5  NAG B   5      21.480   9.970   7.0590  0.00  0.00     0.000 C
ATOM     70  O5  NAG B   5      21.203   8.563   7.0040  0.00  0.00     0.000 O
ATOM     71   O  NAG B   5      21.090  11.956   8.3860  0.00  0.00     0.000 O
ATOM     73  HD  NAG B   5      21.784  11.758   8.8660  0.00  0.00     0.000 HD
ATOM     73   C  NAG B   5      22.988  10.164   6.8430  0.00  0.00     0.000 C
ATOM     74   O  NAG B   5      23.718   9.448   7.8600  0.00  0.00     0.000 O
ATOM     76  HD  NAG B   5      24.412   9.250   8.3400  0.00  0.00     0.000 HD
BRANCH 66 78
ATOM     76   N  NAG B   5      17.862   8.182   8.2660  0.00  0.00     0.000 N
ATOM     78  HD  NAG B   5      18.506   8.166   8.8450  0.00  0.00     0.000 HD
ATOM     78   C  NAG B   5      17.143   7.643   9.2640  0.00  0.00     0.000 C
ATOM     79   C  NAG B   5      15.761   7.220   8.8460  0.00  0.00     0.000 C
ATOM     80   O  NAG B   5      17.594   7.495  10.4550  0.00  0.00     0.000 OA
ENDBRANCH 66 78
BRANCH 65 81
ATOM     81  O4  BDP B   6      19.654   6.829   6.8990  0.00  0.00     0.000 O
BRANCH 81 85
ATOM     82  C1  BDP B   6      19.626   3.855   3.8140  0.00  0.00     0.000 C
ATOM     83  C2  BDP B   6      20.982   4.279   4.3730  0.00  0.00     0.000 C
ATOM     84  C3  BDP B   6      20.870   5.012   5.7120  0.00  0.00     0.000 C
ATOM     85  C4  BDP B   6      19.867   6.166   5.6510  0.00  0.00     0.000 C
ATOM     86  C5  BDP B   6      18.554   5.623   5.0390  0.00  0.00     0.000 C
ATOM     87  O5  BDP B   6      18.778   4.991   3.7380  0.00  0.00     0.000 O
ATOM     88   O  BDP B   6      21.715   3.070   4.5510  0.00  0.00     0.000 O
ATOM     90  HD  BDP B   6      22.247   2.690   5.1180  0.00  0.00     0.000 HD
ATOM     90   O  BDP B   6      22.162   5.477   6.1130  0.00  0.00     0.000 O
ATOM     92  HD  BDP B   6      22.694   5.097   6.6810  0.00  0.00     0.000 HD
BRANCH 86 92
ATOM     92   C  BDP B   6      17.605   6.756   4.7310  0.00  0.00     0.000 C
ATOM     93   O  BDP B   6      17.816   7.488   3.7180  0.00  0.00     0.000 OA
ATOM     94   O  BDP B   6      16.608   6.911   5.5020  0.00  0.00     0.000 OA
ENDBRANCH 86 92
BRANCH 82 95
ATOM     95  O3  NAG B   7      19.822   3.358   2.4760  0.00  0.00     0.000 O
BRANCH 95 98
ATOM     96  C1  NAG B   7      19.153   0.341   0.5280  0.00  0.00     0.000 C
ATOM     97  C2  NAG B   7      19.927   1.582   0.9530  0.00  0.00     0.000 C
ATOM     98  C3  NAG B   7      19.066   2.231   2.0350  0.00  0.00     0.000 C
ATOM     99  C4  NAG B   7      17.699   2.594   1.4620  0.00  0.00     0.000 C
ATOM    100  C5  NAG B   7      17.037   1.377   0.8140  0.00  0.00     0.000 C
ATOM    101  O5  NAG B   7      17.948   0.791  -0.1020  0.00  0.00     0.000 O
BRANCH 97 104
ATOM    102   N  NAG B   7      21.227   1.363   1.6000  0.00  0.00     0.000 N
ATOM    104  HD  NAG B   7      21.873   1.364   2.1770  0.00  0.00     0.000 HD
ATOM    104   O  NAG B   7      23.465   1.559   1.8940  0.00  0.00     0.000 OA
ATOM    105   C  NAG B   7      22.448   1.771   1.2040  0.00  0.00     0.000 C
ATOM    106   C  NAG B   7      22.583   2.506  -0.0850  0.00  0.00     0.000 C
ENDBRANCH 97 104
ATOM    107   O  NAG B   7      15.052   0.602  -0.1670  0.00  0.00     0.000 O
ATOM    109  HD  NAG B   7      15.711   0.396   0.3560  0.00  0.00     0.000 HD
ATOM    109   O  NAG B   7      15.052   0.602  -0.1670  0.00  0.00     0.000 O
ATOM    111  HD  NAG B   7      15.711   0.396   0.3560  0.00  0.00     0.000 HD
ENDBRANCH 95 98
ENDBRANCH 82 95
ENDBRANCH 81 85
ENDBRANCH 65 81
ENDBRANCH 64 67
ENDBRANCH 51 64
ENDBRANCH 50 54
ENDBRANCH 34 50
ENDBRANCH 33 36
ENDBRANCH 20 33
ENDBRANCH 19 23
ENDBRANCH 1 19
TORSDOF 19
ENDMDL
MODEL 47
REMARK VINA RESULT:      -4.8      6.384      8.483
ROOT
ATOM      1  C1  NAG B   1       6.160  23.811   4.6790  0.00  0.00     0.000 C
ATOM      2  C2  NAG B   1       5.934  24.721   3.4750  0.00  0.00     0.000 C
ATOM      3  C3  NAG B   1       4.505  25.220   3.4060  0.00  0.00     0.000 C
ATOM      4  C4  NAG B   1       3.637  23.966   3.3580  0.00  0.00     0.000 C
ATOM      5  C5  NAG B   1       3.823  23.176   4.6600  0.00  0.00     0.000 C
ATOM      6  O5  NAG B   1       5.195  22.757   4.8230  0.00  0.00     0.000 O
ATOM      7   O  NAG B   1       4.273  26.051   2.2460  0.00  0.00     0.000 O
ATOM      9  HD  NAG B   1       5.089  26.249   2.4570  0.00  0.00     0.000 HD
ATOM      9   O  NAG B   1       2.273  24.322   3.2040  0.00  0.00     0.000 O
ATOM     11  HD  NAG B   1       3.089  24.520   3.4150  0.00  0.00     0.000 HD
ATOM     11   C  NAG B   1       2.858  21.985   4.6920  0.00  0.00     0.000 C
ATOM     12   O  NAG B   1       3.389  20.909   5.4630  0.00  0.00     0.000 O
ATOM     14  HD  NAG B   1       4.205  21.107   5.6750  0.00  0.00     0.000 HD
ENDROOT
BRANCH 2 16
ATOM     14   N  NAG B   1       6.960  24.991   2.4530  0.00  0.00     0.000 N
ATOM     16  HD  NAG B   1       7.148  25.510   1.7850  0.00  0.00     0.000 HD
ATOM     16   C  NAG B   1       7.860  25.985   2.5600  0.00  0.00     0.000 C
ATOM     17   C  NAG B   1       7.829  26.901   3.7540  0.00  0.00     0.000 C
ATOM     18   O  NAG B   1       8.734  26.149   1.7090  0.00  0.00     0.000 OA
ENDBRANCH 2 16
BRANCH 1 19
ATOM     19  O4  BDP B   2       7.393  23.173   4.3750  0.00  0.00     0.000 O
BRANCH 19 23
ATOM     20  C1  BDP B   2      10.354  21.957   6.9640  0.00  0.00     0.000 C
ATOM     21  C2  BDP B   2       9.043  22.383   7.5920  0.00  0.00     0.000 C
ATOM     22  C3  BDP B   2       7.926  22.399   6.5730  0.00  0.00     0.000 C
ATOM     23  C4  BDP B   2       8.363  23.260   5.3920  0.00  0.00     0.000 C
ATOM     24  C5  BDP B   2       9.674  22.734   4.8410  0.00  0.00     0.000 C
ATOM     25  O5  BDP B   2      10.665  22.782   5.8500  0.00  0.00     0.000 O
ATOM     26   O  BDP B   2       8.706  21.517   8.6540  0.00  0.00     0.000 O
ATOM     28  HD  BDP B   2       9.524  21.274   8.5080  0.00  0.00     0.000 HD
ATOM     28   O  BDP B   2       6.729  22.897   7.1910  0.00  0.00     0.000 O
ATOM     30  HD  BDP B   2       7.548  22.655   7.0450  0.00  0.00     0.000 HD
BRANCH 24 30
ATOM     30   C  BDP B   2      10.164  23.537   3.6900  0.00  0.00     0.000 C
ATOM     31   O  BDP B   2      10.712  24.634   3.9480  0.00  0.00     0.000 OA
ATOM     32   O  BDP B   2       9.995  23.081   2.5240  0.00  0.00     0.000 OA
ENDBRANCH 24 30
BRANCH 20 33
ATOM     33  O3  NAG B   3      11.304  22.173   7.9780  0.00  0.00     0.000 O
BRANCH 33 36
ATOM     34  C1  NAG B   3      13.979  19.542   8.2560  0.00  0.00     0.000 C
ATOM     35  C2  NAG B   3      12.600  20.164   8.3650  0.00  0.00     0.000 C
ATOM     36  C3  NAG B   3      12.550  21.538   7.6800  0.00  0.00     0.000 C
ATOM     37  C4  NAG B   3      13.687  22.409   8.2090  0.00  0.00     0.000 C
ATOM     38  C5  NAG B   3      15.012  21.654   8.1310  0.00  0.00     0.000 C
ATOM     39  O5  NAG B   3      14.916  20.433   8.8450  0.00  0.00     0.000 O
ATOM     40   O  NAG B   3      13.780  23.617   7.4400  0.00  0.00     0.000 O
ATOM     42  HD  NAG B   3      14.600  23.353   7.3530  0.00  0.00     0.000 HD
ATOM     42   C  NAG B   3      16.185  22.400   8.7600  0.00  0.00     0.000 C
ATOM     43   O  NAG B   3      15.973  22.523  10.1720  0.00  0.00     0.000 O
ATOM     45  HD  NAG B   3      16.793  22.259  10.0850  0.00  0.00     0.000 HD
BRANCH 35 47
ATOM     45   N  NAG B   3      11.576  19.301   7.7890  0.00  0.00     0.000 N
ATOM     47  HD  NAG B   3      12.378  19.061   7.5680  0.00  0.00     0.000 HD
ATOM     47   C  NAG B   3      10.482  18.955   8.4380  0.00  0.00     0.000 C
ATOM     48   C  NAG B   3       9.541  18.044   7.7070  0.00  0.00     0.000 C
ATOM     49   O  NAG B   3      10.257  19.335   9.5850  0.00  0.00     0.000 OA
ENDBRANCH 35 47
BRANCH 34 50
ATOM     50  O4  BDP B   4      13.874  18.361   9.0230  0.00  0.00     0.000 O
BRANCH 50 54
ATOM     51  C1  BDP B   4      15.263  14.562   9.4630  0.00  0.00     0.000 C
ATOM     52  C2  BDP B   4      16.335  15.642   9.5590  0.00  0.00     0.000 C
ATOM     53  C3  BDP B   4      15.665  16.967   9.7570  0.00  0.00     0.000 C
ATOM     54  C4  BDP B   4      14.631  17.208   8.6190  0.00  0.00     0.000 C
ATOM     55  C5  BDP B   4      13.701  16.019   8.4200  0.00  0.00     0.000 C
ATOM     56  O5  BDP B   4      14.449  14.810   8.3310  0.00  0.00     0.000 O
ATOM     57   O  BDP B   4      17.194  15.385  10.6490  0.00  0.00     0.000 O
ATOM     59  HD  BDP B   4      17.913  15.063  10.2900  0.00  0.00     0.000 HD
ATOM     59   O  BDP B   4      16.690  17.976   9.6480  0.00  0.00     0.000 O
ATOM     61  HD  BDP B   4      17.409  17.654   9.2880  0.00  0.00     0.000 HD
BRANCH 55 61
ATOM     61   C  BDP B   4      12.909  16.212   7.1390  0.00  0.00     0.000 C
ATOM     62   O  BDP B   4      11.832  15.573   7.0090  0.00  0.00     0.000 OA
ATOM     63   O  BDP B   4      13.368  17.007   6.2630  0.00  0.00     0.000 OA
ENDBRANCH 55 61
BRANCH 51 64
ATOM     64  O3  NAG B   5      15.941  13.297   9.3390  0.00  0.00     0.000 O
BRANCH 64 67
ATOM     65  C1  NAG B   5      14.376  10.249  10.7000  0.00  0.00     0.000 C
ATOM     66  C2  NAG B   5      15.125  11.571  10.6920  0.00  0.00     0.000 C
ATOM     67  C3  NAG B   5      15.047  12.202   9.3080  0.00  0.00     0.000 C
ATOM     68  C4  NAG B   5      15.491  11.210   8.2240  0.00  0.00     0.000 C
ATOM     69  C5  NAG B   5      14.755   9.888   8.3710  0.00  0.00     0.000 C
ATOM     70  O5  NAG B   5      14.900   9.394   9.7100  0.00  0.00     0.000 O
ATOM     71   O  NAG B   5      15.256  11.789   6.9580  0.00  0.00     0.000 O
ATOM     73  HD  NAG B   5      16.034  11.446   6.7920  0.00  0.00     0.000 HD
ATOM     73   C  NAG B   5      15.227   8.790   7.4070  0.00  0.00     0.000 C
ATOM     74   O  NAG B   5      16.601   8.453   7.6940  0.00  0.00     0.000 O
ATOM     76  HD  NAG B   5      17.378   8.111   7.5270  0.00  0.00     0.000 HD
BRANCH 66 78
ATOM     76   N  NAG B   5      14.520  12.225  11.8680  0.00  0.00     0.000 N
ATOM     78  HD  NAG B   5      15.315  12.091  11.5530  0.00  0.00     0.000 HD
ATOM     78   C  NAG B   5      15.154  13.027  12.7380  0.00  0.00     0.000 C
ATOM     79   C  NAG B   5      14.260  13.559  13.8250  0.00  0.00     0.000 C
ATOM     80   O  NAG B   5      16.403  13.306  12.6550  0.00  0.00     0.000 OA
ENDBRANCH 66 78
BRANCH 65 81
ATOM     81  O4  BDP B   6      14.485   9.628  11.9880  0.00  0.00     0.000 O
BRANCH 81 85
ATOM     82  C1  BDP B   6      12.481   6.670  14.3530  0.00  0.00     0.000 C
ATOM     83  C2  BDP B   6      13.549   6.187  13.3760  0.00  0.00     0.000 C
ATOM     84  C3  BDP B   6      14.469   7.313  12.8960  0.00  0.00     0.000 C
ATOM     85  C4  BDP B   6      13.678   8.510  12.3650  0.00  0.00     0.000 C
ATOM     86  C5  BDP B   6      12.611   8.882  13.4210  0.00  0.00     0.000 C
ATOM     87  O5  BDP B   6      11.759   7.741  13.7610  0.00  0.00     0.000 O
ATOM     88   O  BDP B   6      14.312   5.221  14.0940  0.00  0.00     0.000 O
ATOM     90  HD  BDP B   6      15.133   4.976  14.2150  0.00  0.00     0.000 HD
ATOM     90   O  BDP B   6      15.365   6.809  11.9020  0.00  0.00     0.000 O
ATOM     92  HD  BDP B   6      16.186   6.564  12.0230  0.00  0.00     0.000 HD
BRANCH 86 92
ATOM     92   C  BDP B   6      11.645   9.899  12.8630  0.00  0.00     0.000 C
ATOM     93   O  BDP B   6      11.793  11.125  13.1510  0.00  0.00     0.000 OA
ATOM     94   O  BDP B   6      10.723   9.474  12.0990  0.00  0.00     0.000 OA
ENDBRANCH 86 92
BRANCH 82 95
ATOM     95  O3  NAG B   7      11.556   5.589  14.5860  0.00  0.00     0.000 O
BRANCH 95 98
ATOM     96  C1  NAG B   7      10.047   3.767  17.3680  0.00  0.00     0.000 C
ATOM     97  C2  NAG B   7      10.593   3.955  15.9590  0.00  0.00     0.000 C
ATOM     98  C3  NAG B   7      10.987   5.429  15.8840  0.00  0.00     0.000 C
ATOM     99  C4  NAG B   7       9.763   6.307  16.1320  0.00  0.00     0.000 C
ATOM    100  C5  NAG B   7       9.079   5.932  17.4470  0.00  0.00     0.000 C
ATOM    101  O5  NAG B   7       8.841   4.533  17.4590  0.00  0.00     0.000 O
BRANCH 97 104
ATOM    102   N  NAG B   7      11.447   3.180  15.0480  0.00  0.00     0.000 N
ATOM    104  HD  NAG B   7      11.724   2.595  14.4730  0.00  0.00     0.000 HD
ATOM    104   O  NAG B   7      13.150   1.810  14.4550  0.00  0.00     0.000 OA
ATOM    105   C  NAG B   7      12.558   2.472  15.3290  0.00  0.00     0.000 C
ATOM    106   C  NAG B   7      13.082   2.471  16.7250  0.00  0.00     0.000 C
ENDBRANCH 97 104
ATOM    107   O  NAG B   7       7.384   6.558  18.9430  0.00  0.00     0.000 O
ATOM    109  HD  NAG B   7       8.189   6.247  18.8750  0.00  0.00     0.000 HD
ATOM    109   O  NAG B   7       7.384   6.558  18.9430  0.00  0.00     0.000 O
ATOM    111  HD  NAG B   7       8.189   6.247  18.8750  0.00  0.00     0.000 HD
ENDBRANCH 95 98
ENDBRANCH 82 95
ENDBRANCH 81 85
ENDBRANCH 65 81
ENDBRANCH 64 67
ENDBRANCH 51 64
ENDBRANCH 50 54
ENDBRANCH 34 50
ENDBRANCH 33 36
ENDBRANCH 20 33
ENDBRANCH 19 23
ENDBRANCH 1 19
TORSDOF 19
ENDMDL
MODEL 48
REMARK VINA RESULT:      -4.8     13.017     21.537
ROOT
ATOM      1  C1  NAG B   1      15.051   8.942   9.6150  0.00  0.00     0.000 C
ATOM      2  C2  NAG B   1      15.785   8.905   8.2780  0.00  0.00     0.000 C
ATOM      3  C3  NAG B   1      16.047  10.297   7.7390  0.00  0.00     0.000 C
ATOM      4  C4  NAG B   1      14.677  10.958   7.6330  0.00  0.00     0.000 C
ATOM      5  C5  NAG B   1      14.065  11.076   9.0350  0.00  0.00     0.000 C
ATOM      6  O5  NAG B   1      13.882   9.776   9.6340  0.00  0.00     0.000 O
ATOM      7   O  NAG B   1      16.707  10.269   6.4530  0.00  0.00     0.000 O
ATOM      9  HD  NAG B   1      17.050   9.581   6.8540  0.00  0.00     0.000 HD
ATOM      9   O  NAG B   1      14.800  12.246   7.0520  0.00  0.00     0.000 O
ATOM     11  HD  NAG B   1      15.143  11.559   7.4530  0.00  0.00     0.000 HD
ATOM     11   C  NAG B   1      12.749  11.861   8.9670  0.00  0.00     0.000 C
ATOM     12   O  NAG B   1      11.854  11.461  10.0030  0.00  0.00     0.000 O
ATOM     14  HD  NAG B   1      12.196  10.774  10.4040  0.00  0.00     0.000 HD
ENDROOT
BRANCH 2 16
ATOM     14   N  NAG B   1      16.064   7.613   7.6260  0.00  0.00     0.000 N
ATOM     16  HD  NAG B   1      16.470   7.256   6.9490  0.00  0.00     0.000 HD
ATOM     16   C  NAG B   1      17.228   6.956   7.7660  0.00  0.00     0.000 C
ATOM     17   C  NAG B   1      18.332   7.551   8.6000  0.00  0.00     0.000 C
ATOM     18   O  NAG B   1      17.406   5.855   7.2460  0.00  0.00     0.000 OA
ENDBRANCH 2 16
BRANCH 1 19
ATOM     19  O4  BDP B   2      14.583   7.608   9.7650  0.00  0.00     0.000 O
BRANCH 19 23
ATOM     20  C1  BDP B   2      13.300   8.043  13.6520  0.00  0.00     0.000 C
ATOM     21  C2  BDP B   2      14.757   7.673  13.4610  0.00  0.00     0.000 C
ATOM     22  C3  BDP B   2      15.212   7.950  12.0460  0.00  0.00     0.000 C
ATOM     23  C4  BDP B   2      14.256   7.248  11.0860  0.00  0.00     0.000 C
ATOM     24  C5  BDP B   2      12.837   7.704  11.3630  0.00  0.00     0.000 C
ATOM     25  O5  BDP B   2      12.487   7.380  12.6950  0.00  0.00     0.000 O
ATOM     26   O  BDP B   2      15.566   8.388  14.3700  0.00  0.00     0.000 O
ATOM     28  HD  BDP B   2      14.781   8.556  14.6930  0.00  0.00     0.000 HD
ATOM     28   O  BDP B   2      16.565   7.497  11.8870  0.00  0.00     0.000 O
ATOM     30  HD  BDP B   2      15.780   7.666  12.2110  0.00  0.00     0.000 HD
BRANCH 24 30
ATOM     30   C  BDP B   2      11.850   7.047  10.4660  0.00  0.00     0.000 C
ATOM     31   O  BDP B   2      10.703   7.547  10.4100  0.00  0.00     0.000 OA
ATOM     32   O  BDP B   2      12.214   6.024   9.8190  0.00  0.00     0.000 OA
ENDBRANCH 24 30
BRANCH 20 33
ATOM     33  O3  NAG B   3      12.991   7.559  14.9360  0.00  0.00     0.000 O
BRANCH 33 36
ATOM     34  C1  NAG B   3       9.868   8.823  16.6100  0.00  0.00     0.000 C
ATOM     35  C2  NAG B   3      11.305   8.827  16.1240  0.00  0.00     0.000 C
ATOM     36  C3  NAG B   3      11.589   7.629  15.2050  0.00  0.00     0.000 C
ATOM     37  C4  NAG B   3      11.154   6.343  15.9020  0.00  0.00     0.000 C
ATOM     38  C5  NAG B   3       9.726   6.480  16.4240  0.00  0.00     0.000 C
ATOM     39  O5  NAG B   3       9.633   7.598  17.2900  0.00  0.00     0.000 O
ATOM     40   O  NAG B   3      11.224   5.239  14.9860  0.00  0.00     0.000 O
ATOM     42  HD  NAG B   3      10.400   5.142  15.2330  0.00  0.00     0.000 HD
ATOM     42   C  NAG B   3       9.253   5.287  17.2500  0.00  0.00     0.000 C
ATOM     43   O  NAG B   3      10.025   5.203  18.4550  0.00  0.00     0.000 O
ATOM     45  HD  NAG B   3       9.200   5.105  18.7030  0.00  0.00     0.000 HD
BRANCH 35 47
ATOM     45   N  NAG B   3      12.293   9.826  16.5150  0.00  0.00     0.000 N
ATOM     47  HD  NAG B   3      12.482   9.035  16.8130  0.00  0.00     0.000 HD
ATOM     47   C  NAG B   3      12.677  10.803  15.7190  0.00  0.00     0.000 C
ATOM     48   C  NAG B   3      13.718  11.733  16.2700  0.00  0.00     0.000 C
ATOM     49   O  NAG B   3      12.230  10.931  14.5810  0.00  0.00     0.000 OA
ENDBRANCH 35 47
BRANCH 34 50
ATOM     50  O4  BDP B   4       9.818   9.906  17.5140  0.00  0.00     0.000 O
BRANCH 50 54
ATOM     51  C1  BDP B   4       7.393  12.803  19.0240  0.00  0.00     0.000 C
ATOM     52  C2  BDP B   4       6.762  11.416  18.9700  0.00  0.00     0.000 C
ATOM     53  C3  BDP B   4       7.847  10.404  18.7610  0.00  0.00     0.000 C
ATOM     54  C4  BDP B   4       8.669  10.769  17.4920  0.00  0.00     0.000 C
ATOM     55  C5  BDP B   4       9.114  12.226  17.4890  0.00  0.00     0.000 C
ATOM     56  O5  BDP B   4       8.014  13.083  17.7830  0.00  0.00     0.000 O
ATOM     57   O  BDP B   4       6.089  11.137  20.1790  0.00  0.00     0.000 O
ATOM     59  HD  BDP B   4       5.250  11.245  19.9910  0.00  0.00     0.000 HD
ATOM     59   O  BDP B   4       7.199   9.138  18.5220  0.00  0.00     0.000 O
ATOM     61  HD  BDP B   4       6.361   9.246  18.3350  0.00  0.00     0.000 HD
BRANCH 55 61
ATOM     61   C  BDP B   4       9.669  12.577  16.1200  0.00  0.00     0.000 C
ATOM     62   O  BDP B   4      10.563  13.460  16.0550  0.00  0.00     0.000 OA
ATOM     63   O  BDP B   4       9.207  11.964  15.1100  0.00  0.00     0.000 OA
ENDBRANCH 55 61
BRANCH 51 64
ATOM     64  O3  NAG B   5       6.334  13.743  19.2900  0.00  0.00     0.000 O
BRANCH 64 67
ATOM     65  C1  NAG B   5       6.651  16.621  21.5730  0.00  0.00     0.000 C
ATOM     66  C2  NAG B   5       6.380  15.195  21.1250  0.00  0.00     0.000 C
ATOM     67  C3  NAG B   5       6.820  15.013  19.6780  0.00  0.00     0.000 C
ATOM     68  C4  NAG B   5       6.206  16.093  18.7760  0.00  0.00     0.000 C
ATOM     69  C5  NAG B   5       6.449  17.478  19.3530  0.00  0.00     0.000 C
ATOM     70  O5  NAG B   5       5.996  17.527  20.7140  0.00  0.00     0.000 O
ATOM     71   O  NAG B   5       6.762  15.972  17.4840  0.00  0.00     0.000 O
ATOM     73  HD  NAG B   5       5.940  16.110  17.2490  0.00  0.00     0.000 HD
ATOM     73   C  NAG B   5       5.760  18.614  18.5830  0.00  0.00     0.000 C
ATOM     74   O  NAG B   5       4.328  18.454  18.6640  0.00  0.00     0.000 O
ATOM     76  HD  NAG B   5       3.506  18.592  18.4280  0.00  0.00     0.000 HD
BRANCH 66 78
ATOM     76   N  NAG B   5       7.088  14.366  22.1200  0.00  0.00     0.000 N
ATOM     78  HD  NAG B   5       6.278  14.457  21.8270  0.00  0.00     0.000 HD
ATOM     78   C  NAG B   5       6.589  13.292  22.7510  0.00  0.00     0.000 C
ATOM     79   C  NAG B   5       7.564  12.645  23.6970  0.00  0.00     0.000 C
ATOM     80   O  NAG B   5       5.394  12.863  22.5710  0.00  0.00     0.000 OA
ENDBRANCH 66 78
BRANCH 65 81
ATOM     81  O4  BDP B   6       6.196  16.810  22.9190  0.00  0.00     0.000 O
BRANCH 81 85
ATOM     82  C1  BDP B   6       6.983  19.239  26.3600  0.00  0.00     0.000 C
ATOM     83  C2  BDP B   6       6.551  19.949  25.0800  0.00  0.00     0.000 C
ATOM     84  C3  BDP B   6       5.912  19.001  24.0610  0.00  0.00     0.000 C
ATOM     85  C4  BDP B   6       6.786  17.775  23.7930  0.00  0.00     0.000 C
ATOM     86  C5  BDP B   6       7.186  17.167  25.1590  0.00  0.00     0.000 C
ATOM     87  O5  BDP B   6       7.835  18.153  26.0250  0.00  0.00     0.000 O
ATOM     88   O  BDP B   6       5.596  20.924  25.4890  0.00  0.00     0.000 O
ATOM     90  HD  BDP B   6       4.834  21.256  25.2450  0.00  0.00     0.000 HD
ATOM     90   O  BDP B   6       5.639  19.711  22.8500  0.00  0.00     0.000 O
ATOM     92  HD  BDP B   6       4.878  20.043  22.6060  0.00  0.00     0.000 HD
BRANCH 86 92
ATOM     92   C  BDP B   6       8.239  16.101  24.9760  0.00  0.00     0.000 C
ATOM     93   O  BDP B   6       9.015  16.155  23.9760  0.00  0.00     0.000 OA
ATOM     94   O  BDP B   6       8.314  15.194  25.8630  0.00  0.00     0.000 OA
ENDBRANCH 86 92
BRANCH 82 95
ATOM     95  O3  NAG B   7       7.743  20.168  27.1580  0.00  0.00     0.000 O
BRANCH 95 98
ATOM     96  C1  NAG B   7       7.633  21.428  30.5850  0.00  0.00     0.000 C
ATOM     97  C2  NAG B   7       7.768  21.519  29.0700  0.00  0.00     0.000 C
ATOM     98  C3  NAG B   7       7.680  20.075  28.5810  0.00  0.00     0.000 C
ATOM     99  C4  NAG B   7       8.807  19.249  29.1940  0.00  0.00     0.000 C
ATOM    100  C5  NAG B   7       8.806  19.370  30.7190  0.00  0.00     0.000 C
ATOM    101  O5  NAG B   7       8.793  20.745  31.0710  0.00  0.00     0.000 O
BRANCH 97 104
ATOM    102   N  NAG B   7       6.700  22.200  28.3250  0.00  0.00     0.000 N
ATOM    104  HD  NAG B   7       6.067  22.369  27.7600  0.00  0.00     0.000 HD
ATOM    104   O  NAG B   7       5.779  23.766  26.9730  0.00  0.00     0.000 OA
ATOM    105   C  NAG B   7       6.763  23.336  27.6070  0.00  0.00     0.000 C
ATOM    106   C  NAG B   7       8.047  24.091  27.5560  0.00  0.00     0.000 C
ENDBRANCH 97 104
ATOM    107   O  NAG B   7       9.789  18.545  32.6830  0.00  0.00     0.000 O
ATOM    109  HD  NAG B   7       9.049  18.808  32.3180  0.00  0.00     0.000 HD
ATOM    109   O  NAG B   7       9.789  18.545  32.6830  0.00  0.00     0.000 O
ATOM    111  HD  NAG B   7       9.049  18.808  32.3180  0.00  0.00     0.000 HD
ENDBRANCH 95 98
ENDBRANCH 82 95
ENDBRANCH 81 85
ENDBRANCH 65 81
ENDBRANCH 64 67
ENDBRANCH 51 64
ENDBRANCH 50 54
ENDBRANCH 34 50
ENDBRANCH 33 36
ENDBRANCH 20 33
ENDBRANCH 19 23
ENDBRANCH 1 19
TORSDOF 19
ENDMDL
MODEL 49
REMARK VINA RESULT:      -4.8      9.684     14.111
ROOT
ATOM      1  C1  NAG B   1      10.260  10.705  22.2600  0.00  0.00     0.000 C
ATOM      2  C2  NAG B   1      10.274  11.315  23.6590  0.00  0.00     0.000 C
ATOM      3  C3  NAG B   1      11.628  11.174  24.3230  0.00  0.00     0.000 C
ATOM      4  C4  NAG B   1      11.921   9.677  24.3380  0.00  0.00     0.000 C
ATOM      5  C5  NAG B   1      12.022   9.169  22.8940  0.00  0.00     0.000 C
ATOM      6  O5  NAG B   1      10.780   9.369  22.1840  0.00  0.00     0.000 O
ATOM      7   O  NAG B   1      11.638  11.715  25.6630  0.00  0.00     0.000 O
ATOM      9  HD  NAG B   1      11.097  12.250  25.2500  0.00  0.00     0.000 HD
ATOM      9   O  NAG B   1      13.137   9.425  25.0210  0.00  0.00     0.000 O
ATOM     11  HD  NAG B   1      12.597   9.961  24.6080  0.00  0.00     0.000 HD
ATOM     11   C  NAG B   1      12.451   7.697  22.8850  0.00  0.00     0.000 C
ATOM     12   O  NAG B   1      11.947   7.018  21.7370  0.00  0.00     0.000 O
ATOM     14  HD  NAG B   1      11.406   7.553  21.3230  0.00  0.00     0.000 HD
ENDROOT
BRANCH 2 16
ATOM     14   N  NAG B   1       8.951  11.845  24.0370  0.00  0.00     0.000 N
ATOM     16  HD  NAG B   1       8.499  12.156  24.7070  0.00  0.00     0.000 HD
ATOM     16   C  NAG B   1       8.696  13.158  24.1690  0.00  0.00     0.000 C
ATOM     17   C  NAG B   1       9.797  14.163  23.9550  0.00  0.00     0.000 C
ATOM     18   O  NAG B   1       7.566  13.565  24.4380  0.00  0.00     0.000 OA
ENDBRANCH 2 16
BRANCH 1 19
ATOM     19  O4  BDP B   2       8.873  10.602  21.9650  0.00  0.00     0.000 O
BRANCH 19 23
ATOM     20  C1  BDP B   2       9.418  10.849  17.8930  0.00  0.00     0.000 C
ATOM     21  C2  BDP B   2       9.020  12.129  18.5970  0.00  0.00     0.000 C
ATOM     22  C3  BDP B   2       9.257  12.031  20.0870  0.00  0.00     0.000 C
ATOM     23  C4  BDP B   2       8.548  10.784  20.6080  0.00  0.00     0.000 C
ATOM     24  C5  BDP B   2       9.034   9.570  19.8390  0.00  0.00     0.000 C
ATOM     25  O5  BDP B   2       8.746   9.735  18.4640  0.00  0.00     0.000 O
ATOM     26   O  BDP B   2       9.742  13.222  18.0720  0.00  0.00     0.000 O
ATOM     28  HD  BDP B   2       9.931  12.613  17.4860  0.00  0.00     0.000 HD
ATOM     28   O  BDP B   2       8.779  13.228  20.7220  0.00  0.00     0.000 O
ATOM     30  HD  BDP B   2       8.967  12.618  20.1360  0.00  0.00     0.000 HD
BRANCH 24 30
ATOM     30   C  BDP B   2       8.373   8.318  20.2900  0.00  0.00     0.000 C
ATOM     31   O  BDP B   2       9.105   7.320  20.4860  0.00  0.00     0.000 OA
ATOM     32   O  BDP B   2       7.118   8.322  20.4440  0.00  0.00     0.000 OA
ENDBRANCH 24 30
BRANCH 20 33
ATOM     33  O3  NAG B   3       8.969  11.033  16.5730  0.00  0.00     0.000 O
BRANCH 33 36
ATOM     34  C1  NAG B   3      10.706   9.370  13.6800  0.00  0.00     0.000 C
ATOM     35  C2  NAG B   3      10.421  10.424  14.7330  0.00  0.00     0.000 C
ATOM     36  C3  NAG B   3       9.351   9.945  15.7270  0.00  0.00     0.000 C
ATOM     37  C4  NAG B   3       8.124   9.463  14.9560  0.00  0.00     0.000 C
ATOM     38  C5  NAG B   3       8.537   8.475  13.8690  0.00  0.00     0.000 C
ATOM     39  O5  NAG B   3       9.490   9.073  13.0080  0.00  0.00     0.000 O
ATOM     40   O  NAG B   3       7.199   8.829  15.8530  0.00  0.00     0.000 O
ATOM     42  HD  NAG B   3       7.277   8.185  15.2800  0.00  0.00     0.000 HD
ATOM     42   C  NAG B   3       7.388   8.039  12.9630  0.00  0.00     0.000 C
ATOM     43   O  NAG B   3       6.921   9.164  12.2080  0.00  0.00     0.000 O
ATOM     45  HD  NAG B   3       6.999   8.519  11.6350  0.00  0.00     0.000 HD
BRANCH 35 47
ATOM     45   N  NAG B   3      10.998  11.758  14.8340  0.00  0.00     0.000 N
ATOM     47  HD  NAG B   3      10.135  11.772  14.7580  0.00  0.00     0.000 HD
ATOM     47   C  NAG B   3      12.020  12.040  15.6170  0.00  0.00     0.000 C
ATOM     48   C  NAG B   3      12.478  13.468  15.6180  0.00  0.00     0.000 C
ATOM     49   O  NAG B   3      12.552  11.188  16.3260  0.00  0.00     0.000 OA
ENDBRANCH 35 47
BRANCH 34 50
ATOM     50  O4  BDP B   4      11.609  10.010  12.8030  0.00  0.00     0.000 O
BRANCH 50 54
ATOM     51  C1  BDP B   4      13.701   9.629   9.3350  0.00  0.00     0.000 C
ATOM     52  C2  BDP B   4      12.198   9.803   9.1500  0.00  0.00     0.000 C
ATOM     53  C3  BDP B   4      11.611  10.299  10.4360  0.00  0.00     0.000 C
ATOM     54  C4  BDP B   4      11.993   9.334  11.5940  0.00  0.00     0.000 C
ATOM     55  C5  BDP B   4      13.484   9.024  11.6230  0.00  0.00     0.000 C
ATOM     56  O5  BDP B   4      13.939   8.647  10.3270  0.00  0.00     0.000 O
ATOM     57   O  BDP B   4      11.935  10.738   8.1250  0.00  0.00     0.000 O
ATOM     59  HD  BDP B   4      11.704  10.255   7.4440  0.00  0.00     0.000 HD
ATOM     59   O  BDP B   4      10.177  10.266  10.2840  0.00  0.00     0.000 O
ATOM     61  HD  BDP B   4       9.946   9.784   9.6030  0.00  0.00     0.000 HD
BRANCH 55 61
ATOM     61   C  BDP B   4      13.740   7.885  12.5940  0.00  0.00     0.000 C
ATOM     62   O  BDP B   4      13.086   6.820  12.4410  0.00  0.00     0.000 OA
ATOM     63   O  BDP B   4      14.601   8.058  13.5100  0.00  0.00     0.000 OA
ENDBRANCH 55 61
BRANCH 51 64
ATOM     64  O3  NAG B   5      14.242   9.214   8.0650  0.00  0.00     0.000 O
BRANCH 64 67
ATOM     65  C1  NAG B   5      17.512  10.400   6.8440  0.00  0.00     0.000 C
ATOM     66  C2  NAG B   5      16.020  10.412   7.1260  0.00  0.00     0.000 C
ATOM     67  C3  NAG B   5      15.655   9.248   8.0390  0.00  0.00     0.000 C
ATOM     68  C4  NAG B   5      16.188   7.922   7.4800  0.00  0.00     0.000 C
ATOM     69  C5  NAG B   5      17.666   8.036   7.1420  0.00  0.00     0.000 C
ATOM     70  O5  NAG B   5      17.885   9.163   6.2810  0.00  0.00     0.000 O
ATOM     71   O  NAG B   5      15.958   6.905   8.4320  0.00  0.00     0.000 O
ATOM     73  HD  NAG B   5      15.733   6.460   7.7240  0.00  0.00     0.000 HD
ATOM     73   C  NAG B   5      18.256   6.795   6.4570  0.00  0.00     0.000 C
ATOM     74   O  NAG B   5      17.623   6.603   5.1750  0.00  0.00     0.000 O
ATOM     76  HD  NAG B   5      17.398   6.158   4.4670  0.00  0.00     0.000 HD
BRANCH 66 78
ATOM     76   N  NAG B   5      15.834  11.804   7.5790  0.00  0.00     0.000 N
ATOM     78  HD  NAG B   5      15.460  11.262   7.0170  0.00  0.00     0.000 HD
ATOM     78   C  NAG B   5      14.778  12.588   7.3080  0.00  0.00     0.000 C
ATOM     79   C  NAG B   5      14.871  13.955   7.9290  0.00  0.00     0.000 C
ATOM     80   O  NAG B   5      13.791  12.211   6.5810  0.00  0.00     0.000 OA
ENDBRANCH 66 78
BRANCH 65 81
ATOM     81  O4  BDP B   6      17.853  11.466   5.9480  0.00  0.00     0.000 O
BRANCH 81 85
ATOM     82  C1  BDP B   6      21.260  13.797   4.7970  0.00  0.00     0.000 C
ATOM     83  C2  BDP B   6      21.070  12.442   4.1200  0.00  0.00     0.000 C
ATOM     84  C3  BDP B   6      19.652  11.888   4.2830  0.00  0.00     0.000 C
ATOM     85  C4  BDP B   6      19.204  11.887   5.7470  0.00  0.00     0.000 C
ATOM     86  C5  BDP B   6      19.477  13.294   6.3290  0.00  0.00     0.000 C
ATOM     87  O5  BDP B   6      20.875  13.693   6.1600  0.00  0.00     0.000 O
ATOM     88   O  BDP B   6      21.338  12.667   2.7380  0.00  0.00     0.000 O
ATOM     90  HD  BDP B   6      21.033  12.454   1.9560  0.00  0.00     0.000 HD
ATOM     90   O  BDP B   6      19.584  10.574   3.7250  0.00  0.00     0.000 O
ATOM     92  HD  BDP B   6      19.279  10.360   2.9430  0.00  0.00     0.000 HD
BRANCH 86 92
ATOM     92   C  BDP B   6      19.281  13.295   7.8260  0.00  0.00     0.000 C
ATOM     93   O  BDP B   6      20.169  12.783   8.5720  0.00  0.00     0.000 OA
ATOM     94   O  BDP B   6      18.226  13.839   8.2780  0.00  0.00     0.000 OA
ENDBRANCH 86 92
BRANCH 82 95
ATOM     95  O3  NAG B   7      22.661  14.132   4.7560  0.00  0.00     0.000 O
BRANCH 95 98
ATOM     96  C1  NAG B   7      24.652  17.013   3.7190  0.00  0.00     0.000 C
ATOM     97  C2  NAG B   7      24.279  15.540   3.8170  0.00  0.00     0.000 C
ATOM     98  C3  NAG B   7      23.046  15.506   4.7170  0.00  0.00     0.000 C
ATOM     99  C4  NAG B   7      23.386  16.088   6.0860  0.00  0.00     0.000 C
ATOM    100  C5  NAG B   7      23.994  17.485   5.9500  0.00  0.00     0.000 C
ATOM    101  O5  NAG B   7      25.069  17.430   5.0240  0.00  0.00     0.000 O
BRANCH 97 104
ATOM    102   N  NAG B   7      23.811  14.841   2.6130  0.00  0.00     0.000 N
ATOM    104  HD  NAG B   7      23.341  14.359   2.0670  0.00  0.00     0.000 HD
ATOM    104   O  NAG B   7      23.881  13.338   0.9190  0.00  0.00     0.000 OA
ATOM    105   C  NAG B   7      24.432  13.887   1.8940  0.00  0.00     0.000 C
ATOM    106   C  NAG B   7      25.809  13.468   2.2830  0.00  0.00     0.000 C
ENDBRANCH 97 104
ATOM    107   O  NAG B   7      24.710  19.362   7.1610  0.00  0.00     0.000 O
ATOM    109  HD  NAG B   7      24.304  19.094   6.4440  0.00  0.00     0.000 HD
ATOM    109   O  NAG B   7      24.710  19.362   7.1610  0.00  0.00     0.000 O
ATOM    111  HD  NAG B   7      24.304  19.094   6.4440  0.00  0.00     0.000 HD
ENDBRANCH 95 98
ENDBRANCH 82 95
ENDBRANCH 81 85
ENDBRANCH 65 81
ENDBRANCH 64 67
ENDBRANCH 51 64
ENDBRANCH 50 54
ENDBRANCH 34 50
ENDBRANCH 33 36
ENDBRANCH 20 33
ENDBRANCH 19 23
ENDBRANCH 1 19
TORSDOF 19
ENDMDL
MODEL 50
REMARK VINA RESULT:      -4.6     13.347     19.008
ROOT
ATOM      1  C1  NAG B   1      15.092  15.529   8.6020  0.00  0.00     0.000 C
ATOM      2  C2  NAG B   1      14.734  16.698   7.6890  0.00  0.00     0.000 C
ATOM      3  C3  NAG B   1      14.437  17.958   8.4760  0.00  0.00     0.000 C
ATOM      4  C4  NAG B   1      13.298  17.589   9.4220  0.00  0.00     0.000 C
ATOM      5  C5  NAG B   1      13.781  16.502  10.3910  0.00  0.00     0.000 C
ATOM      6  O5  NAG B   1      14.169  15.307   9.6800  0.00  0.00     0.000 O
ATOM      7   O  NAG B   1      14.059  19.060   7.6200  0.00  0.00     0.000 O
ATOM      9  HD  NAG B   1      14.643  18.640   7.1370  0.00  0.00     0.000 HD
ATOM      9   O  NAG B   1      12.880  18.731  10.1510  0.00  0.00     0.000 O
ATOM     11  HD  NAG B   1      13.464  18.312   9.6690  0.00  0.00     0.000 HD
ATOM     11   C  NAG B   1      12.697  16.215  11.4370  0.00  0.00     0.000 C
ATOM     12   O  NAG B   1      12.773  14.869  11.9050  0.00  0.00     0.000 O
ATOM     14  HD  NAG B   1      13.358  14.450  11.4230  0.00  0.00     0.000 HD
ENDROOT
BRANCH 2 16
ATOM     14   N  NAG B   1      15.831  16.669   6.7050  0.00  0.00     0.000 N
ATOM     16  HD  NAG B   1      16.254  16.146   6.1600  0.00  0.00     0.000 HD
ATOM     16   C  NAG B   1      15.629  16.720   5.3770  0.00  0.00     0.000 C
ATOM     17   C  NAG B   1      14.226  16.783   4.8330  0.00  0.00     0.000 C
ATOM     18   O  NAG B   1      16.573  16.744   4.5880  0.00  0.00     0.000 OA
ENDBRANCH 2 16
BRANCH 1 19
ATOM     19  O4  BDP B   2      14.971  14.401   7.7460  0.00  0.00     0.000 O
BRANCH 19 23
ATOM     20  C1  BDP B   2      14.219  11.722  10.7790  0.00  0.00     0.000 C
ATOM     21  C2  BDP B   2      15.670  11.900  10.3830  0.00  0.00     0.000 C
ATOM     22  C3  BDP B   2      15.869  13.172   9.5890  0.00  0.00     0.000 C
ATOM     23  C4  BDP B   2      14.896  13.164   8.4140  0.00  0.00     0.000 C
ATOM     24  C5  BDP B   2      13.481  12.992   8.9310  0.00  0.00     0.000 C
ATOM     25  O5  BDP B   2      13.379  11.768   9.6340  0.00  0.00     0.000 O
ATOM     26   O  BDP B   2      16.491  11.923  11.5310  0.00  0.00     0.000 O
ATOM     28  HD  BDP B   2      15.745  11.651  11.8760  0.00  0.00     0.000 HD
ATOM     28   O  BDP B   2      17.236  13.251   9.1570  0.00  0.00     0.000 O
ATOM     30  HD  BDP B   2      16.490  12.979   9.5030  0.00  0.00     0.000 HD
BRANCH 24 30
ATOM     30   C  BDP B   2      12.480  12.965   7.8330  0.00  0.00     0.000 C
ATOM     31   O  BDP B   2      12.068  11.842   7.4590  0.00  0.00     0.000 OA
ATOM     32   O  BDP B   2      12.107  14.064   7.3320  0.00  0.00     0.000 OA
ENDBRANCH 24 30
BRANCH 20 33
ATOM     33  O3  NAG B   3      14.174  10.429  11.3330  0.00  0.00     0.000 O
BRANCH 33 36
ATOM     34  C1  NAG B   3      11.211   9.257  13.3320  0.00  0.00     0.000 C
ATOM     35  C2  NAG B   3      12.548   9.917  13.0520  0.00  0.00     0.000 C
ATOM     36  C3  NAG B   3      12.830   9.990  11.5430  0.00  0.00     0.000 C
ATOM     37  C4  NAG B   3      12.661   8.603  10.9290  0.00  0.00     0.000 C
ATOM     38  C5  NAG B   3      11.322   8.000  11.3440  0.00  0.00     0.000 C
ATOM     39  O5  NAG B   3      11.228   7.957  12.7580  0.00  0.00     0.000 O
ATOM     40   O  NAG B   3      12.723   8.689   9.4970  0.00  0.00     0.000 O
ATOM     42  HD  NAG B   3      11.963   8.279   9.5630  0.00  0.00     0.000 HD
ATOM     42   C  NAG B   3      11.125   6.558  10.8820  0.00  0.00     0.000 C
ATOM     43   O  NAG B   3      12.073   5.710  11.5400  0.00  0.00     0.000 O
ATOM     45  HD  NAG B   3      11.313   5.299  11.6060  0.00  0.00     0.000 HD
BRANCH 35 47
ATOM     45   N  NAG B   3      13.494  10.391  14.0540  0.00  0.00     0.000 N
ATOM     47  HD  NAG B   3      13.820   9.759  13.5600  0.00  0.00     0.000 HD
ATOM     47   C  NAG B   3      13.598  11.659  14.3980  0.00  0.00     0.000 C
ATOM     48   C  NAG B   3      14.637  11.980  15.4310  0.00  0.00     0.000 C
ATOM     49   O  NAG B   3      12.903  12.533  13.8840  0.00  0.00     0.000 OA
ENDBRANCH 35 47
BRANCH 34 50
ATOM     50  O4  BDP B   4      11.169   9.172  14.7410  0.00  0.00     0.000 O
BRANCH 50 54
ATOM     51  C1  BDP B   4       8.723   9.121  17.9920  0.00  0.00     0.000 C
ATOM     52  C2  BDP B   4       8.633   7.878  17.1140  0.00  0.00     0.000 C
ATOM     53  C3  BDP B   4       9.817   7.852  16.1970  0.00  0.00     0.000 C
ATOM     54  C4  BDP B   4       9.888   9.183  15.3940  0.00  0.00     0.000 C
ATOM     55  C5  BDP B   4       9.774  10.408  16.2920  0.00  0.00     0.000 C
ATOM     56  O5  BDP B   4       8.664  10.276  17.1750  0.00  0.00     0.000 O
ATOM     57   O  BDP B   4       8.635   6.713  17.9120  0.00  0.00     0.000 O
ATOM     59  HD  BDP B   4       7.809   6.454  17.9210  0.00  0.00     0.000 HD
ATOM     59   O  BDP B   4       9.598   6.778  15.2590  0.00  0.00     0.000 O
ATOM     61  HD  BDP B   4       8.772   6.519  15.2680  0.00  0.00     0.000 HD
BRANCH 55 61
ATOM     61   C  BDP B   4       9.583  11.643  15.4310  0.00  0.00     0.000 C
ATOM     62   O  BDP B   4       8.841  11.549  14.4180  0.00  0.00     0.000 OA
ATOM     63   O  BDP B   4      10.177  12.712  15.7730  0.00  0.00     0.000 OA
ENDBRANCH 55 61
BRANCH 51 64
ATOM     64  O3  NAG B   5       7.609   9.082  18.9040  0.00  0.00     0.000 O
BRANCH 64 67
ATOM     65  C1  NAG B   5       7.727  10.649  22.2390  0.00  0.00     0.000 C
ATOM     66  C2  NAG B   5       7.935   9.597  21.1640  0.00  0.00     0.000 C
ATOM     67  C3  NAG B   5       7.597  10.178  19.7970  0.00  0.00     0.000 C
ATOM     68  C4  NAG B   5       6.203  10.820  19.8000  0.00  0.00     0.000 C
ATOM     69  C5  NAG B   5       6.059  11.787  20.9640  0.00  0.00     0.000 C
ATOM     70  O5  NAG B   5       6.403  11.129  22.1920  0.00  0.00     0.000 O
ATOM     71   O  NAG B   5       6.003  11.473  18.5650  0.00  0.00     0.000 O
ATOM     73  HD  NAG B   5       5.218  11.116  18.6410  0.00  0.00     0.000 HD
ATOM     73   C  NAG B   5       4.653  12.382  21.1230  0.00  0.00     0.000 C
ATOM     74   O  NAG B   5       3.715  11.330  21.4310  0.00  0.00     0.000 O
ATOM     76  HD  NAG B   5       2.929  10.973  21.5070  0.00  0.00     0.000 HD
BRANCH 66 78
ATOM     76   N  NAG B   5       9.298   9.147  21.5080  0.00  0.00     0.000 N
ATOM     78  HD  NAG B   5       8.539   8.782  21.3050  0.00  0.00     0.000 HD
ATOM     78   C  NAG B   5       9.770   7.896  21.3870  0.00  0.00     0.000 C
ATOM     79   C  NAG B   5      11.209   7.756  21.8030  0.00  0.00     0.000 C
ATOM     80   O  NAG B   5       9.060   6.914  20.9680  0.00  0.00     0.000 OA
ENDBRANCH 66 78
BRANCH 65 81
ATOM     81  O4  BDP B   6       7.999  10.093  23.5320  0.00  0.00     0.000 O
BRANCH 81 85
ATOM     82  C1  BDP B   6       9.014  11.396  27.4860  0.00  0.00     0.000 C
ATOM     83  C2  BDP B   6       7.534  11.349  27.1170  0.00  0.00     0.000 C
ATOM     84  C3  BDP B   6       7.258  10.504  25.8710  0.00  0.00     0.000 C
ATOM     85  C4  BDP B   6       8.149  10.910  24.6950  0.00  0.00     0.000 C
ATOM     86  C5  BDP B   6       9.611  10.956  25.1990  0.00  0.00     0.000 C
ATOM     87  O5  BDP B   6       9.761  11.835  26.3600  0.00  0.00     0.000 O
ATOM     88   O  BDP B   6       6.880  10.767  28.2420  0.00  0.00     0.000 O
ATOM     90  HD  BDP B   6       6.259  10.194  28.4300  0.00  0.00     0.000 HD
ATOM     90   O  BDP B   6       5.875  10.601  25.5230  0.00  0.00     0.000 O
ATOM     92  HD  BDP B   6       5.253  10.027  25.7100  0.00  0.00     0.000 HD
BRANCH 86 92
ATOM     92   C  BDP B   6      10.511  11.577  24.1590  0.00  0.00     0.000 C
ATOM     93   O  BDP B   6      10.550  12.839  24.0410  0.00  0.00     0.000 OA
ATOM     94   O  BDP B   6      11.218  10.793  23.4520  0.00  0.00     0.000 OA
ENDBRANCH 86 92
BRANCH 82 95
ATOM     95  O3  NAG B   7       9.189  12.364  28.5380  0.00  0.00     0.000 O
BRANCH 95 98
ATOM     96  C1  NAG B   7      10.622  12.411  31.8980  0.00  0.00     0.000 C
ATOM     97  C2  NAG B   7       9.591  12.715  30.8190  0.00  0.00     0.000 C
ATOM     98  C3  NAG B   7      10.184  12.136  29.5360  0.00  0.00     0.000 C
ATOM     99  C4  NAG B   7      11.522  12.805  29.2340  0.00  0.00     0.000 C
ATOM    100  C5  NAG B   7      12.466  12.704  30.4330  0.00  0.00     0.000 C
ATOM    101  O5  NAG B   7      11.793  13.177  31.5890  0.00  0.00     0.000 O
BRANCH 97 104
ATOM    102   N  NAG B   7       8.282  12.057  30.9320  0.00  0.00     0.000 N
ATOM    104  HD  NAG B   7       7.579  11.582  30.7590  0.00  0.00     0.000 HD
ATOM    104   O  NAG B   7       6.029  11.927  31.1190  0.00  0.00     0.000 OA
ATOM    105   C  NAG B   7       7.068  12.615  31.1000  0.00  0.00     0.000 C
ATOM    106   C  NAG B   7       6.966  14.095  31.2510  0.00  0.00     0.000 C
ENDBRANCH 97 104
ATOM    107   O  NAG B   7      14.662  13.113  31.1520  0.00  0.00     0.000 O
ATOM    109  HD  NAG B   7      13.993  12.564  31.1950  0.00  0.00     0.000 HD
ATOM    109   O  NAG B   7      14.662  13.113  31.1520  0.00  0.00     0.000 O
ATOM    111  HD  NAG B   7      13.993  12.564  31.1950  0.00  0.00     0.000 HD
ENDBRANCH 95 98
ENDBRANCH 82 95
ENDBRANCH 81 85
ENDBRANCH 65 81
ENDBRANCH 64 67
ENDBRANCH 51 64
ENDBRANCH 50 54
ENDBRANCH 34 50
ENDBRANCH 33 36
ENDBRANCH 20 33
ENDBRANCH 19 23
ENDBRANCH 1 19
TORSDOF 19
ENDMDL
MODEL 51
REMARK VINA RESULT:      -4.6     13.003     21.743
ROOT
ATOM      1  C1  NAG B   1      13.933  10.302  10.4230  0.00  0.00     0.000 C
ATOM      2  C2  NAG B   1      14.796   9.959   9.2110  0.00  0.00     0.000 C
ATOM      3  C3  NAG B   1      15.542  11.169   8.6890  0.00  0.00     0.000 C
ATOM      4  C4  NAG B   1      14.468  12.202   8.3630  0.00  0.00     0.000 C
ATOM      5  C5  NAG B   1      13.736  12.590   9.6540  0.00  0.00     0.000 C
ATOM      6  O5  NAG B   1      13.084  11.447  10.2470  0.00  0.00     0.000 O
ATOM      7   O  NAG B   1      16.332  10.860   7.5180  0.00  0.00     0.000 O
ATOM      9  HD  NAG B   1      16.390  10.130   7.9800  0.00  0.00     0.000 HD
ATOM      9   O  NAG B   1      15.058  13.352   7.7810  0.00  0.00     0.000 O
ATOM     11  HD  NAG B   1      15.115  12.622   8.2430  0.00  0.00     0.000 HD
ATOM     11   C  NAG B   1      12.746  13.727   9.3730  0.00  0.00     0.000 C
ATOM     12   O  NAG B   1      11.638  13.683  10.2710  0.00  0.00     0.000 O
ATOM     14  HD  NAG B   1      11.696  12.953  10.7330  0.00  0.00     0.000 HD
ENDROOT
BRANCH 2 16
ATOM     14   N  NAG B   1      14.709   8.580   8.6990  0.00  0.00     0.000 N
ATOM     16  HD  NAG B   1      15.013   8.053   8.0820  0.00  0.00     0.000 HD
ATOM     16   C  NAG B   1      15.630   7.637   8.9650  0.00  0.00     0.000 C
ATOM     17   C  NAG B   1      16.835   7.979   9.8000  0.00  0.00     0.000 C
ATOM     18   O  NAG B   1      15.498   6.483   8.5600  0.00  0.00     0.000 OA
ENDBRANCH 2 16
BRANCH 1 19
ATOM     19  O4  BDP B   2      13.064   9.183  10.5290  0.00  0.00     0.000 O
BRANCH 19 23
ATOM     20  C1  BDP B   2      11.917   9.877  14.4200  0.00  0.00     0.000 C
ATOM     21  C2  BDP B   2      13.204   9.103  14.2260  0.00  0.00     0.000 C
ATOM     22  C3  BDP B   2      13.737   9.269  12.8210  0.00  0.00     0.000 C
ATOM     23  C4  BDP B   2      12.630   8.901  11.8380  0.00  0.00     0.000 C
ATOM     24  C5  BDP B   2      11.402   9.744  12.1210  0.00  0.00     0.000 C
ATOM     25  O5  BDP B   2      10.957   9.504  13.4420  0.00  0.00     0.000 O
ATOM     26   O  BDP B   2      14.176   9.528  15.1570  0.00  0.00     0.000 O
ATOM     28  HD  BDP B   2      13.470   9.910  15.4810  0.00  0.00     0.000 HD
ATOM     28   O  BDP B   2      14.902   8.446  12.6560  0.00  0.00     0.000 O
ATOM     30  HD  BDP B   2      14.196   8.828  12.9800  0.00  0.00     0.000 HD
BRANCH 24 30
ATOM     30   C  BDP B   2      10.278   9.426  11.2020  0.00  0.00     0.000 C
ATOM     31   O  BDP B   2       9.781   8.278  11.2780  0.00  0.00     0.000 OA
ATOM     32   O  BDP B   2       9.890  10.318  10.3950  0.00  0.00     0.000 OA
ENDBRANCH 24 30
BRANCH 20 33
ATOM     33  O3  NAG B   3      11.465   9.472  15.6900  0.00  0.00     0.000 O
BRANCH 33 36
ATOM     34  C1  NAG B   3       8.991  11.505  17.6640  0.00  0.00     0.000 C
ATOM     35  C2  NAG B   3      10.342  11.038  17.1550  0.00  0.00     0.000 C
ATOM     36  C3  NAG B   3      10.189  10.036  16.0010  0.00  0.00     0.000 C
ATOM     37  C4  NAG B   3       9.244   8.915  16.4270  0.00  0.00     0.000 C
ATOM     38  C5  NAG B   3       7.955   9.498  17.0000  0.00  0.00     0.000 C
ATOM     39  O5  NAG B   3       8.255  10.364  18.0810  0.00  0.00     0.000 O
ATOM     40   O  NAG B   3       8.931   8.082  15.3000  0.00  0.00     0.000 O
ATOM     42  HD  NAG B   3       8.121   8.270  15.5420  0.00  0.00     0.000 HD
ATOM     42   C  NAG B   3       7.004   8.450  17.5720  0.00  0.00     0.000 C
ATOM     43   O  NAG B   3       7.607   7.829  18.7140  0.00  0.00     0.000 O
ATOM     45  HD  NAG B   3       6.797   8.018  18.9560  0.00  0.00     0.000 HD
BRANCH 35 47
ATOM     45   N  NAG B   3      11.634  11.435  17.6990  0.00  0.00     0.000 N
ATOM     47  HD  NAG B   3      11.484  10.586  17.7820  0.00  0.00     0.000 HD
ATOM     47   C  NAG B   3      12.399  12.349  17.1360  0.00  0.00     0.000 C
ATOM     48   C  NAG B   3      13.709  12.624  17.8140  0.00  0.00     0.000 C
ATOM     49   O  NAG B   3      12.072  12.924  16.1000  0.00  0.00     0.000 OA
ENDBRANCH 35 47
BRANCH 34 50
ATOM     50  O4  BDP B   4       9.314  12.316  18.7740  0.00  0.00     0.000 O
BRANCH 50 54
ATOM     51  C1  BDP B   4       7.994  15.307  21.1950  0.00  0.00     0.000 C
ATOM     52  C2  BDP B   4       7.289  13.971  21.4000  0.00  0.00     0.000 C
ATOM     53  C3  BDP B   4       8.099  12.896  20.7430  0.00  0.00     0.000 C
ATOM     54  C4  BDP B   4       8.337  13.257  19.2480  0.00  0.00     0.000 C
ATOM     55  C5  BDP B   4       8.855  14.678  19.0710  0.00  0.00     0.000 C
ATOM     56  O5  BDP B   4       8.055  15.596  19.8100  0.00  0.00     0.000 O
ATOM     57   O  BDP B   4       7.166  13.688  22.7780  0.00  0.00     0.000 O
ATOM     59  HD  BDP B   4       6.339  13.862  22.9630  0.00  0.00     0.000 HD
ATOM     59   O  BDP B   4       7.311  11.689  20.7890  0.00  0.00     0.000 O
ATOM     61  HD  BDP B   4       6.483  11.863  20.9740  0.00  0.00     0.000 HD
BRANCH 55 61
ATOM     61   C  BDP B   4       8.809  15.048  17.5990  0.00  0.00     0.000 C
ATOM     62   O  BDP B   4       9.901  15.235  17.0020  0.00  0.00     0.000 OA
ATOM     63   O  BDP B   4       7.674  15.148  17.0410  0.00  0.00     0.000 OA
ENDBRANCH 55 61
BRANCH 51 64
ATOM     64  O3  NAG B   5       7.225  16.307  21.8920  0.00  0.00     0.000 O
BRANCH 64 67
ATOM     65  C1  NAG B   5       8.825  19.144  23.6200  0.00  0.00     0.000 C
ATOM     66  C2  NAG B   5       8.310  17.732  23.3990  0.00  0.00     0.000 C
ATOM     67  C3  NAG B   5       7.882  17.558  21.9470  0.00  0.00     0.000 C
ATOM     68  C4  NAG B   5       6.908  18.665  21.5230  0.00  0.00     0.000 C
ATOM     69  C5  NAG B   5       7.469  20.036  21.8690  0.00  0.00     0.000 C
ATOM     70  O5  NAG B   5       7.835  20.079  23.2560  0.00  0.00     0.000 O
ATOM     71   O  NAG B   5       6.664  18.547  20.1380  0.00  0.00     0.000 O
ATOM     73  HD  NAG B   5       5.852  18.711  20.3900  0.00  0.00     0.000 HD
ATOM     73   C  NAG B   5       6.507  21.200  21.5960  0.00  0.00     0.000 C
ATOM     74   O  NAG B   5       5.348  21.079  22.4470  0.00  0.00     0.000 O
ATOM     76  HD  NAG B   5       4.535  21.243  22.6980  0.00  0.00     0.000 HD
BRANCH 66 78
ATOM     76   N  NAG B   5       9.427  16.916  23.9130  0.00  0.00     0.000 N
ATOM     78  HD  NAG B   5       8.572  16.972  24.0330  0.00  0.00     0.000 HD
ATOM     78   C  NAG B   5       9.316  15.802  24.6530  0.00  0.00     0.000 C
ATOM     79   C  NAG B   5      10.640  15.183  25.0080  0.00  0.00     0.000 C
ATOM     80   O  NAG B   5       8.189  15.317  25.0280  0.00  0.00     0.000 OA
ENDBRANCH 66 78
BRANCH 65 81
ATOM     81  O4  BDP B   6       9.186  19.327  24.9950  0.00  0.00     0.000 O
BRANCH 81 85
ATOM     82  C1  BDP B   6      11.648  21.875  27.4050  0.00  0.00     0.000 C
ATOM     83  C2  BDP B   6      10.239  22.361  27.0760  0.00  0.00     0.000 C
ATOM     84  C3  BDP B   6       9.323  21.239  26.5800  0.00  0.00     0.000 C
ATOM     85  C4  BDP B   6       9.958  20.446  25.4360  0.00  0.00     0.000 C
ATOM     86  C5  BDP B   6      11.386  20.041  25.8730  0.00  0.00     0.000 C
ATOM     87  O5  BDP B   6      12.183  21.201  26.2750  0.00  0.00     0.000 O
ATOM     88   O  BDP B   6       9.726  22.892  28.2950  0.00  0.00     0.000 O
ATOM     90  HD  BDP B   6       8.998  22.903  28.7640  0.00  0.00     0.000 HD
ATOM     90   O  BDP B   6       8.063  21.788  26.1850  0.00  0.00     0.000 O
ATOM     92  HD  BDP B   6       7.335  21.799  26.6540  0.00  0.00     0.000 HD
BRANCH 86 92
ATOM     92   C  BDP B   6      12.153  19.464  24.7080  0.00  0.00     0.000 C
ATOM     93   O  BDP B   6      12.260  18.206  24.5930  0.00  0.00     0.000 OA
ATOM     94   O  BDP B   6      12.647  20.280  23.8690  0.00  0.00     0.000 OA
ENDBRANCH 86 92
BRANCH 82 95
ATOM     95  O3  NAG B   7      12.475  23.025  27.6680  0.00  0.00     0.000 O
BRANCH 95 98
ATOM     96  C1  NAG B   7      14.997  23.833  30.1830  0.00  0.00     0.000 C
ATOM     97  C2  NAG B   7      13.737  24.047  29.3550  0.00  0.00     0.000 C
ATOM     98  C3  NAG B   7      13.689  22.857  28.4000  0.00  0.00     0.000 C
ATOM     99  C4  NAG B   7      14.938  22.843  27.5230  0.00  0.00     0.000 C
ATOM    100  C5  NAG B   7      16.206  22.879  28.3780  0.00  0.00     0.000 C
ATOM    101  O5  NAG B   7      16.112  23.959  29.2940  0.00  0.00     0.000 O
BRANCH 97 104
ATOM    102   N  NAG B   7      12.381  23.966  29.9140  0.00  0.00     0.000 N
ATOM    104  HD  NAG B   7      11.531  23.824  30.0030  0.00  0.00     0.000 HD
ATOM    104   O  NAG B   7      10.443  24.743  30.7910  0.00  0.00     0.000 OA
ATOM    105   C  NAG B   7      11.607  24.955  30.4010  0.00  0.00     0.000 C
ATOM    106   C  NAG B   7      12.155  26.340  30.4600  0.00  0.00     0.000 C
ENDBRANCH 97 104
ATOM    107   O  NAG B   7      18.545  22.727  28.3000  0.00  0.00     0.000 O
ATOM    109  HD  NAG B   7      17.836  22.510  28.7470  0.00  0.00     0.000 HD
ATOM    109   O  NAG B   7      18.545  22.727  28.3000  0.00  0.00     0.000 O
ATOM    111  HD  NAG B   7      17.836  22.510  28.7470  0.00  0.00     0.000 HD
ENDBRANCH 95 98
ENDBRANCH 82 95
ENDBRANCH 81 85
ENDBRANCH 65 81
ENDBRANCH 64 67
ENDBRANCH 51 64
ENDBRANCH 50 54
ENDBRANCH 34 50
ENDBRANCH 33 36
ENDBRANCH 20 33
ENDBRANCH 19 23
ENDBRANCH 1 19
TORSDOF 19
ENDMDL
MODEL 52
REMARK VINA RESULT:      -4.6      9.093     12.285
ROOT
ATOM      1  C1  NAG B   1      10.660  25.654  20.0830  0.00  0.00     0.000 C
ATOM      2  C2  NAG B   1      11.202  26.863  19.3250  0.00  0.00     0.000 C
ATOM      3  C3  NAG B   1      10.442  28.129  19.6660  0.00  0.00     0.000 C
ATOM      4  C4  NAG B   1       8.985  27.835  19.3260  0.00  0.00     0.000 C
ATOM      5  C5  NAG B   1       8.479  26.697  20.2230  0.00  0.00     0.000 C
ATOM      6  O5  NAG B   1       9.236  25.487  20.0050  0.00  0.00     0.000 O
ATOM      7   O  NAG B   1      10.924  29.271  18.9230  0.00  0.00     0.000 O
ATOM      9  HD  NAG B   1      11.649  28.816  19.0550  0.00  0.00     0.000 HD
ATOM      9   O  NAG B   1       8.193  28.993  19.5280  0.00  0.00     0.000 O
ATOM     11  HD  NAG B   1       8.917  28.537  19.6610  0.00  0.00     0.000 HD
ATOM     11   C  NAG B   1       6.979  26.477  19.9930  0.00  0.00     0.000 C
ATOM     12   O  NAG B   1       6.610  25.122  20.2440  0.00  0.00     0.000 O
ATOM     14  HD  NAG B   1       7.334  24.666  20.3760  0.00  0.00     0.000 HD
ENDROOT
BRANCH 2 16
ATOM     14   N  NAG B   1      12.391  26.228  18.7300  0.00  0.00     0.000 N
ATOM     16  HD  NAG B   1      12.857  26.184  18.0020  0.00  0.00     0.000 HD
ATOM     16   C  NAG B   1      13.575  26.854  18.6090  0.00  0.00     0.000 C
ATOM     17   C  NAG B   1      13.721  28.281  19.0680  0.00  0.00     0.000 C
ATOM     18   O  NAG B   1      14.560  26.274  18.1520  0.00  0.00     0.000 OA
ENDBRANCH 2 16
BRANCH 1 19
ATOM     19  O4  BDP B   2      11.223  24.554  19.3810  0.00  0.00     0.000 O
BRANCH 19 23
ATOM     20  C1  BDP B   2       9.803  21.043  17.7680  0.00  0.00     0.000 C
ATOM     21  C2  BDP B   2       9.419  22.319  17.0470  0.00  0.00     0.000 C
ATOM     22  C3  BDP B   2      10.312  23.468  17.4550  0.00  0.00     0.000 C
ATOM     23  C4  BDP B   2      10.291  23.579  18.9770  0.00  0.00     0.000 C
ATOM     24  C5  BDP B   2      10.701  22.252  19.5850  0.00  0.00     0.000 C
ATOM     25  O5  BDP B   2       9.798  21.243  19.1750  0.00  0.00     0.000 O
ATOM     26   O  BDP B   2       9.493  22.132  15.6500  0.00  0.00     0.000 O
ATOM     28  HD  BDP B   2       9.563  21.313  15.9220  0.00  0.00     0.000 HD
ATOM     28   O  BDP B   2       9.853  24.672  16.8200  0.00  0.00     0.000 O
ATOM     30  HD  BDP B   2       9.923  23.853  17.0920  0.00  0.00     0.000 HD
BRANCH 24 30
ATOM     30   C  BDP B   2      10.691  22.288  21.0710  0.00  0.00     0.000 C
ATOM     31   O  BDP B   2      11.784  22.112  21.6570  0.00  0.00     0.000 OA
ATOM     32   O  BDP B   2       9.590  22.484  21.6600  0.00  0.00     0.000 OA
ENDBRANCH 24 30
BRANCH 20 33
ATOM     33  O3  NAG B   3       8.781  20.139  17.4270  0.00  0.00     0.000 O
BRANCH 33 36
ATOM     34  C1  NAG B   3       9.146  16.453  18.0840  0.00  0.00     0.000 C
ATOM     35  C2  NAG B   3       9.274  17.770  17.3420  0.00  0.00     0.000 C
ATOM     36  C3  NAG B   3       8.838  18.951  18.2210  0.00  0.00     0.000 C
ATOM     37  C4  NAG B   3       7.449  18.671  18.7910  0.00  0.00     0.000 C
ATOM     38  C5  NAG B   3       7.411  17.289  19.4380  0.00  0.00     0.000 C
ATOM     39  O5  NAG B   3       7.795  16.303  18.4940  0.00  0.00     0.000 O
ATOM     40   O  NAG B   3       7.111  19.666  19.7700  0.00  0.00     0.000 O
ATOM     42  HD  NAG B   3       6.980  18.963  20.2590  0.00  0.00     0.000 HD
ATOM     42   C  NAG B   3       6.025  16.871  19.9200  0.00  0.00     0.000 C
ATOM     43   O  NAG B   3       5.152  16.719  18.7950  0.00  0.00     0.000 O
ATOM     45  HD  NAG B   3       5.021  16.016  19.2830  0.00  0.00     0.000 HD
BRANCH 35 47
ATOM     45   N  NAG B   3       9.706  17.934  15.9600  0.00  0.00     0.000 N
ATOM     47  HD  NAG B   3       8.894  18.206  16.0900  0.00  0.00     0.000 HD
ATOM     47   C  NAG B   3      10.929  18.297  15.6290  0.00  0.00     0.000 C
ATOM     48   C  NAG B   3      11.202  18.440  14.1610  0.00  0.00     0.000 C
ATOM     49   O  NAG B   3      11.790  18.531  16.4740  0.00  0.00     0.000 OA
ENDBRANCH 35 47
BRANCH 34 50
ATOM     50  O4  BDP B   4       9.474  15.486  17.1080  0.00  0.00     0.000 O
BRANCH 50 54
ATOM     51  C1  BDP B   4      10.712  11.657  16.5120  0.00  0.00     0.000 C
ATOM     52  C2  BDP B   4       9.346  11.783  17.1770  0.00  0.00     0.000 C
ATOM     53  C3  BDP B   4       8.853  13.186  16.9980  0.00  0.00     0.000 C
ATOM     54  C4  BDP B   4       9.912  14.188  17.5430  0.00  0.00     0.000 C
ATOM     55  C5  BDP B   4      11.308  13.904  17.0070  0.00  0.00     0.000 C
ATOM     56  O5  BDP B   4      11.628  12.523  17.1570  0.00  0.00     0.000 O
ATOM     57   O  BDP B   4       8.429  10.886  16.5880  0.00  0.00     0.000 O
ATOM     59  HD  BDP B   4       8.362  10.237  17.1570  0.00  0.00     0.000 HD
ATOM     59   O  BDP B   4       7.662  13.318  17.8000  0.00  0.00     0.000 O
ATOM     61  HD  BDP B   4       7.594  12.669  18.3690  0.00  0.00     0.000 HD
BRANCH 55 61
ATOM     61   C  BDP B   4      12.319  14.736  17.7760  0.00  0.00     0.000 C
ATOM     62   O  BDP B   4      12.913  15.660  17.1620  0.00  0.00     0.000 OA
ATOM     63   O  BDP B   4      12.514  14.464  19.0000  0.00  0.00     0.000 OA
ENDBRANCH 55 61
BRANCH 51 64
ATOM     64  O3  NAG B   5      11.127  10.284  16.6460  0.00  0.00     0.000 O
BRANCH 64 67
ATOM     65  C1  NAG B   5      13.835   8.801  14.6310  0.00  0.00     0.000 C
ATOM     66  C2  NAG B   5      12.435   9.267  14.9930  0.00  0.00     0.000 C
ATOM     67  C3  NAG B   5      12.478  10.085  16.2770  0.00  0.00     0.000 C
ATOM     68  C4  NAG B   5      13.205   9.322  17.3930  0.00  0.00     0.000 C
ATOM     69  C5  NAG B   5      14.554   8.817  16.9070  0.00  0.00     0.000 C
ATOM     70  O5  NAG B   5      14.388   8.064  15.6970  0.00  0.00     0.000 O
ATOM     71   O  NAG B   5      13.350  10.178  18.5060  0.00  0.00     0.000 O
ATOM     73  HD  NAG B   5      13.128   9.459  18.9350  0.00  0.00     0.000 HD
ATOM     73   C  NAG B   5      15.299   7.932  17.9170  0.00  0.00     0.000 C
ATOM     74   O  NAG B   5      14.544   6.725  18.1520  0.00  0.00     0.000 O
ATOM     76  HD  NAG B   5      14.322   6.006  18.5810  0.00  0.00     0.000 HD
BRANCH 66 78
ATOM     76   N  NAG B   5      11.294   8.993  14.0990  0.00  0.00     0.000 N
ATOM     78  HD  NAG B   5      11.766   9.679  14.3370  0.00  0.00     0.000 HD
ATOM     78   C  NAG B   5      10.781   9.840  13.1920  0.00  0.00     0.000 C
ATOM     79   C  NAG B   5       9.628   9.261  12.4170  0.00  0.00     0.000 C
ATOM     80   O  NAG B   5      11.224  11.029  13.0110  0.00  0.00     0.000 OA
ENDBRANCH 66 78
BRANCH 65 81
ATOM     81  O4  BDP B   6      13.795   7.992  13.4480  0.00  0.00     0.000 O
BRANCH 81 85
ATOM     82  C1  BDP B   6      16.202   7.017  10.0400  0.00  0.00     0.000 C
ATOM     83  C2  BDP B   6      16.824   6.828  11.4200  0.00  0.00     0.000 C
ATOM     84  C3  BDP B   6      15.784   6.805  12.5440  0.00  0.00     0.000 C
ATOM     85  C4  BDP B   6      14.844   8.010  12.4780  0.00  0.00     0.000 C
ATOM     86  C5  BDP B   6      14.308   8.117  11.0300  0.00  0.00     0.000 C
ATOM     87  O5  BDP B   6      15.393   8.185  10.0500  0.00  0.00     0.000 O
ATOM     88   O  BDP B   6      17.495   5.572  11.3660  0.00  0.00     0.000 O
ATOM     90  HD  BDP B   6      17.624   4.863  11.8460  0.00  0.00     0.000 HD
ATOM     90   O  BDP B   6      16.446   6.740  13.8090  0.00  0.00     0.000 O
ATOM     92  HD  BDP B   6      16.575   6.031  14.2890  0.00  0.00     0.000 HD
BRANCH 86 92
ATOM     92   C  BDP B   6      13.565   9.417  10.8350  0.00  0.00     0.000 C
ATOM     93   O  BDP B   6      12.434   9.409  10.2610  0.00  0.00     0.000 OA
ATOM     94   O  BDP B   6      14.108  10.475  11.2830  0.00  0.00     0.000 OA
ENDBRANCH 86 92
BRANCH 82 95
ATOM     95  O3  NAG B   7      17.264   7.223   9.0880  0.00  0.00     0.000 O
BRANCH 95 98
ATOM     96  C1  NAG B   7      18.437   5.880   5.9000  0.00  0.00     0.000 C
ATOM     97  C2  NAG B   7      18.570   6.522   7.2750  0.00  0.00     0.000 C
ATOM     98  C3  NAG B   7      17.136   6.681   7.7740  0.00  0.00     0.000 C
ATOM     99  C4  NAG B   7      16.348   7.571   6.8160  0.00  0.00     0.000 C
ATOM    100  C5  NAG B   7      16.432   7.040   5.3840  0.00  0.00     0.000 C
ATOM    101  O5  NAG B   7      17.796   6.837   5.0490  0.00  0.00     0.000 O
BRANCH 97 104
ATOM    102   N  NAG B   7      19.204   5.753   8.3540  0.00  0.00     0.000 N
ATOM    104  HD  NAG B   7      19.357   5.368   9.1150  0.00  0.00     0.000 HD
ATOM    104   O  NAG B   7      20.771   5.259   9.9130  0.00  0.00     0.000 OA
ATOM    105   C  NAG B   7      20.386   5.967   8.9630  0.00  0.00     0.000 C
ATOM    106   C  NAG B   7      21.248   7.090   8.4950  0.00  0.00     0.000 C
ENDBRANCH 97 104
ATOM    107   O  NAG B   7      15.607   7.332   3.2070  0.00  0.00     0.000 O
ATOM    109  HD  NAG B   7      15.844   6.750   3.8030  0.00  0.00     0.000 HD
ATOM    109   O  NAG B   7      15.607   7.332   3.2070  0.00  0.00     0.000 O
ATOM    111  HD  NAG B   7      15.844   6.750   3.8030  0.00  0.00     0.000 HD
ENDBRANCH 95 98
ENDBRANCH 82 95
ENDBRANCH 81 85
ENDBRANCH 65 81
ENDBRANCH 64 67
ENDBRANCH 51 64
ENDBRANCH 50 54
ENDBRANCH 34 50
ENDBRANCH 33 36
ENDBRANCH 20 33
ENDBRANCH 19 23
ENDBRANCH 1 19
TORSDOF 19
ENDMDL
MODEL 53
REMARK VINA RESULT:      -4.5      9.169     12.817
ROOT
ATOM      1  C1  NAG B   1      12.496  17.819  22.2990  0.00  0.00     0.000 C
ATOM      2  C2  NAG B   1      12.808  19.122  23.0290  0.00  0.00     0.000 C
ATOM      3  C3  NAG B   1      14.281  19.468  22.9630  0.00  0.00     0.000 C
ATOM      4  C4  NAG B   1      15.009  18.273  23.5710  0.00  0.00     0.000 C
ATOM      5  C5  NAG B   1      14.751  17.034  22.7040  0.00  0.00     0.000 C
ATOM      6  O5  NAG B   1      13.344  16.715  22.6560  0.00  0.00     0.000 O
ATOM      7   O  NAG B   1      14.590  20.682  23.6860  0.00  0.00     0.000 O
ATOM      9  HD  NAG B   1      13.802  20.849  23.3680  0.00  0.00     0.000 HD
ATOM      9   O  NAG B   1      16.401  18.532  23.6370  0.00  0.00     0.000 O
ATOM     11  HD  NAG B   1      15.613  18.699  23.3190  0.00  0.00     0.000 HD
ATOM     11   C  NAG B   1      15.583  15.853  23.2190  0.00  0.00     0.000 C
ATOM     12   O  NAG B   1      14.947  14.608  22.9350  0.00  0.00     0.000 O
ATOM     14  HD  NAG B   1      14.159  14.775  22.6170  0.00  0.00     0.000 HD
ENDROOT
BRANCH 2 16
ATOM     14   N  NAG B   1      11.985  20.231  22.5140  0.00  0.00     0.000 N
ATOM     16  HD  NAG B   1      11.209  20.414  22.1740  0.00  0.00     0.000 HD
ATOM     16   C  NAG B   1      11.020  20.827  23.2350  0.00  0.00     0.000 C
ATOM     17   C  NAG B   1      10.720  20.347  24.6300  0.00  0.00     0.000 C
ATOM     18   O  NAG B   1      10.387  21.783  22.7880  0.00  0.00     0.000 OA
ENDBRANCH 2 16
BRANCH 1 19
ATOM     19  O4  BDP B   2      11.199  17.484  22.7720  0.00  0.00     0.000 O
BRANCH 19 23
ATOM     20  C1  BDP B   2      10.230  15.036  19.6080  0.00  0.00     0.000 C
ATOM     21  C2  BDP B   2       9.920  16.509  19.4390  0.00  0.00     0.000 C
ATOM     22  C3  BDP B   2      10.678  17.348  20.4430  0.00  0.00     0.000 C
ATOM     23  C4  BDP B   2      10.393  16.804  21.8400  0.00  0.00     0.000 C
ATOM     24  C5  BDP B   2      10.751  15.332  21.8910  0.00  0.00     0.000 C
ATOM     25  O5  BDP B   2       9.976  14.622  20.9430  0.00  0.00     0.000 O
ATOM     26   O  BDP B   2      10.239  16.930  18.1300  0.00  0.00     0.000 O
ATOM     28  HD  BDP B   2      10.297  16.071  18.0380  0.00  0.00     0.000 HD
ATOM     28   O  BDP B   2      10.282  18.722  20.3070  0.00  0.00     0.000 O
ATOM     30  HD  BDP B   2      10.340  17.862  20.2150  0.00  0.00     0.000 HD
BRANCH 24 30
ATOM     30   C  BDP B   2      10.486  14.735  23.2260  0.00  0.00     0.000 C
ATOM     31   O  BDP B   2      11.467  14.276  23.8550  0.00  0.00     0.000 OA
ATOM     32   O  BDP B   2       9.295  14.714  23.6500  0.00  0.00     0.000 OA
ENDBRANCH 24 30
BRANCH 20 33
ATOM     33  O3  NAG B   3       9.322  14.396  18.7450  0.00  0.00     0.000 O
BRANCH 33 36
ATOM     34  C1  NAG B   3      10.244  11.173  17.0390  0.00  0.00     0.000 C
ATOM     35  C2  NAG B   3      10.151  12.670  17.2640  0.00  0.00     0.000 C
ATOM     36  C3  NAG B   3       9.579  12.993  18.6530  0.00  0.00     0.000 C
ATOM     37  C4  NAG B   3       8.268  12.236  18.8480  0.00  0.00     0.000 C
ATOM     38  C5  NAG B   3       8.456  10.758  18.5130  0.00  0.00     0.000 C
ATOM     39  O5  NAG B   3       8.944  10.620  17.1900  0.00  0.00     0.000 O
ATOM     40   O  NAG B   3       7.824  12.365  20.2070  0.00  0.00     0.000 O
ATOM     42  HD  NAG B   3       7.815  11.500  20.1570  0.00  0.00     0.000 HD
ATOM     42   C  NAG B   3       7.163   9.947  18.5550  0.00  0.00     0.000 C
ATOM     43   O  NAG B   3       6.281  10.398  17.5200  0.00  0.00     0.000 O
ATOM     45  HD  NAG B   3       6.272   9.533  17.4690  0.00  0.00     0.000 HD
BRANCH 35 47
ATOM     45   N  NAG B   3      10.498  13.713  16.3070  0.00  0.00     0.000 N
ATOM     47  HD  NAG B   3       9.664  13.738  16.5390  0.00  0.00     0.000 HD
ATOM     47   C  NAG B   3      11.649  14.356  16.3320  0.00  0.00     0.000 C
ATOM     48   C  NAG B   3      11.837  15.415  15.2870  0.00  0.00     0.000 C
ATOM     49   O  NAG B   3      12.508  14.121  17.1800  0.00  0.00     0.000 OA
ENDBRANCH 35 47
BRANCH 34 50
ATOM     50  O4  BDP B   4      10.673  11.062  15.6980  0.00  0.00     0.000 O
BRANCH 50 54
ATOM     51  C1  BDP B   4      12.689   8.696  13.0740  0.00  0.00     0.000 C
ATOM     52  C2  BDP B   4      11.225   8.320  13.2670  0.00  0.00     0.000 C
ATOM     53  C3  BDP B   4      10.522   9.459  13.9390  0.00  0.00     0.000 C
ATOM     54  C4  BDP B   4      11.256   9.823  15.2610  0.00  0.00     0.000 C
ATOM     55  C5  BDP B   4      12.755   9.996  15.0630  0.00  0.00     0.000 C
ATOM     56  O5  BDP B   4      13.293   8.892  14.3400  0.00  0.00     0.000 O
ATOM     57   O  BDP B   4      10.615   8.064  12.0200  0.00  0.00     0.000 O
ATOM     59  HD  BDP B   4      10.565   7.201  11.9740  0.00  0.00     0.000 HD
ATOM     59   O  BDP B   4       9.199   8.995  14.2780  0.00  0.00     0.000 O
ATOM     61  HD  BDP B   4       9.149   8.131  14.2320  0.00  0.00     0.000 HD
BRANCH 55 61
ATOM     61   C  BDP B   4      13.434  10.082  16.4180  0.00  0.00     0.000 C
ATOM     62   O  BDP B   4      13.998  11.164  16.7290  0.00  0.00     0.000 OA
ATOM     63   O  BDP B   4      13.398   9.063  17.1740  0.00  0.00     0.000 OA
ENDBRANCH 55 61
BRANCH 51 64
ATOM     64  O3  NAG B   5      13.320   7.609  12.3700  0.00  0.00     0.000 O
BRANCH 64 67
ATOM     65  C1  NAG B   5      15.938   7.945   9.7950  0.00  0.00     0.000 C
ATOM     66  C2  NAG B   5      14.544   7.832  10.3870  0.00  0.00     0.000 C
ATOM     67  C3  NAG B   5      14.614   7.940  11.9050  0.00  0.00     0.000 C
ATOM     68  C4  NAG B   5      15.633   6.947  12.4810  0.00  0.00     0.000 C
ATOM     69  C5  NAG B   5      16.968   7.071  11.7640  0.00  0.00     0.000 C
ATOM     70  O5  NAG B   5      16.776   6.955  10.3470  0.00  0.00     0.000 O
ATOM     71   O  NAG B   5      15.770   7.192  13.8640  0.00  0.00     0.000 O
ATOM     73  HD  NAG B   5      15.760   6.327  13.8960  0.00  0.00     0.000 HD
ATOM     73   C  NAG B   5      18.013   6.029  12.1880  0.00  0.00     0.000 C
ATOM     74   O  NAG B   5      17.552   4.710  11.8310  0.00  0.00     0.000 O
ATOM     76  HD  NAG B   5      17.541   3.844  11.8630  0.00  0.00     0.000 HD
BRANCH 66 78
ATOM     76   N  NAG B   5      13.817   8.858   9.6140  0.00  0.00     0.000 N
ATOM     78  HD  NAG B   5      13.711   8.025   9.8240  0.00  0.00     0.000 HD
ATOM     78   C  NAG B   5      12.561   8.756   9.1520  0.00  0.00     0.000 C
ATOM     79   C  NAG B   5      12.092   9.981   8.4140  0.00  0.00     0.000 C
ATOM     80   O  NAG B   5      11.834   7.712   9.3160  0.00  0.00     0.000 OA
ENDBRANCH 66 78
BRANCH 65 81
ATOM     81  O4  BDP B   6      15.883   7.797   8.3710  0.00  0.00     0.000 O
BRANCH 81 85
ATOM     82  C1  BDP B   6      18.350   8.355   4.9120  0.00  0.00     0.000 C
ATOM     83  C2  BDP B   6      18.603   7.117   5.7660  0.00  0.00     0.000 C
ATOM     84  C3  BDP B   6      17.440   6.797   6.7100  0.00  0.00     0.000 C
ATOM     85  C4  BDP B   6      17.025   8.014   7.5390  0.00  0.00     0.000 C
ATOM     86  C5  BDP B   6      16.833   9.206   6.5710  0.00  0.00     0.000 C
ATOM     87  O5  BDP B   6      18.027   9.448   5.7600  0.00  0.00     0.000 O
ATOM     88   O  BDP B   6      18.776   6.046   4.8420  0.00  0.00     0.000 O
ATOM     90  HD  BDP B   6      18.552   5.216   4.7320  0.00  0.00     0.000 HD
ATOM     90   O  BDP B   6      17.796   5.699   7.5540  0.00  0.00     0.000 O
ATOM     92  HD  BDP B   6      17.572   4.869   7.4440  0.00  0.00     0.000 HD
BRANCH 86 92
ATOM     92   C  BDP B   6      16.655  10.491   7.3420  0.00  0.00     0.000 C
ATOM     93   O  BDP B   6      17.667  11.214   7.5920  0.00  0.00     0.000 OA
ATOM     94   O  BDP B   6      15.476  10.806   7.6930  0.00  0.00     0.000 OA
ENDBRANCH 86 92
BRANCH 82 95
ATOM     95  O3  NAG B   7      19.568   8.682   4.2140  0.00  0.00     0.000 O
BRANCH 95 98
ATOM     96  C1  NAG B   7      20.083   9.923   0.8180  0.00  0.00     0.000 C
ATOM     97  C2  NAG B   7      20.186   8.932   1.9690  0.00  0.00     0.000 C
ATOM     98  C3  NAG B   7      19.527   9.636   3.1530  0.00  0.00     0.000 C
ATOM     99  C4  NAG B   7      20.270  10.933   3.4650  0.00  0.00     0.000 C
ATOM    100  C5  NAG B   7      20.373  11.815   2.2200  0.00  0.00     0.000 C
ATOM    101  O5  NAG B   7      20.906  11.046   1.1530  0.00  0.00     0.000 O
BRANCH 97 104
ATOM    102   N  NAG B   7      19.437   7.673   1.8530  0.00  0.00     0.000 N
ATOM    104  HD  NAG B   7      18.895   7.017   2.0130  0.00  0.00     0.000 HD
ATOM    104   O  NAG B   7      19.143   5.429   1.7470  0.00  0.00     0.000 OA
ATOM    105   C  NAG B   7      19.908   6.413   1.7830  0.00  0.00     0.000 C
ATOM    106   C  NAG B   7      21.382   6.191   1.7620  0.00  0.00     0.000 C
ENDBRANCH 97 104
ATOM    107   O  NAG B   7      21.034  13.931   1.4510  0.00  0.00     0.000 O
ATOM    109  HD  NAG B   7      20.440  13.305   1.3790  0.00  0.00     0.000 HD
ATOM    109   O  NAG B   7      21.034  13.931   1.4510  0.00  0.00     0.000 O
ATOM    111  HD  NAG B   7      20.440  13.305   1.3790  0.00  0.00     0.000 HD
ENDBRANCH 95 98
ENDBRANCH 82 95
ENDBRANCH 81 85
ENDBRANCH 65 81
ENDBRANCH 64 67
ENDBRANCH 51 64
ENDBRANCH 50 54
ENDBRANCH 34 50
ENDBRANCH 33 36
ENDBRANCH 20 33
ENDBRANCH 19 23
ENDBRANCH 1 19
TORSDOF 19
ENDMDL
MODEL 54
REMARK VINA RESULT:      -4.5     13.715     19.017
ROOT
ATOM      1  C1  NAG B   1      15.035  15.461   8.3440  0.00  0.00     0.000 C
ATOM      2  C2  NAG B   1      14.412  16.510   7.4270  0.00  0.00     0.000 C
ATOM      3  C3  NAG B   1      13.910  17.711   8.2030  0.00  0.00     0.000 C
ATOM      4  C4  NAG B   1      12.912  17.156   9.2140  0.00  0.00     0.000 C
ATOM      5  C5  NAG B   1      13.645  16.214  10.1780  0.00  0.00     0.000 C
ATOM      6  O5  NAG B   1      14.226  15.096   9.4730  0.00  0.00     0.000 O
ATOM      7   O  NAG B   1      13.283  18.692   7.3450  0.00  0.00     0.000 O
ATOM      9  HD  NAG B   1      13.915  18.380   6.8420  0.00  0.00     0.000 HD
ATOM      9   O  NAG B   1      12.313  18.216   9.9410  0.00  0.00     0.000 O
ATOM     11  HD  NAG B   1      12.945  17.904   9.4370  0.00  0.00     0.000 HD
ATOM     11   C  NAG B   1      12.689  15.752  11.2860  0.00  0.00     0.000 C
ATOM     12   O  NAG B   1      13.050  14.462  11.7760  0.00  0.00     0.000 O
ATOM     14  HD  NAG B   1      13.682  14.150  11.2730  0.00  0.00     0.000 HD
ENDROOT
BRANCH 2 16
ATOM     14   N  NAG B   1      14.296  16.200   5.9910  0.00  0.00     0.000 N
ATOM     16  HD  NAG B   1      14.036  16.530   5.2330  0.00  0.00     0.000 HD
ATOM     16   C  NAG B   1      15.174  16.636   5.0720  0.00  0.00     0.000 C
ATOM     17   C  NAG B   1      16.329  17.507   5.4900  0.00  0.00     0.000 C
ATOM     18   O  NAG B   1      15.072  16.315   3.8880  0.00  0.00     0.000 OA
ENDBRANCH 2 16
BRANCH 1 19
ATOM     19  O4  BDP B   2      15.098  14.306   7.5180  0.00  0.00     0.000 O
BRANCH 19 23
ATOM     20  C1  BDP B   2      14.219  11.675  10.5590  0.00  0.00     0.000 C
ATOM     21  C2  BDP B   2      15.688  11.906  10.2720  0.00  0.00     0.000 C
ATOM     22  C3  BDP B   2      15.897  13.164   9.4600  0.00  0.00     0.000 C
ATOM     23  C4  BDP B   2      15.021  13.085   8.2130  0.00  0.00     0.000 C
ATOM     24  C5  BDP B   2      13.578  12.865   8.6240  0.00  0.00     0.000 C
ATOM     25  O5  BDP B   2      13.471  11.656   9.3510  0.00  0.00     0.000 O
ATOM     26   O  BDP B   2      16.415  11.993  11.4790  0.00  0.00     0.000 O
ATOM     28  HD  BDP B   2      15.655  11.698  11.7740  0.00  0.00     0.000 HD
ATOM     28   O  BDP B   2      17.290  13.291   9.1340  0.00  0.00     0.000 O
ATOM     30  HD  BDP B   2      16.531  12.996   9.4280  0.00  0.00     0.000 HD
BRANCH 24 30
ATOM     30   C  BDP B   2      12.669  12.766   7.4520  0.00  0.00     0.000 C
ATOM     31   O  BDP B   2      12.495  11.630   6.9530  0.00  0.00     0.000 OA
ATOM     32   O  BDP B   2      12.130  13.825   7.0180  0.00  0.00     0.000 OA
ENDBRANCH 24 30
BRANCH 20 33
ATOM     33  O3  NAG B   3      14.184  10.396  11.1450  0.00  0.00     0.000 O
BRANCH 33 36
ATOM     34  C1  NAG B   3      11.206   9.062  13.0170  0.00  0.00     0.000 C
ATOM     35  C2  NAG B   3      12.536   9.758  12.8000  0.00  0.00     0.000 C
ATOM     36  C3  NAG B   3      12.843   9.924  11.3040  0.00  0.00     0.000 C
ATOM     37  C4  NAG B   3      12.709   8.573  10.6080  0.00  0.00     0.000 C
ATOM     38  C5  NAG B   3      11.373   7.925  10.9620  0.00  0.00     0.000 C
ATOM     39  O5  NAG B   3      11.256   7.799  12.3690  0.00  0.00     0.000 O
ATOM     40   O  NAG B   3      12.795   8.743   9.1840  0.00  0.00     0.000 O
ATOM     42  HD  NAG B   3      12.041   8.318   9.2120  0.00  0.00     0.000 HD
ATOM     42   C  NAG B   3      11.208   6.510  10.4130  0.00  0.00     0.000 C
ATOM     43   O  NAG B   3      12.159   5.640  11.0380  0.00  0.00     0.000 O
ATOM     45  HD  NAG B   3      11.405   5.214  11.0670  0.00  0.00     0.000 HD
BRANCH 35 47
ATOM     45   N  NAG B   3      13.451  10.187  13.8510  0.00  0.00     0.000 N
ATOM     47  HD  NAG B   3      13.797   9.586  13.3320  0.00  0.00     0.000 HD
ATOM     47   C  NAG B   3      13.533  11.436  14.2650  0.00  0.00     0.000 C
ATOM     48   C  NAG B   3      14.542  11.711  15.3400  0.00  0.00     0.000 C
ATOM     49   O  NAG B   3      12.842  12.329  13.7800  0.00  0.00     0.000 OA
ENDBRANCH 35 47
BRANCH 34 50
ATOM     50  O4  BDP B   4      11.141   8.894  14.4170  0.00  0.00     0.000 O
BRANCH 50 54
ATOM     51  C1  BDP B   4       8.810   7.536  17.4630  0.00  0.00     0.000 C
ATOM     52  C2  BDP B   4       9.635   6.458  16.7700  0.00  0.00     0.000 C
ATOM     53  C3  BDP B   4      10.699   7.122  15.9510  0.00  0.00     0.000 C
ATOM     54  C4  BDP B   4      10.049   8.140  14.9710  0.00  0.00     0.000 C
ATOM     55  C5  BDP B   4       9.074   9.077  15.6720  0.00  0.00     0.000 C
ATOM     56  O5  BDP B   4       8.169   8.335  16.4850  0.00  0.00     0.000 O
ATOM     57   O  BDP B   4      10.240   5.613  17.7260  0.00  0.00     0.000 O
ATOM     59  HD  BDP B   4       9.760   4.893  17.7150  0.00  0.00     0.000 HD
ATOM     59   O  BDP B   4      11.329   6.089  15.1650  0.00  0.00     0.000 O
ATOM     61  HD  BDP B   4      10.849   5.368  15.1530  0.00  0.00     0.000 HD
BRANCH 55 61
ATOM     61   C  BDP B   4       8.288   9.852  14.6310  0.00  0.00     0.000 C
ATOM     62   O  BDP B   4       8.558  11.072  14.4740  0.00  0.00     0.000 OA
ATOM     63   O  BDP B   4       7.399   9.236  13.9660  0.00  0.00     0.000 OA
ENDBRANCH 55 61
BRANCH 51 64
ATOM     64  O3  NAG B   5       7.840   6.865  18.2910  0.00  0.00     0.000 O
BRANCH 64 67
ATOM     65  C1  NAG B   5       6.606   8.362  21.4270  0.00  0.00     0.000 C
ATOM     66  C2  NAG B   5       7.534   7.608  20.4890  0.00  0.00     0.000 C
ATOM     67  C3  NAG B   5       7.058   7.766  19.0510  0.00  0.00     0.000 C
ATOM     68  C4  NAG B   5       5.575   7.393  18.9170  0.00  0.00     0.000 C
ATOM     69  C5  NAG B   5       4.741   8.126  19.9550  0.00  0.00     0.000 C
ATOM     70  O5  NAG B   5       5.283   7.904  21.2650  0.00  0.00     0.000 O
ATOM     71   O  NAG B   5       5.149   7.701  17.6070  0.00  0.00     0.000 O
ATOM     73  HD  NAG B   5       4.749   6.936  17.6880  0.00  0.00     0.000 HD
ATOM     73   C  NAG B   5       3.261   7.719  19.9800  0.00  0.00     0.000 C
ATOM     74   O  NAG B   5       3.147   6.333  20.3630  0.00  0.00     0.000 O
ATOM     76  HD  NAG B   5       2.748   5.569  20.4440  0.00  0.00     0.000 HD
BRANCH 66 78
ATOM     76   N  NAG B   5       8.840   8.137  20.9270  0.00  0.00     0.000 N
ATOM     78  HD  NAG B   5       8.491   7.363  20.7560  0.00  0.00     0.000 HD
ATOM     78   C  NAG B   5       9.990   7.447  20.9900  0.00  0.00     0.000 C
ATOM     79   C  NAG B   5      11.159   8.271  21.4580  0.00  0.00     0.000 C
ATOM     80   O  NAG B   5      10.081   6.203  20.6900  0.00  0.00     0.000 OA
ENDBRANCH 66 78
BRANCH 65 81
ATOM     81  O4  BDP B   6       7.023   8.178  22.7860  0.00  0.00     0.000 O
BRANCH 81 85
ATOM     82  C1  BDP B   6       6.622  10.099  26.5950  0.00  0.00     0.000 C
ATOM     83  C2  BDP B   6       5.532   9.114  26.1840  0.00  0.00     0.000 C
ATOM     84  C3  BDP B   6       5.960   8.198  25.0350  0.00  0.00     0.000 C
ATOM     85  C4  BDP B   6       6.521   8.989  23.8510  0.00  0.00     0.000 C
ATOM     86  C5  BDP B   6       7.585   9.971  24.3970  0.00  0.00     0.000 C
ATOM     87  O5  BDP B   6       7.046  10.829  25.4530  0.00  0.00     0.000 O
ATOM     88   O  BDP B   6       5.268   8.331  27.3450  0.00  0.00     0.000 O
ATOM     90  HD  BDP B   6       5.118   7.510  27.5770  0.00  0.00     0.000 HD
ATOM     90   O  BDP B   6       4.855   7.386  24.6300  0.00  0.00     0.000 O
ATOM     92  HD  BDP B   6       4.704   6.565  24.8620  0.00  0.00     0.000 HD
BRANCH 86 92
ATOM     92   C  BDP B   6       8.008  10.944  23.3230  0.00  0.00     0.000 C
ATOM     93   O  BDP B   6       9.098  10.755  22.7040  0.00  0.00     0.000 OA
ATOM     94   O  BDP B   6       7.227  11.913  23.0700  0.00  0.00     0.000 OA
ENDBRANCH 86 92
BRANCH 82 95
ATOM     95  O3  NAG B   7       6.058  11.035  27.5340  0.00  0.00     0.000 O
BRANCH 95 98
ATOM     96  C1  NAG B   7       6.876  12.252  30.8790  0.00  0.00     0.000 C
ATOM     97  C2  NAG B   7       5.973  11.731  29.7690  0.00  0.00     0.000 C
ATOM     98  C3  NAG B   7       6.890  11.583  28.5560  0.00  0.00     0.000 C
ATOM     99  C4  NAG B   7       7.496  12.937  28.1950  0.00  0.00     0.000 C
ATOM    100  C5  NAG B   7       8.192  13.563  29.4040  0.00  0.00     0.000 C
ATOM    101  O5  NAG B   7       7.292  13.569  30.5010  0.00  0.00     0.000 O
BRANCH 97 104
ATOM    102   N  NAG B   7       5.396  10.390  29.9340  0.00  0.00     0.000 N
ATOM    104  HD  NAG B   7       5.177   9.563  29.8010  0.00  0.00     0.000 HD
ATOM    104   O  NAG B   7       3.754   8.841  30.1270  0.00  0.00     0.000 OA
ATOM    105   C  NAG B   7       4.102  10.036  30.0510  0.00  0.00     0.000 C
ATOM    106   C  NAG B   7       3.059  11.101  30.0770  0.00  0.00     0.000 C
ENDBRANCH 97 104
ATOM    107   O  NAG B   7       9.545  15.353  30.0900  0.00  0.00     0.000 O
ATOM    109  HD  NAG B   7       9.388  14.507  30.1860  0.00  0.00     0.000 HD
ATOM    109   O  NAG B   7       9.545  15.353  30.0900  0.00  0.00     0.000 O
ATOM    111  HD  NAG B   7       9.388  14.507  30.1860  0.00  0.00     0.000 HD
ENDBRANCH 95 98
ENDBRANCH 82 95
ENDBRANCH 81 85
ENDBRANCH 65 81
ENDBRANCH 64 67
ENDBRANCH 51 64
ENDBRANCH 50 54
ENDBRANCH 34 50
ENDBRANCH 33 36
ENDBRANCH 20 33
ENDBRANCH 19 23
ENDBRANCH 1 19
TORSDOF 19
ENDMDL
MODEL 55
REMARK VINA RESULT:      -4.5     14.942     18.709
ROOT
ATOM      1  C1  NAG B   1      14.765  15.340   8.5330  0.00  0.00     0.000 C
ATOM      2  C2  NAG B   1      15.927  16.045   7.8390  0.00  0.00     0.000 C
ATOM      3  C3  NAG B   1      15.870  17.547   8.0290  0.00  0.00     0.000 C
ATOM      4  C4  NAG B   1      14.515  17.977   7.4760  0.00  0.00     0.000 C
ATOM      5  C5  NAG B   1      13.403  17.330   8.3110  0.00  0.00     0.000 C
ATOM      6  O5  NAG B   1      13.471  15.890   8.2410  0.00  0.00     0.000 O
ATOM      7   O  NAG B   1      16.947  18.225   7.3410  0.00  0.00     0.000 O
ATOM      9  HD  NAG B   1      17.322  17.487   7.5940  0.00  0.00     0.000 HD
ATOM      9   O  NAG B   1      14.394  19.389   7.5270  0.00  0.00     0.000 O
ATOM     11  HD  NAG B   1      14.770  18.651   7.7800  0.00  0.00     0.000 HD
ATOM     11   C  NAG B   1      12.035  17.857   7.8600  0.00  0.00     0.000 C
ATOM     12   O  NAG B   1      11.009  16.892   8.0820  0.00  0.00     0.000 O
ATOM     14  HD  NAG B   1      11.385  16.153   8.3350  0.00  0.00     0.000 HD
ENDROOT
BRANCH 2 16
ATOM     14   N  NAG B   1      16.786  15.091   7.1150  0.00  0.00     0.000 N
ATOM     16  HD  NAG B   1      17.436  15.044   6.5450  0.00  0.00     0.000 HD
ATOM     16   C  NAG B   1      18.042  14.798   7.4960  0.00  0.00     0.000 C
ATOM     17   C  NAG B   1      18.641  15.478   8.6980  0.00  0.00     0.000 C
ATOM     18   O  NAG B   1      18.712  13.958   6.8950  0.00  0.00     0.000 OA
ENDBRANCH 2 16
BRANCH 1 19
ATOM     19  O4  BDP B   2      14.780  14.043   7.9510  0.00  0.00     0.000 O
BRANCH 19 23
ATOM     20  C1  BDP B   2      13.110  12.000  11.1100  0.00  0.00     0.000 C
ATOM     21  C2  BDP B   2      14.574  12.363  11.2430  0.00  0.00     0.000 C
ATOM     22  C3  BDP B   2      14.962  13.444  10.2580  0.00  0.00     0.000 C
ATOM     23  C4  BDP B   2      14.552  12.992   8.8590  0.00  0.00     0.000 C
ATOM     24  C5  BDP B   2      13.071  12.669   8.8470  0.00  0.00     0.000 C
ATOM     25  O5  BDP B   2      12.805  11.632   9.7730  0.00  0.00     0.000 O
ATOM     26   O  BDP B   2      14.855  12.794  12.5570  0.00  0.00     0.000 O
ATOM     28  HD  BDP B   2      14.061  12.466  12.6650  0.00  0.00     0.000 HD
ATOM     28   O  BDP B   2      16.374  13.687  10.3550  0.00  0.00     0.000 O
ATOM     30  HD  BDP B   2      15.580  13.360  10.4630  0.00  0.00     0.000 HD
BRANCH 24 30
ATOM     30   C  BDP B   2      12.607  12.210   7.5120  0.00  0.00     0.000 C
ATOM     31   O  BDP B   2      13.022  11.098   7.1110  0.00  0.00     0.000 OA
ATOM     32   O  BDP B   2      11.833  12.961   6.8530  0.00  0.00     0.000 OA
ENDBRANCH 24 30
BRANCH 20 33
ATOM     33  O3  NAG B   3      12.961  10.877  11.9440  0.00  0.00     0.000 O
BRANCH 33 36
ATOM     34  C1  NAG B   3       9.901   9.988  13.9440  0.00  0.00     0.000 C
ATOM     35  C2  NAG B   3      11.288  10.533  13.6610  0.00  0.00     0.000 C
ATOM     36  C3  NAG B   3      11.585  10.552  12.1530  0.00  0.00     0.000 C
ATOM     37  C4  NAG B   3      11.309   9.169  11.5670  0.00  0.00     0.000 C
ATOM     38  C5  NAG B   3       9.923   8.684  11.9840  0.00  0.00     0.000 C
ATOM     39  O5  NAG B   3       9.818   8.680  13.3970  0.00  0.00     0.000 O
ATOM     40   O  NAG B   3      11.386   9.220  10.1330  0.00  0.00     0.000 O
ATOM     42  HD  NAG B   3      10.595   8.874  10.2020  0.00  0.00     0.000 HD
ATOM     42   C  NAG B   3       9.613   7.254  11.5490  0.00  0.00     0.000 C
ATOM     43   O  NAG B   3      10.486   6.346  12.2320  0.00  0.00     0.000 O
ATOM     45  HD  NAG B   3       9.695   6.000  12.3010  0.00  0.00     0.000 HD
BRANCH 35 47
ATOM     45   N  NAG B   3      11.397  11.833  14.3100  0.00  0.00     0.000 N
ATOM     47  HD  NAG B   3      10.602  11.495  14.3720  0.00  0.00     0.000 HD
ATOM     47   C  NAG B   3      12.467  12.213  14.9790  0.00  0.00     0.000 C
ATOM     48   C  NAG B   3      12.406  13.576  15.6030  0.00  0.00     0.000 C
ATOM     49   O  NAG B   3      13.448  11.484  15.1070  0.00  0.00     0.000 OA
ENDBRANCH 35 47
BRANCH 34 50
ATOM     50  O4  BDP B   4       9.844   9.937  15.3540  0.00  0.00     0.000 O
BRANCH 50 54
ATOM     51  C1  BDP B   4       6.962   9.576  18.2030  0.00  0.00     0.000 C
ATOM     52  C2  BDP B   4       6.494   9.260  16.7870  0.00  0.00     0.000 C
ATOM     53  C3  BDP B   4       7.697   9.064  15.9170  0.00  0.00     0.000 C
ATOM     54  C4  BDP B   4       8.620  10.313  16.0080  0.00  0.00     0.000 C
ATOM     55  C5  BDP B   4       8.905  10.719  17.4480  0.00  0.00     0.000 C
ATOM     56  O5  BDP B   4       7.693  10.789  18.1940  0.00  0.00     0.000 O
ATOM     57   O  BDP B   4       5.715   8.082  16.7800  0.00  0.00     0.000 O
ATOM     59  HD  BDP B   4       4.898   8.362  16.7140  0.00  0.00     0.000 HD
ATOM     59   O  BDP B   4       7.221   8.961  14.5590  0.00  0.00     0.000 O
ATOM     61  HD  BDP B   4       6.404   9.240  14.4930  0.00  0.00     0.000 HD
BRANCH 55 61
ATOM     61   C  BDP B   4       9.578  12.080  17.4600  0.00  0.00     0.000 C
ATOM     62   O  BDP B   4       9.239  12.915  16.5810  0.00  0.00     0.000 OA
ATOM     63   O  BDP B   4      10.446  12.312  18.3560  0.00  0.00     0.000 OA
ENDBRANCH 55 61
BRANCH 51 64
ATOM     64  O3  NAG B   5       5.785   9.694  19.0260  0.00  0.00     0.000 O
BRANCH 64 67
ATOM     65  C1  NAG B   5       5.470   8.083  22.3270  0.00  0.00     0.000 C
ATOM     66  C2  NAG B   5       5.424   8.230  20.8160  0.00  0.00     0.000 C
ATOM     67  C3  NAG B   5       6.068   9.548  20.4040  0.00  0.00     0.000 C
ATOM     68  C4  NAG B   5       5.459  10.725  21.1780  0.00  0.00     0.000 C
ATOM     69  C5  NAG B   5       5.465  10.446  22.6730  0.00  0.00     0.000 C
ATOM     70  O5  NAG B   5       4.835   9.184  22.9370  0.00  0.00     0.000 O
ATOM     71   O  NAG B   5       6.191  11.893  20.8730  0.00  0.00     0.000 O
ATOM     73  HD  NAG B   5       5.397  12.237  20.8440  0.00  0.00     0.000 HD
ATOM     73   C  NAG B   5       4.759  11.515  23.5180  0.00  0.00     0.000 C
ATOM     74   O  NAG B   5       3.357  11.551  23.1800  0.00  0.00     0.000 O
ATOM     76  HD  NAG B   5       2.563  11.895  23.1520  0.00  0.00     0.000 HD
BRANCH 66 78
ATOM     76   N  NAG B   5       6.113   7.043  20.2740  0.00  0.00     0.000 N
ATOM     78  HD  NAG B   5       5.318   7.387  20.2470  0.00  0.00     0.000 HD
ATOM     78   C  NAG B   5       5.632   6.212  19.3360  0.00  0.00     0.000 C
ATOM     79   C  NAG B   5       6.581   5.101  18.9770  0.00  0.00     0.000 C
ATOM     80   O  NAG B   5       4.473   6.347  18.8040  0.00  0.00     0.000 OA
ENDBRANCH 66 78
BRANCH 65 81
ATOM     81  O4  BDP B   6       4.823   6.867  22.7240  0.00  0.00     0.000 O
BRANCH 81 85
ATOM     82  C1  BDP B   6       5.298   3.834  25.7140  0.00  0.00     0.000 C
ATOM     83  C2  BDP B   6       4.279   4.938  25.9840  0.00  0.00     0.000 C
ATOM     84  C3  BDP B   6       3.893   5.714  24.7220  0.00  0.00     0.000 C
ATOM     85  C4  BDP B   6       5.122   6.215  23.9610  0.00  0.00     0.000 C
ATOM     86  C5  BDP B   6       6.090   5.021  23.7800  0.00  0.00     0.000 C
ATOM     87  O5  BDP B   6       6.427   4.394  25.0580  0.00  0.00     0.000 O
ATOM     88   O  BDP B   6       3.131   4.276  26.5070  0.00  0.00     0.000 O
ATOM     90  HD  BDP B   6       2.267   4.288  26.4440  0.00  0.00     0.000 HD
ATOM     90   O  BDP B   6       3.029   6.798  25.0710  0.00  0.00     0.000 O
ATOM     92  HD  BDP B   6       2.165   6.810  25.0080  0.00  0.00     0.000 HD
BRANCH 86 92
ATOM     92   C  BDP B   6       7.421   5.494  23.2490  0.00  0.00     0.000 C
ATOM     93   O  BDP B   6       7.793   5.139  22.0900  0.00  0.00     0.000 OA
ATOM     94   O  BDP B   6       8.110   6.259  23.9930  0.00  0.00     0.000 OA
ENDBRANCH 86 92
BRANCH 82 95
ATOM     95  O3  NAG B   7       5.739   3.304  26.9790  0.00  0.00     0.000 O
BRANCH 95 98
ATOM     96  C1  NAG B   7       6.608  -0.122  27.8990  0.00  0.00     0.000 C
ATOM     97  C2  NAG B   7       5.795   1.165  27.9310  0.00  0.00     0.000 C
ATOM     98  C3  NAG B   7       6.536   2.121  26.9980  0.00  0.00     0.000 C
ATOM     99  C4  NAG B   7       7.958   2.345  27.5060  0.00  0.00     0.000 C
ATOM    100  C5  NAG B   7       8.683   1.013  27.7050  0.00  0.00     0.000 C
ATOM    101  O5  NAG B   7       7.874   0.164  28.5040  0.00  0.00     0.000 O
BRANCH 97 104
ATOM    102   N  NAG B   7       4.358   1.468  27.9820  0.00  0.00     0.000 N
ATOM    104  HD  NAG B   7       3.539   1.544  28.2530  0.00  0.00     0.000 HD
ATOM    104   O  NAG B   7       2.177   1.308  27.3940  0.00  0.00     0.000 OA
ATOM    105   C  NAG B   7       3.370   1.007  27.1920  0.00  0.00     0.000 C
ATOM    106   C  NAG B   7       3.711   0.103  26.0570  0.00  0.00     0.000 C
ENDBRANCH 97 104
ATOM    107   O  NAG B   7      10.760   0.048  28.2120  0.00  0.00     0.000 O
ATOM    109  HD  NAG B   7      10.049  -0.019  27.7230  0.00  0.00     0.000 HD
ATOM    109   O  NAG B   7      10.760   0.048  28.2120  0.00  0.00     0.000 O
ATOM    111  HD  NAG B   7      10.049  -0.019  27.7230  0.00  0.00     0.000 HD
ENDBRANCH 95 98
ENDBRANCH 82 95
ENDBRANCH 81 85
ENDBRANCH 65 81
ENDBRANCH 64 67
ENDBRANCH 51 64
ENDBRANCH 50 54
ENDBRANCH 34 50
ENDBRANCH 33 36
ENDBRANCH 20 33
ENDBRANCH 19 23
ENDBRANCH 1 19
TORSDOF 19
ENDMDL
MODEL 56
REMARK VINA RESULT:      -4.5      2.729      3.511
ROOT
ATOM      1  C1  NAG B   1       7.238  21.284   9.0560  0.00  0.00     0.000 C
ATOM      2  C2  NAG B   1       6.991  22.783   8.9110  0.00  0.00     0.000 C
ATOM      3  C3  NAG B   1       5.528  23.134   9.0960  0.00  0.00     0.000 C
ATOM      4  C4  NAG B   1       4.777  22.317   8.0500  0.00  0.00     0.000 C
ATOM      5  C5  NAG B   1       4.969  20.824   8.3450  0.00  0.00     0.000 C
ATOM      6  O5  NAG B   1       6.363  20.455   8.2760  0.00  0.00     0.000 O
ATOM      7   O  NAG B   1       5.280  24.548   8.9200  0.00  0.00     0.000 O
ATOM      9  HD  NAG B   1       6.065  24.540   9.2870  0.00  0.00     0.000 HD
ATOM      9   O  NAG B   1       3.397  22.638   8.0790  0.00  0.00     0.000 O
ATOM     11  HD  NAG B   1       4.181  22.630   8.4450  0.00  0.00     0.000 HD
ATOM     11   C  NAG B   1       4.112  19.986   7.3890  0.00  0.00     0.000 C
ATOM     12   O  NAG B   1       4.698  18.707   7.1530  0.00  0.00     0.000 O
ATOM     14  HD  NAG B   1       5.482  18.699   7.5200  0.00  0.00     0.000 HD
ENDROOT
BRANCH 2 16
ATOM     14   N  NAG B   1       8.066  23.306   9.7720  0.00  0.00     0.000 N
ATOM     16  HD  NAG B   1       8.924  23.295   9.8870  0.00  0.00     0.000 HD
ATOM     16   C  NAG B   1       8.840  24.351   9.4290  0.00  0.00     0.000 C
ATOM     17   C  NAG B   1       8.644  25.025   8.0970  0.00  0.00     0.000 C
ATOM     18   O  NAG B   1       9.696  24.790  10.1960  0.00  0.00     0.000 OA
ENDBRANCH 2 16
BRANCH 1 19
ATOM     19  O4  BDP B   2       8.536  21.115   8.5020  0.00  0.00     0.000 O
BRANCH 19 23
ATOM     20  C1  BDP B   2      11.537  18.327   8.9010  0.00  0.00     0.000 C
ATOM     21  C2  BDP B   2      10.437  17.995   7.9140  0.00  0.00     0.000 C
ATOM     22  C3  BDP B   2       9.645  19.228   7.5410  0.00  0.00     0.000 C
ATOM     23  C4  BDP B   2       9.155  19.893   8.8250  0.00  0.00     0.000 C
ATOM     24  C5  BDP B   2      10.340  20.187   9.7240  0.00  0.00     0.000 C
ATOM     25  O5  BDP B   2      11.002  18.978  10.0450  0.00  0.00     0.000 O
ATOM     26   O  BDP B   2      10.984  17.411   6.7510  0.00  0.00     0.000 O
ATOM     28  HD  BDP B   2      11.672  17.389   7.2760  0.00  0.00     0.000 HD
ATOM     28   O  BDP B   2       8.560  18.851   6.6800  0.00  0.00     0.000 O
ATOM     30  HD  BDP B   2       9.248  18.828   7.2060  0.00  0.00     0.000 HD
BRANCH 24 30
ATOM     30   C  BDP B   2       9.930  20.827  11.0020  0.00  0.00     0.000 C
ATOM     31   O  BDP B   2      10.521  21.881  11.3320  0.00  0.00     0.000 OA
ATOM     32   O  BDP B   2       9.021  20.276  11.6860  0.00  0.00     0.000 OA
ENDBRANCH 24 30
BRANCH 20 33
ATOM     33  O3  NAG B   3      12.044  17.070   9.2800  0.00  0.00     0.000 O
BRANCH 33 36
ATOM     34  C1  NAG B   3      15.635  15.972   9.5060  0.00  0.00     0.000 C
ATOM     35  C2  NAG B   3      14.224  16.066   8.9580  0.00  0.00     0.000 C
ATOM     36  C3  NAG B   3      13.414  17.152   9.6820  0.00  0.00     0.000 C
ATOM     37  C4  NAG B   3      13.501  16.927  11.1900  0.00  0.00     0.000 C
ATOM     38  C5  NAG B   3      14.957  16.763  11.6170  0.00  0.00     0.000 C
ATOM     39  O5  NAG B   3      15.554  15.698  10.8970  0.00  0.00     0.000 O
ATOM     40   O  NAG B   3      12.921  18.042  11.8860  0.00  0.00     0.000 O
ATOM     42  HD  NAG B   3      13.694  18.040  12.2770  0.00  0.00     0.000 HD
ATOM     42   C  NAG B   3      15.130  16.404  13.0910  0.00  0.00     0.000 C
ATOM     43   O  NAG B   3      14.578  15.104  13.3360  0.00  0.00     0.000 O
ATOM     45  HD  NAG B   3      15.351  15.103  13.7260  0.00  0.00     0.000 HD
BRANCH 35 47
ATOM     45   N  NAG B   3      14.354  16.204   7.5130  0.00  0.00     0.000 N
ATOM     47  HD  NAG B   3      15.120  16.161   7.9150  0.00  0.00     0.000 HD
ATOM     47   C  NAG B   3      13.543  15.611   6.6600  0.00  0.00     0.000 C
ATOM     48   C  NAG B   3      13.829  15.843   5.2060  0.00  0.00     0.000 C
ATOM     49   O  NAG B   3      12.622  14.888   7.0320  0.00  0.00     0.000 OA
ENDBRANCH 35 47
BRANCH 34 50
ATOM     50  O4  BDP B   4      16.188  14.869   8.8190  0.00  0.00     0.000 O
BRANCH 50 54
ATOM     51  C1  BDP B   4      19.655  13.174   7.5300  0.00  0.00     0.000 C
ATOM     52  C2  BDP B   4      19.607  13.455   9.0280  0.00  0.00     0.000 C
ATOM     53  C3  BDP B   4      18.186  13.715   9.4220  0.00  0.00     0.000 C
ATOM     54  C4  BDP B   4      17.600  14.862   8.5500  0.00  0.00     0.000 C
ATOM     55  C5  BDP B   4      17.844  14.642   7.0630  0.00  0.00     0.000 C
ATOM     56  O5  BDP B   4      19.212  14.320   6.8250  0.00  0.00     0.000 O
ATOM     57   O  BDP B   4      20.098  12.346   9.7500  0.00  0.00     0.000 O
ATOM     59  HD  BDP B   4      20.896  12.579   9.9920  0.00  0.00     0.000 HD
ATOM     59   O  BDP B   4      18.206  14.164  10.7920  0.00  0.00     0.000 O
ATOM     61  HD  BDP B   4      19.004  14.397  11.0340  0.00  0.00     0.000 HD
BRANCH 55 61
ATOM     61   C  BDP B   4      17.491  15.909   6.3040  0.00  0.00     0.000 C
ATOM     62   O  BDP B   4      17.282  15.817   5.0660  0.00  0.00     0.000 OA
ATOM     63   O  BDP B   4      17.421  16.997   6.9520  0.00  0.00     0.000 OA
ENDBRANCH 55 61
BRANCH 51 64
ATOM     64  O3  NAG B   5      21.022  12.866   7.1970  0.00  0.00     0.000 O
BRANCH 64 67
ATOM     65  C1  NAG B   5      21.729  10.221   4.7270  0.00  0.00     0.000 C
ATOM     66  C2  NAG B   5      21.344  10.847   6.0560  0.00  0.00     0.000 C
ATOM     67  C3  NAG B   5      21.159  12.350   5.8870  0.00  0.00     0.000 C
ATOM     68  C4  NAG B   5      22.385  12.983   5.2150  0.00  0.00     0.000 C
ATOM     69  C5  NAG B   5      22.749  12.232   3.9430  0.00  0.00     0.000 C
ATOM     70  O5  NAG B   5      22.895  10.833   4.2270  0.00  0.00     0.000 O
ATOM     71   O  NAG B   5      22.102  14.340   4.9440  0.00  0.00     0.000 O
ATOM     73  HD  NAG B   5      22.913  14.441   5.2300  0.00  0.00     0.000 HD
ATOM     73   C  NAG B   5      24.040  12.717   3.2700  0.00  0.00     0.000 C
ATOM     74   O  NAG B   5      25.162  12.477   4.1450  0.00  0.00     0.000 O
ATOM     76  HD  NAG B   5      25.973  12.578   4.4300  0.00  0.00     0.000 HD
BRANCH 66 78
ATOM     76   N  NAG B   5      21.113   9.971   7.2210  0.00  0.00     0.000 N
ATOM     78  HD  NAG B   5      20.642  10.484   6.7070  0.00  0.00     0.000 HD
ATOM     78   C  NAG B   5      19.918   9.583   7.6920  0.00  0.00     0.000 C
ATOM     79   C  NAG B   5      20.011   8.670   8.8850  0.00  0.00     0.000 C
ATOM     80   O  NAG B   5      18.804   9.961   7.1810  0.00  0.00     0.000 OA
ENDBRANCH 66 78
BRANCH 65 81
ATOM     81  O4  BDP B   6      21.949   8.814   4.8910  0.00  0.00     0.000 O
BRANCH 81 85
ATOM     82  C1  BDP B   6      21.601   5.173   2.6590  0.00  0.00     0.000 C
ATOM     83  C2  BDP B   6      22.869   6.001   2.4650  0.00  0.00     0.000 C
ATOM     84  C3  BDP B   6      23.082   7.032   3.5770  0.00  0.00     0.000 C
ATOM     85  C4  BDP B   6      21.838   7.895   3.8020  0.00  0.00     0.000 C
ATOM     86  C5  BDP B   6      20.623   6.949   3.9480  0.00  0.00     0.000 C
ATOM     87  O5  BDP B   6      20.492   6.047   2.8030  0.00  0.00     0.000 O
ATOM     88   O  BDP B   6      23.941   5.062   2.4740  0.00  0.00     0.000 O
ATOM     90  HD  BDP B   6      24.743   4.968   2.7870  0.00  0.00     0.000 HD
ATOM     90   O  BDP B   6      24.219   7.842   3.2680  0.00  0.00     0.000 O
ATOM     92  HD  BDP B   6      25.020   7.747   3.5820  0.00  0.00     0.000 HD
BRANCH 86 92
ATOM     92   C  BDP B   6      19.335   7.736   3.9350  0.00  0.00     0.000 C
ATOM     93   O  BDP B   6      19.052   8.454   2.9290  0.00  0.00     0.000 OA
ATOM     94   O  BDP B   6      18.569   7.624   4.9420  0.00  0.00     0.000 OA
ENDBRANCH 86 92
BRANCH 82 95
ATOM     95  O3  NAG B   7      21.390   4.382   1.4730  0.00  0.00     0.000 O
BRANCH 95 98
ATOM     96  C1  NAG B   7      20.101   1.000   0.9830  0.00  0.00     0.000 C
ATOM     97  C2  NAG B   7      21.121   2.128   0.8980  0.00  0.00     0.000 C
ATOM     98  C3  NAG B   7      20.413   3.342   1.4950  0.00  0.00     0.000 C
ATOM     99  C4  NAG B   7      19.158   3.661   0.6870  0.00  0.00     0.000 C
ATOM    100  C5  NAG B   7      18.254   2.433   0.5740  0.00  0.00     0.000 C
ATOM    101  O5  NAG B   7      19.024   1.338   0.1010  0.00  0.00     0.000 O
BRANCH 97 104
ATOM    102   N  NAG B   7      22.342   2.005   1.7060  0.00  0.00     0.000 N
ATOM    104  HD  NAG B   7      22.976   2.164   2.2740  0.00  0.00     0.000 HD
ATOM    104   O  NAG B   7      24.566   1.861   2.1050  0.00  0.00     0.000 OA
ATOM    105   C  NAG B   7      23.619   1.898   1.2950  0.00  0.00     0.000 C
ATOM    106   C  NAG B   7      23.908   1.837  -0.1660  0.00  0.00     0.000 C
ENDBRANCH 97 104
ATOM    107   O  NAG B   7      16.155   1.690  -0.1650  0.00  0.00     0.000 O
ATOM    109  HD  NAG B   7      16.752   1.620   0.4590  0.00  0.00     0.000 HD
ATOM    109   O  NAG B   7      16.155   1.690  -0.1650  0.00  0.00     0.000 O
ATOM    111  HD  NAG B   7      16.752   1.620   0.4590  0.00  0.00     0.000 HD
ENDBRANCH 95 98
ENDBRANCH 82 95
ENDBRANCH 81 85
ENDBRANCH 65 81
ENDBRANCH 64 67
ENDBRANCH 51 64
ENDBRANCH 50 54
ENDBRANCH 34 50
ENDBRANCH 33 36
ENDBRANCH 20 33
ENDBRANCH 19 23
ENDBRANCH 1 19
TORSDOF 19
ENDMDL
MODEL 57
REMARK VINA RESULT:      -4.5      7.117     11.012
ROOT
ATOM      1  C1  NAG B   1      14.761  20.989  18.7410  0.00  0.00     0.000 C
ATOM      2  C2  NAG B   1      15.101  22.452  19.0080  0.00  0.00     0.000 C
ATOM      3  C3  NAG B   1      16.468  22.821  18.4700  0.00  0.00     0.000 C
ATOM      4  C4  NAG B   1      17.445  21.865  19.1470  0.00  0.00     0.000 C
ATOM      5  C5  NAG B   1      17.117  20.428  18.7230  0.00  0.00     0.000 C
ATOM      6  O5  NAG B   1      15.782  20.057  19.1300  0.00  0.00     0.000 O
ATOM      7   O  NAG B   1      16.813  24.196  18.7530  0.00  0.00     0.000 O
ATOM      9  HD  NAG B   1      15.958  24.241  18.6230  0.00  0.00     0.000 HD
ATOM      9   O  NAG B   1      18.775  22.183  18.7760  0.00  0.00     0.000 O
ATOM     11  HD  NAG B   1      17.921  22.228  18.6460  0.00  0.00     0.000 HD
ATOM     11   C  NAG B   1      18.170  19.463  19.2830  0.00  0.00     0.000 C
ATOM     12   O  NAG B   1      17.619  18.166  19.5020  0.00  0.00     0.000 O
ATOM     14  HD  NAG B   1      16.764  18.211  19.3710  0.00  0.00     0.000 HD
ENDROOT
BRANCH 2 16
ATOM     14   N  NAG B   1      14.054  23.151  19.7750  0.00  0.00     0.000 N
ATOM     16  HD  NAG B   1      13.879  23.894  20.1850  0.00  0.00     0.000 HD
ATOM     16   C  NAG B   1      13.247  24.082  19.2380  0.00  0.00     0.000 C
ATOM     17   C  NAG B   1      13.408  24.473  17.7930  0.00  0.00     0.000 C
ATOM     18   O  NAG B   1      12.351  24.608  19.8980  0.00  0.00     0.000 OA
ENDBRANCH 2 16
BRANCH 1 19
ATOM     19  O4  BDP B   2      13.661  20.748  19.6090  0.00  0.00     0.000 O
BRANCH 19 23
ATOM     20  C1  BDP B   2      12.097  17.613  17.4490  0.00  0.00     0.000 C
ATOM     21  C2  BDP B   2      11.659  19.001  17.0330  0.00  0.00     0.000 C
ATOM     22  C3  BDP B   2      12.587  20.058  17.5880  0.00  0.00     0.000 C
ATOM     23  C4  BDP B   2      12.695  19.862  19.0970  0.00  0.00     0.000 C
ATOM     24  C5  BDP B   2      13.150  18.446  19.3900  0.00  0.00     0.000 C
ATOM     25  O5  BDP B   2      12.211  17.528  18.8630  0.00  0.00     0.000 O
ATOM     26   O  BDP B   2      11.614  19.099  15.6250  0.00  0.00     0.000 O
ATOM     28  HD  BDP B   2      11.703  18.243  15.7210  0.00  0.00     0.000 HD
ATOM     28   O  BDP B   2      12.081  21.359  17.2470  0.00  0.00     0.000 O
ATOM     30  HD  BDP B   2      12.170  20.502  17.3430  0.00  0.00     0.000 HD
BRANCH 24 30
ATOM     30   C  BDP B   2      13.265  18.183  20.8490  0.00  0.00     0.000 C
ATOM     31   O  BDP B   2      14.401  17.899  21.2930  0.00  0.00     0.000 OA
ATOM     32   O  BDP B   2      12.220  18.251  21.5560  0.00  0.00     0.000 OA
ENDBRANCH 24 30
BRANCH 20 33
ATOM     33  O3  NAG B   3      11.046  16.781  17.0200  0.00  0.00     0.000 O
BRANCH 33 36
ATOM     34  C1  NAG B   3      11.705  13.183  16.1420  0.00  0.00     0.000 C
ATOM     35  C2  NAG B   3      11.613  14.685  15.9490  0.00  0.00     0.000 C
ATOM     36  C3  NAG B   3      11.324  15.403  17.2770  0.00  0.00     0.000 C
ATOM     37  C4  NAG B   3      10.104  14.767  17.9390  0.00  0.00     0.000 C
ATOM     38  C5  NAG B   3      10.266  13.251  18.0040  0.00  0.00     0.000 C
ATOM     39  O5  NAG B   3      10.481  12.732  16.7030  0.00  0.00     0.000 O
ATOM     40   O  NAG B   3       9.940  15.288  19.2680  0.00  0.00     0.000 O
ATOM     42  HD  NAG B   3       9.948  14.445  19.4650  0.00  0.00     0.000 HD
ATOM     42   C  NAG B   3       9.035  12.521  18.5340  0.00  0.00     0.000 C
ATOM     43   O  NAG B   3       7.948  12.685  17.6150  0.00  0.00     0.000 O
ATOM     45  HD  NAG B   3       7.956  11.842  17.8130  0.00  0.00     0.000 HD
BRANCH 35 47
ATOM     45   N  NAG B   3      12.815  15.045  15.2070  0.00  0.00     0.000 N
ATOM     47  HD  NAG B   3      12.750  14.192  15.3430  0.00  0.00     0.000 HD
ATOM     47   C  NAG B   3      12.837  15.997  14.2970  0.00  0.00     0.000 C
ATOM     48   C  NAG B   3      14.152  16.226  13.6120  0.00  0.00     0.000 C
ATOM     49   O  NAG B   3      11.833  16.643  14.0050  0.00  0.00     0.000 OA
ENDBRANCH 35 47
BRANCH 34 50
ATOM     50  O4  BDP B   4      11.857  12.687  14.8290  0.00  0.00     0.000 O
BRANCH 50 54
ATOM     51  C1  BDP B   4      13.280   9.562  12.6460  0.00  0.00     0.000 C
ATOM     52  C2  BDP B   4      11.859   9.375  13.1640  0.00  0.00     0.000 C
ATOM     53  C3  BDP B   4      11.332  10.705  13.6100  0.00  0.00     0.000 C
ATOM     54  C4  BDP B   4      12.303  11.331  14.6520  0.00  0.00     0.000 C
ATOM     55  C5  BDP B   4      13.750  11.318  14.1780  0.00  0.00     0.000 C
ATOM     56  O5  BDP B   4      14.105  10.024  13.7000  0.00  0.00     0.000 O
ATOM     57   O  BDP B   4      11.029   8.862  12.1440  0.00  0.00     0.000 O
ATOM     59  HD  BDP B   4      10.936   8.024  12.3390  0.00  0.00     0.000 HD
ATOM     59   O  BDP B   4      10.072  10.459  14.2670  0.00  0.00     0.000 O
ATOM     61  HD  BDP B   4       9.980   9.620  14.4620  0.00  0.00     0.000 HD
BRANCH 55 61
ATOM     61   C  BDP B   4      14.660  11.690  15.3350  0.00  0.00     0.000 C
ATOM     62   O  BDP B   4      15.134  12.856  15.3620  0.00  0.00     0.000 OA
ATOM     63   O  BDP B   4      14.897  10.812  16.2190  0.00  0.00     0.000 OA
ENDBRANCH 55 61
BRANCH 51 64
ATOM     64  O3  NAG B   5      13.732   8.281  12.1670  0.00  0.00     0.000 O
BRANCH 64 67
ATOM     65  C1  NAG B   5      16.150   7.841   9.4180  0.00  0.00     0.000 C
ATOM     66  C2  NAG B   5      14.807   8.027  10.1030  0.00  0.00     0.000 C
ATOM     67  C3  NAG B   5      15.016   8.342  11.5790  0.00  0.00     0.000 C
ATOM     68  C4  NAG B   5      15.930   7.301  12.2400  0.00  0.00     0.000 C
ATOM     69  C5  NAG B   5      17.207   7.117  11.4340  0.00  0.00     0.000 C
ATOM     70  O5  NAG B   5      16.883   6.826  10.0660  0.00  0.00     0.000 O
ATOM     71   O  NAG B   5      16.214   7.720  13.5570  0.00  0.00     0.000 O
ATOM     73  HD  NAG B   5      16.085   6.880  13.7240  0.00  0.00     0.000 HD
ATOM     73   C  NAG B   5      18.126   6.001  11.9510  0.00  0.00     0.000 C
ATOM     74   O  NAG B   5      17.457   4.729  11.8310  0.00  0.00     0.000 O
ATOM     76  HD  NAG B   5      17.328   3.889  11.9970  0.00  0.00     0.000 HD
BRANCH 66 78
ATOM     76   N  NAG B   5      14.171   9.026   9.2220  0.00  0.00     0.000 N
ATOM     78  HD  NAG B   5      13.965   8.260   9.5690  0.00  0.00     0.000 HD
ATOM     78   C  NAG B   5      12.879   9.051   8.8610  0.00  0.00     0.000 C
ATOM     79   C  NAG B   5      12.528  10.209   7.9670  0.00  0.00     0.000 C
ATOM     80   O  NAG B   5      12.027   8.168   9.2350  0.00  0.00     0.000 OA
ENDBRANCH 66 78
BRANCH 65 81
ATOM     81  O4  BDP B   6      15.957   7.499   8.0400  0.00  0.00     0.000 O
BRANCH 81 85
ATOM     82  C1  BDP B   6      18.132   7.701   4.3530  0.00  0.00     0.000 C
ATOM     83  C2  BDP B   6      18.193   6.393   5.1370  0.00  0.00     0.000 C
ATOM     84  C3  BDP B   6      17.088   6.278   6.1900  0.00  0.00     0.000 C
ATOM     85  C4  BDP B   6      17.031   7.510   7.0960  0.00  0.00     0.000 C
ATOM     86  C5  BDP B   6      17.008   8.765   6.1910  0.00  0.00     0.000 C
ATOM     87  O5  BDP B   6      18.140   8.790   5.2640  0.00  0.00     0.000 O
ATOM     88   O  BDP B   6      18.036   5.360   4.1680  0.00  0.00     0.000 O
ATOM     90  HD  BDP B   6      17.628   4.604   4.0580  0.00  0.00     0.000 HD
ATOM     90   O  BDP B   6      17.278   5.087   6.9580  0.00  0.00     0.000 O
ATOM     92  HD  BDP B   6      16.869   4.331   6.8480  0.00  0.00     0.000 HD
BRANCH 86 92
ATOM     92   C  BDP B   6      17.191  10.017   7.0160  0.00  0.00     0.000 C
ATOM     93   O  BDP B   6      16.177  10.708   7.3340  0.00  0.00     0.000 OA
ATOM     94   O  BDP B   6      18.372  10.312   7.3780  0.00  0.00     0.000 OA
ENDBRANCH 86 92
BRANCH 82 95
ATOM     95  O3  NAG B   7      19.316   7.796   3.5370  0.00  0.00     0.000 O
BRANCH 95 98
ATOM     96  C1  NAG B   7      19.865   8.858   0.0860  0.00  0.00     0.000 C
ATOM     97  C2  NAG B   7      19.909   7.907   1.2750  0.00  0.00     0.000 C
ATOM     98  C3  NAG B   7      19.333   8.708   2.4400  0.00  0.00     0.000 C
ATOM     99  C4  NAG B   7      20.184   9.951   2.6870  0.00  0.00     0.000 C
ATOM    100  C5  NAG B   7      20.335  10.773   1.4060  0.00  0.00     0.000 C
ATOM    101  O5  NAG B   7      20.783   9.922   0.3630  0.00  0.00     0.000 O
BRANCH 97 104
ATOM    102   N  NAG B   7      19.059   6.710   1.2190  0.00  0.00     0.000 N
ATOM    104  HD  NAG B   7      18.466   6.108   1.4100  0.00  0.00     0.000 HD
ATOM    104   O  NAG B   7      18.580   4.496   1.2110  0.00  0.00     0.000 OA
ATOM    105   C  NAG B   7      19.424   5.414   1.1990  0.00  0.00     0.000 C
ATOM    106   C  NAG B   7      20.874   5.071   1.1770  0.00  0.00     0.000 C
ENDBRANCH 97 104
ATOM    107   O  NAG B   7      21.151  12.796   0.5410  0.00  0.00     0.000 O
ATOM    109  HD  NAG B   7      20.507  12.218   0.5040  0.00  0.00     0.000 HD
ATOM    109   O  NAG B   7      21.151  12.796   0.5410  0.00  0.00     0.000 O
ATOM    111  HD  NAG B   7      20.507  12.218   0.5040  0.00  0.00     0.000 HD
ENDBRANCH 95 98
ENDBRANCH 82 95
ENDBRANCH 81 85
ENDBRANCH 65 81
ENDBRANCH 64 67
ENDBRANCH 51 64
ENDBRANCH 50 54
ENDBRANCH 34 50
ENDBRANCH 33 36
ENDBRANCH 20 33
ENDBRANCH 19 23
ENDBRANCH 1 19
TORSDOF 19
ENDMDL
MODEL 58
REMARK VINA RESULT:      -4.4     10.553     17.909
ROOT
ATOM      1  C1  NAG B   1      10.272  18.268  24.9500  0.00  0.00     0.000 C
ATOM      2  C2  NAG B   1      10.714  19.359  25.9210  0.00  0.00     0.000 C
ATOM      3  C3  NAG B   1      10.536  18.936  27.3650  0.00  0.00     0.000 C
ATOM      4  C4  NAG B   1       9.056  18.594  27.5100  0.00  0.00     0.000 C
ATOM      5  C5  NAG B   1       8.724  17.404  26.6000  0.00  0.00     0.000 C
ATOM      6  O5  NAG B   1       8.969  17.725  25.2140  0.00  0.00     0.000 O
ATOM      7   O  NAG B   1      10.916  19.980  28.2900  0.00  0.00     0.000 O
ATOM      9  HD  NAG B   1      11.481  20.089  27.6430  0.00  0.00     0.000 HD
ATOM      9   O  NAG B   1       8.761  18.265  28.8570  0.00  0.00     0.000 O
ATOM     11  HD  NAG B   1       9.326  18.375  28.2090  0.00  0.00     0.000 HD
ATOM     11   C  NAG B   1       7.275  16.956  26.8320  0.00  0.00     0.000 C
ATOM     12   O  NAG B   1       6.720  16.369  25.6560  0.00  0.00     0.000 O
ATOM     14  HD  NAG B   1       7.285  16.479  25.0090  0.00  0.00     0.000 HD
ENDROOT
BRANCH 2 16
ATOM     14   N  NAG B   1      12.031  19.712  25.3610  0.00  0.00     0.000 N
ATOM     16  HD  NAG B   1      12.424  19.967  24.6330  0.00  0.00     0.000 HD
ATOM     16   C  NAG B   1      12.439  20.980  25.1840  0.00  0.00     0.000 C
ATOM     17   C  NAG B   1      11.522  22.121  25.5410  0.00  0.00     0.000 C
ATOM     18   O  NAG B   1      13.565  21.236  24.7600  0.00  0.00     0.000 OA
ENDBRANCH 2 16
BRANCH 1 19
ATOM     19  O4  BDP B   2      10.164  18.960  23.7130  0.00  0.00     0.000 O
BRANCH 19 23
ATOM     20  C1  BDP B   2      10.039  17.840  19.7540  0.00  0.00     0.000 C
ATOM     21  C2  BDP B   2       8.720  17.828  20.4990  0.00  0.00     0.000 C
ATOM     22  C3  BDP B   2       8.804  18.636  21.7740  0.00  0.00     0.000 C
ATOM     23  C4  BDP B   2       9.989  18.129  22.5910  0.00  0.00     0.000 C
ATOM     24  C5  BDP B   2      11.248  18.198  21.7500  0.00  0.00     0.000 C
ATOM     25  O5  BDP B   2      11.093  17.393  20.5970  0.00  0.00     0.000 O
ATOM     26   O  BDP B   2       7.691  18.338  19.6800  0.00  0.00     0.000 O
ATOM     28  HD  BDP B   2       8.323  18.242  19.0960  0.00  0.00     0.000 HD
ATOM     28   O  BDP B   2       7.565  18.519  22.4910  0.00  0.00     0.000 O
ATOM     30  HD  BDP B   2       8.197  18.423  21.9080  0.00  0.00     0.000 HD
BRANCH 24 30
ATOM     30   C  BDP B   2      12.443  17.706  22.4840  0.00  0.00     0.000 C
ATOM     31   O  BDP B   2      12.463  16.494  22.8020  0.00  0.00     0.000 OA
ATOM     32   O  BDP B   2      13.364  18.529  22.7550  0.00  0.00     0.000 OA
ENDBRANCH 24 30
BRANCH 20 33
ATOM     33  O3  NAG B   3       9.852  16.909  18.7160  0.00  0.00     0.000 O
BRANCH 33 36
ATOM     34  C1  NAG B   3      11.666  17.396  15.4560  0.00  0.00     0.000 C
ATOM     35  C2  NAG B   3      10.592  17.584  16.5120  0.00  0.00     0.000 C
ATOM     36  C3  NAG B   3      10.969  16.880  17.8240  0.00  0.00     0.000 C
ATOM     37  C4  NAG B   3      11.330  15.425  17.5320  0.00  0.00     0.000 C
ATOM     38  C5  NAG B   3      12.351  15.351  16.4000  0.00  0.00     0.000 C
ATOM     39  O5  NAG B   3      11.844  16.002  15.2480  0.00  0.00     0.000 O
ATOM     40   O  NAG B   3      11.875  14.809  18.7090  0.00  0.00     0.000 O
ATOM     42  HD  NAG B   3      12.523  14.628  18.1630  0.00  0.00     0.000 HD
ATOM     42   C  NAG B   3      12.673  13.927  15.9520  0.00  0.00     0.000 C
ATOM     43   O  NAG B   3      11.507  13.334  15.3680  0.00  0.00     0.000 O
ATOM     45  HD  NAG B   3      12.155  13.153  14.8220  0.00  0.00     0.000 HD
BRANCH 35 47
ATOM     45   N  NAG B   3      10.347  19.014  16.6490  0.00  0.00     0.000 N
ATOM     47  HD  NAG B   3      11.003  18.838  16.1120  0.00  0.00     0.000 HD
ATOM     47   C  NAG B   3       9.137  19.528  16.7480  0.00  0.00     0.000 C
ATOM     48   C  NAG B   3       9.061  21.022  16.8630  0.00  0.00     0.000 C
ATOM     49   O  NAG B   3       8.128  18.828  16.7210  0.00  0.00     0.000 OA
ENDBRANCH 35 47
BRANCH 34 50
ATOM     50  O4  BDP B   4      11.112  17.999  14.3060  0.00  0.00     0.000 O
BRANCH 50 54
ATOM     51  C1  BDP B   4      11.974  19.832  10.7770  0.00  0.00     0.000 C
ATOM     52  C2  BDP B   4      12.388  18.367  10.8460  0.00  0.00     0.000 C
ATOM     53  C3  BDP B   4      11.696  17.726  12.0090  0.00  0.00     0.000 C
ATOM     54  C4  BDP B   4      12.003  18.526  13.3080  0.00  0.00     0.000 C
ATOM     55  C5  BDP B   4      11.765  20.021  13.1380  0.00  0.00     0.000 C
ATOM     56  O5  BDP B   4      12.401  20.494  11.9540  0.00  0.00     0.000 O
ATOM     57   O  BDP B   4      12.021  17.698   9.6580  0.00  0.00     0.000 O
ATOM     59  HD  BDP B   4      12.761  17.621   9.2130  0.00  0.00     0.000 HD
ATOM     59   O  BDP B   4      12.257  16.406  12.1570  0.00  0.00     0.000 O
ATOM     61  HD  BDP B   4      12.996  16.329  11.7130  0.00  0.00     0.000 HD
BRANCH 55 61
ATOM     61   C  BDP B   4      12.333  20.758  14.3380  0.00  0.00     0.000 C
ATOM     62   O  BDP B   4      13.437  20.369  14.8020  0.00  0.00     0.000 OA
ATOM     63   O  BDP B   4      11.670  21.729  14.8140  0.00  0.00     0.000 OA
ENDBRANCH 55 61
BRANCH 51 64
ATOM     64  O3  NAG B   5      12.605  20.400   9.6130  0.00  0.00     0.000 O
BRANCH 64 67
ATOM     65  C1  NAG B   5      10.704  22.502   7.2550  0.00  0.00     0.000 C
ATOM     66  C2  NAG B   5      11.221  21.240   7.9220  0.00  0.00     0.000 C
ATOM     67  C3  NAG B   5      11.986  21.599   9.1900  0.00  0.00     0.000 C
ATOM     68  C4  NAG B   5      13.061  22.656   8.9040  0.00  0.00     0.000 C
ATOM     69  C5  NAG B   5      12.467  23.838   8.1530  0.00  0.00     0.000 C
ATOM     70  O5  NAG B   5      11.775  23.377   6.9840  0.00  0.00     0.000 O
ATOM     71   O  NAG B   5      13.632  23.063  10.1290  0.00  0.00     0.000 O
ATOM     73  HD  NAG B   5      14.362  23.014   9.6660  0.00  0.00     0.000 HD
ATOM     73   C  NAG B   5      13.496  24.888   7.7120  0.00  0.00     0.000 C
ATOM     74   O  NAG B   5      14.410  24.301   6.7620  0.00  0.00     0.000 O
ATOM     76  HD  NAG B   5      15.140  24.252   6.2990  0.00  0.00     0.000 HD
BRANCH 66 78
ATOM     76   N  NAG B   5      10.837  19.938   7.3420  0.00  0.00     0.000 N
ATOM     78  HD  NAG B   5      10.690  20.378   8.0740  0.00  0.00     0.000 HD
ATOM     78   C  NAG B   5       9.892  19.111   7.8170  0.00  0.00     0.000 C
ATOM     79   C  NAG B   5       9.718  17.864   6.9930  0.00  0.00     0.000 C
ATOM     80   O  NAG B   5       9.211  19.355   8.8760  0.00  0.00     0.000 OA
ENDBRANCH 66 78
BRANCH 65 81
ATOM     81  O4  BDP B   6      10.023  22.173   6.0370  0.00  0.00     0.000 O
BRANCH 81 85
ATOM     82  C1  BDP B   6       6.684  23.450   3.6740  0.00  0.00     0.000 C
ATOM     83  C2  BDP B   6       7.906  24.363   3.7200  0.00  0.00     0.000 C
ATOM     84  C3  BDP B   6       9.162  23.652   4.2320  0.00  0.00     0.000 C
ATOM     85  C4  BDP B   6       8.910  22.932   5.5590  0.00  0.00     0.000 C
ATOM     86  C5  BDP B   6       7.635  22.071   5.3980  0.00  0.00     0.000 C
ATOM     87  O5  BDP B   6       6.490  22.868   4.9550  0.00  0.00     0.000 O
ATOM     88   O  BDP B   6       8.114  24.788   2.3760  0.00  0.00     0.000 O
ATOM     90  HD  BDP B   6       8.755  24.919   1.8090  0.00  0.00     0.000 HD
ATOM     90   O  BDP B   6      10.230  24.594   4.3550  0.00  0.00     0.000 O
ATOM     92  HD  BDP B   6      10.872  24.725   3.7880  0.00  0.00     0.000 HD
BRANCH 86 92
ATOM     92   C  BDP B   6       7.195  21.521   6.7330  0.00  0.00     0.000 C
ATOM     93   O  BDP B   6       7.227  22.268   7.7570  0.00  0.00     0.000 OA
ATOM     94   O  BDP B   6       6.785  20.319   6.7660  0.00  0.00     0.000 OA
ENDBRANCH 86 92
BRANCH 82 95
ATOM     95  O3  NAG B   7       5.527  24.255   3.3740  0.00  0.00     0.000 O
BRANCH 95 98
ATOM     96  C1  NAG B   7       3.044  24.490   0.7060  0.00  0.00     0.000 C
ATOM     97  C2  NAG B   7       4.024  25.015   1.7470  0.00  0.00     0.000 C
ATOM     98  C3  NAG B   7       4.563  23.767   2.4430  0.00  0.00     0.000 C
ATOM     99  C4  NAG B   7       3.415  22.998   3.0930  0.00  0.00     0.000 C
ATOM    100  C5  NAG B   7       2.316  22.693   2.0740  0.00  0.00     0.000 C
ATOM    101  O5  NAG B   7       1.951  23.897   1.4170  0.00  0.00     0.000 O
BRANCH 97 104
ATOM    102   N  NAG B   7       5.228  25.697   1.2540  0.00  0.00     0.000 N
ATOM    104  HD  NAG B   7       6.054  25.907   1.1020  0.00  0.00     0.000 HD
ATOM    104   O  NAG B   7       6.704  27.397   1.0110  0.00  0.00     0.000 OA
ATOM    105   C  NAG B   7       5.616  26.972   1.4460  0.00  0.00     0.000 C
ATOM    106   C  NAG B   7       4.728  27.891   2.2120  0.00  0.00     0.000 C
ENDBRANCH 97 104
ATOM    107   O  NAG B   7       0.303  21.531   1.7540  0.00  0.00     0.000 O
ATOM    109  HD  NAG B   7       1.055  21.761   1.3890  0.00  0.00     0.000 HD
ATOM    109   O  NAG B   7       0.303  21.531   1.7540  0.00  0.00     0.000 O
ATOM    111  HD  NAG B   7       1.055  21.761   1.3890  0.00  0.00     0.000 HD
ENDBRANCH 95 98
ENDBRANCH 82 95
ENDBRANCH 81 85
ENDBRANCH 65 81
ENDBRANCH 64 67
ENDBRANCH 51 64
ENDBRANCH 50 54
ENDBRANCH 34 50
ENDBRANCH 33 36
ENDBRANCH 20 33
ENDBRANCH 19 23
ENDBRANCH 1 19
TORSDOF 19
ENDMDL
MODEL 59
REMARK VINA RESULT:      -4.2      9.993     18.342
ROOT
ATOM      1  C1  NAG B   1      27.243   7.561  12.5020  0.00  0.00     0.000 C
ATOM      2  C2  NAG B   1      28.507   7.142  13.2490  0.00  0.00     0.000 C
ATOM      3  C3  NAG B   1      28.542   7.703  14.6560  0.00  0.00     0.000 C
ATOM      4  C4  NAG B   1      28.437   9.216  14.4950  0.00  0.00     0.000 C
ATOM      5  C5  NAG B   1      27.084   9.561  13.8580  0.00  0.00     0.000 C
ATOM      6  O5  NAG B   1      26.960   8.968  12.5480  0.00  0.00     0.000 O
ATOM      7   O  NAG B   1      29.755   7.342  15.3560  0.00  0.00     0.000 O
ATOM      9  HD  NAG B   1      29.604   6.641  14.8700  0.00  0.00     0.000 HD
ATOM      9   O  NAG B   1      28.549   9.850  15.7580  0.00  0.00     0.000 O
ATOM     11  HD  NAG B   1      28.398   9.149  15.2720  0.00  0.00     0.000 HD
ATOM     11   C  NAG B   1      26.900  11.083  13.8130  0.00  0.00     0.000 C
ATOM     12   O  NAG B   1      26.070  11.472  12.7200  0.00  0.00     0.000 O
ATOM     14  HD  NAG B   1      25.919  10.771  12.2340  0.00  0.00     0.000 HD
ENDROOT
BRANCH 2 16
ATOM     14   N  NAG B   1      29.419   6.342  12.4120  0.00  0.00     0.000 N
ATOM     16  HD  NAG B   1      30.214   5.999  12.3920  0.00  0.00     0.000 HD
ATOM     16   C  NAG B   1      29.627   5.028  12.6000  0.00  0.00     0.000 C
ATOM     17   C  NAG B   1      28.932   4.311  13.7270  0.00  0.00     0.000 C
ATOM     18   O  NAG B   1      30.358   4.383  11.8490  0.00  0.00     0.000 OA
ENDBRANCH 2 16
BRANCH 1 19
ATOM     19  O4  BDP B   2      27.557   7.269  11.1470  0.00  0.00     0.000 O
BRANCH 19 23
ATOM     20  C1  BDP B   2      23.659   6.841   9.8960  0.00  0.00     0.000 C
ATOM     21  C2  BDP B   2      24.321   5.606  10.4700  0.00  0.00     0.000 C
ATOM     22  C3  BDP B   2      25.556   5.965  11.2640  0.00  0.00     0.000 C
ATOM     23  C4  BDP B   2      26.469   6.811  10.3800  0.00  0.00     0.000 C
ATOM     24  C5  BDP B   2      25.704   8.019   9.8760  0.00  0.00     0.000 C
ATOM     25  O5  BDP B   2      24.585   7.591   9.1220  0.00  0.00     0.000 O
ATOM     26   O  BDP B   2      23.415   4.903  11.2930  0.00  0.00     0.000 O
ATOM     28  HD  BDP B   2      22.877   5.463  10.9090  0.00  0.00     0.000 HD
ATOM     28   O  BDP B   2      26.200   4.761  11.7080  0.00  0.00     0.000 O
ATOM     30  HD  BDP B   2      25.662   5.320  11.3240  0.00  0.00     0.000 HD
BRANCH 24 30
ATOM     30   C  BDP B   2      26.535   8.883   8.9960  0.00  0.00     0.000 C
ATOM     31   O  BDP B   2      26.719  10.066   9.3610  0.00  0.00     0.000 OA
ATOM     32   O  BDP B   2      27.001   8.385   7.9310  0.00  0.00     0.000 OA
ENDBRANCH 24 30
BRANCH 20 33
ATOM     33  O3  NAG B   3      22.658   6.329   9.0490  0.00  0.00     0.000 O
BRANCH 33 36
ATOM     34  C1  NAG B   3      19.448   8.237   8.5960  0.00  0.00     0.000 C
ATOM     35  C2  NAG B   3      20.449   7.299   9.2450  0.00  0.00     0.000 C
ATOM     36  C3  NAG B   3      21.813   7.364   8.5420  0.00  0.00     0.000 C
ATOM     37  C4  NAG B   3      21.620   7.154   7.0420  0.00  0.00     0.000 C
ATOM     38  C5  NAG B   3      20.534   8.087   6.5130  0.00  0.00     0.000 C
ATOM     39  O5  NAG B   3      19.327   7.879   7.2270  0.00  0.00     0.000 O
ATOM     40   O  NAG B   3      22.850   7.410   6.3480  0.00  0.00     0.000 O
ATOM     42  HD  NAG B   3      22.341   7.949   5.9000  0.00  0.00     0.000 HD
ATOM     42   C  NAG B   3      20.182   7.854   5.0460  0.00  0.00     0.000 C
ATOM     43   O  NAG B   3      19.588   6.559   4.8950  0.00  0.00     0.000 O
ATOM     45  HD  NAG B   3      19.079   7.098   4.4480  0.00  0.00     0.000 HD
BRANCH 35 47
ATOM     45   N  NAG B   3      20.125   6.432  10.3710  0.00  0.00     0.000 N
ATOM     47  HD  NAG B   3      20.295   5.989   9.6470  0.00  0.00     0.000 HD
ATOM     47   C  NAG B   3      20.517   6.682  11.6050  0.00  0.00     0.000 C
ATOM     48   C  NAG B   3      20.115   5.677  12.6420  0.00  0.00     0.000 C
ATOM     49   O  NAG B   3      21.196   7.668  11.8850  0.00  0.00     0.000 OA
ENDBRANCH 35 47
BRANCH 34 50
ATOM     50  O4  BDP B   4      18.244   7.967   9.2840  0.00  0.00     0.000 O
BRANCH 50 54
ATOM     51  C1  BDP B   4      14.929   9.644  10.9410  0.00  0.00     0.000 C
ATOM     52  C2  BDP B   4      14.920   9.600   9.4180  0.00  0.00     0.000 C
ATOM     53  C3  BDP B   4      15.981   8.648   8.9590  0.00  0.00     0.000 C
ATOM     54  C4  BDP B   4      17.353   9.060   9.5670  0.00  0.00     0.000 C
ATOM     55  C5  BDP B   4      17.275   9.289  11.0700  0.00  0.00     0.000 C
ATOM     56  O5  BDP B   4      16.178  10.140  11.3880  0.00  0.00     0.000 O
ATOM     57   O  BDP B   4      13.663   9.161   8.9470  0.00  0.00     0.000 O
ATOM     59  HD  BDP B   4      13.269   9.882   8.6740  0.00  0.00     0.000 HD
ATOM     59   O  BDP B   4      16.073   8.780   7.5260  0.00  0.00     0.000 O
ATOM     61  HD  BDP B   4      15.678   9.501   7.2520  0.00  0.00     0.000 HD
BRANCH 55 61
ATOM     61   C  BDP B   4      18.563   9.938  11.5450  0.00  0.00     0.000 C
ATOM     62   O  BDP B   4      18.971   9.663  12.7040  0.00  0.00     0.000 OA
ATOM     63   O  BDP B   4      19.168  10.724  10.7530  0.00  0.00     0.000 OA
ENDBRANCH 55 61
BRANCH 51 64
ATOM     64  O3  NAG B   5      13.857  10.516  11.3500  0.00  0.00     0.000 O
BRANCH 64 67
ATOM     65  C1  NAG B   5      11.732   9.963  14.3120  0.00  0.00     0.000 C
ATOM     66  C2  NAG B   5      12.199   9.867  12.8700  0.00  0.00     0.000 C
ATOM     67  C3  NAG B   5      13.601  10.449  12.7390  0.00  0.00     0.000 C
ATOM     68  C4  NAG B   5      13.669  11.860  13.3390  0.00  0.00     0.000 C
ATOM     69  C5  NAG B   5      13.095  11.874  14.7470  0.00  0.00     0.000 C
ATOM     70  O5  NAG B   5      11.779  11.303  14.7440  0.00  0.00     0.000 O
ATOM     71   O  NAG B   5      15.014  12.290  13.3310  0.00  0.00     0.000 O
ATOM     73  HD  NAG B   5      14.648  13.032  13.0720  0.00  0.00     0.000 HD
ATOM     73   C  NAG B   5      13.006  13.270  15.3800  0.00  0.00     0.000 C
ATOM     74   O  NAG B   5      12.085  14.085  14.6250  0.00  0.00     0.000 O
ATOM     76  HD  NAG B   5      11.720  14.826  14.3670  0.00  0.00     0.000 HD
BRANCH 66 78
ATOM     76   N  NAG B   5      12.030   8.433  12.5630  0.00  0.00     0.000 N
ATOM     78  HD  NAG B   5      11.770   9.191  12.2330  0.00  0.00     0.000 HD
ATOM     78   C  NAG B   5      11.507   7.924  11.4360  0.00  0.00     0.000 C
ATOM     79   C  NAG B   5      11.486   6.419  11.4120  0.00  0.00     0.000 C
ATOM     80   O  NAG B   5      11.061   8.649  10.4770  0.00  0.00     0.000 OA
ENDBRANCH 66 78
BRANCH 65 81
ATOM     81  O4  BDP B   6      10.396   9.458  14.4320  0.00  0.00     0.000 O
BRANCH 81 85
ATOM     82  C1  BDP B   6       7.721   7.947  17.4190  0.00  0.00     0.000 C
ATOM     83  C2  BDP B   6       7.868   9.461  17.3050  0.00  0.00     0.000 C
ATOM     84  C3  BDP B   6       8.501   9.900  15.9820  0.00  0.00     0.000 C
ATOM     85  C4  BDP B   6       9.808   9.155  15.6990  0.00  0.00     0.000 C
ATOM     86  C5  BDP B   6       9.542   7.642  15.8800  0.00  0.00     0.000 C
ATOM     87  O5  BDP B   6       8.986   7.339  17.2000  0.00  0.00     0.000 O
ATOM     88   O  BDP B   6       6.543   9.979  17.3930  0.00  0.00     0.000 O
ATOM     90  HD  BDP B   6       6.035  10.580  17.0300  0.00  0.00     0.000 HD
ATOM     90   O  BDP B   6       8.710  11.314  15.9950  0.00  0.00     0.000 O
ATOM     92  HD  BDP B   6       8.202  11.915  15.6320  0.00  0.00     0.000 HD
BRANCH 86 92
ATOM     92   C  BDP B   6      10.838   6.869  15.8490  0.00  0.00     0.000 C
ATOM     93   O  BDP B   6      11.533   6.773  16.9060  0.00  0.00     0.000 OA
ATOM     94   O  BDP B   6      11.168   6.321  14.7510  0.00  0.00     0.000 OA
ENDBRANCH 86 92
BRANCH 82 95
ATOM     95  O3  NAG B   7       7.306   7.631  18.7630  0.00  0.00     0.000 O
BRANCH 95 98
ATOM     96  C1  NAG B   7       4.610   5.738  20.3400  0.00  0.00     0.000 C
ATOM     97  C2  NAG B   7       5.561   6.912  20.1490  0.00  0.00     0.000 C
ATOM     98  C3  NAG B   7       6.458   6.505  18.9820  0.00  0.00     0.000 C
ATOM     99  C4  NAG B   7       7.213   5.225  19.3300  0.00  0.00     0.000 C
ATOM    100  C5  NAG B   7       6.247   4.121  19.7620  0.00  0.00     0.000 C
ATOM    101  O5  NAG B   7       5.397   4.626  20.7800  0.00  0.00     0.000 O
BRANCH 97 104
ATOM    102   N  NAG B   7       4.976   8.190  19.7190  0.00  0.00     0.000 N
ATOM    104  HD  NAG B   7       4.801   8.908  19.2670  0.00  0.00     0.000 HD
ATOM    104   O  NAG B   7       4.471  10.394  19.8440  0.00  0.00     0.000 OA
ATOM    105   C  NAG B   7       4.958   9.371  20.3650  0.00  0.00     0.000 C
ATOM    106   C  NAG B   7       5.548   9.459  21.7310  0.00  0.00     0.000 C
ENDBRANCH 97 104
ATOM    107   O  NAG B   7       6.101   1.847  20.3220  0.00  0.00     0.000 O
ATOM    109  HD  NAG B   7       5.712   2.501  19.9090  0.00  0.00     0.000 HD
ATOM    109   O  NAG B   7       6.101   1.847  20.3220  0.00  0.00     0.000 O
ATOM    111  HD  NAG B   7       5.712   2.501  19.9090  0.00  0.00     0.000 HD
ENDBRANCH 95 98
ENDBRANCH 82 95
ENDBRANCH 81 85
ENDBRANCH 65 81
ENDBRANCH 64 67
ENDBRANCH 51 64
ENDBRANCH 50 54
ENDBRANCH 34 50
ENDBRANCH 33 36
ENDBRANCH 20 33
ENDBRANCH 19 23
ENDBRANCH 1 19
TORSDOF 19
ENDMDL
MODEL 60
REMARK VINA RESULT:      -4.2      5.766     18.798
ROOT
ATOM      1  C1  NAG B   1      28.011   5.302  11.0010  0.00  0.00     0.000 C
ATOM      2  C2  NAG B   1      28.675   5.416  12.3700  0.00  0.00     0.000 C
ATOM      3  C3  NAG B   1      29.333   4.117  12.7880  0.00  0.00     0.000 C
ATOM      4  C4  NAG B   1      28.222   3.072  12.7660  0.00  0.00     0.000 C
ATOM      5  C5  NAG B   1      27.699   2.924  11.3310  0.00  0.00     0.000 C
ATOM      6  O5  NAG B   1      27.145   4.166  10.8480  0.00  0.00     0.000 O
ATOM      7   O  NAG B   1      29.930   4.206  14.1010  0.00  0.00     0.000 O
ATOM      9  HD  NAG B   1      30.059   5.001  13.7840  0.00  0.00     0.000 HD
ATOM      9   O  NAG B   1      28.715   1.826  13.2290  0.00  0.00     0.000 O
ATOM     11  HD  NAG B   1      28.843   2.621  12.9110  0.00  0.00     0.000 HD
ATOM     11   C  NAG B   1      26.678   1.781  11.2620  0.00  0.00     0.000 C
ATOM     12   O  NAG B   1      25.723   2.003  10.2250  0.00  0.00     0.000 O
ATOM     14  HD  NAG B   1      25.851   2.799   9.9080  0.00  0.00     0.000 HD
ENDROOT
BRANCH 2 16
ATOM     14   N  NAG B   1      28.576   6.630  13.2000  0.00  0.00     0.000 N
ATOM     16  HD  NAG B   1      28.894   7.006  13.9120  0.00  0.00     0.000 HD
ATOM     16   C  NAG B   1      29.458   7.642  13.1310  0.00  0.00     0.000 C
ATOM     17   C  NAG B   1      30.632   7.552  12.1920  0.00  0.00     0.000 C
ATOM     18   O  NAG B   1      29.315   8.662  13.8050  0.00  0.00     0.000 OA
ENDBRANCH 2 16
BRANCH 1 19
ATOM     19  O4  BDP B   2      27.167   6.445  10.9540  0.00  0.00     0.000 O
BRANCH 19 23
ATOM     20  C1  BDP B   2      23.188   7.148  10.1680  0.00  0.00     0.000 C
ATOM     21  C2  BDP B   2      23.506   6.479  11.4900  0.00  0.00     0.000 C
ATOM     22  C3  BDP B   2      24.963   6.651  11.8550  0.00  0.00     0.000 C
ATOM     23  C4  BDP B   2      25.814   6.164  10.6860  0.00  0.00     0.000 C
ATOM     24  C5  BDP B   2      25.417   6.909   9.4270  0.00  0.00     0.000 C
ATOM     25  O5  BDP B   2      24.051   6.669   9.1460  0.00  0.00     0.000 O
ATOM     26   O  BDP B   2      22.692   7.009  12.5140  0.00  0.00     0.000 O
ATOM     28  HD  BDP B   2      22.301   7.340  11.8160  0.00  0.00     0.000 HD
ATOM     28   O  BDP B   2      25.237   5.924  13.0630  0.00  0.00     0.000 O
ATOM     30  HD  BDP B   2      24.845   6.254  12.3640  0.00  0.00     0.000 HD
BRANCH 24 30
ATOM     30   C  BDP B   2      26.203   6.473   8.2440  0.00  0.00     0.000 C
ATOM     31   O  BDP B   2      26.934   7.328   7.6930  0.00  0.00     0.000 OA
ATOM     32   O  BDP B   2      26.089   5.276   7.8540  0.00  0.00     0.000 OA
ENDBRANCH 24 30
BRANCH 20 33
ATOM     33  O3  NAG B   3      21.871   6.742   9.8890  0.00  0.00     0.000 O
BRANCH 33 36
ATOM     34  C1  NAG B   3      19.622   8.879   7.7610  0.00  0.00     0.000 C
ATOM     35  C2  NAG B   3      20.321   8.383   9.0120  0.00  0.00     0.000 C
ATOM     36  C3  NAG B   3      21.383   7.324   8.6780  0.00  0.00     0.000 C
ATOM     37  C4  NAG B   3      20.752   6.229   7.8210  0.00  0.00     0.000 C
ATOM     38  C5  NAG B   3      20.006   6.844   6.6410  0.00  0.00     0.000 C
ATOM     39  O5  NAG B   3      19.033   7.763   7.1090  0.00  0.00     0.000 O
ATOM     40   O  NAG B   3      21.770   5.341   7.3330  0.00  0.00     0.000 O
ATOM     42  HD  NAG B   3      21.408   5.544   6.5730  0.00  0.00     0.000 HD
ATOM     42   C  NAG B   3      19.234   5.829   5.8020  0.00  0.00     0.000 C
ATOM     43   O  NAG B   3      18.176   5.264   6.5870  0.00  0.00     0.000 O
ATOM     45  HD  NAG B   3      17.815   5.468   5.8260  0.00  0.00     0.000 HD
BRANCH 35 47
ATOM     45   N  NAG B   3      20.061   8.753  10.3980  0.00  0.00     0.000 N
ATOM     47  HD  NAG B   3      19.978   7.902  10.2590  0.00  0.00     0.000 HD
ATOM     47   C  NAG B   3      20.744   9.685  11.0320  0.00  0.00     0.000 C
ATOM     48   C  NAG B   3      20.360   9.928  12.4620  0.00  0.00     0.000 C
ATOM     49   O  NAG B   3      21.660  10.301  10.4930  0.00  0.00     0.000 OA
ENDBRANCH 35 47
BRANCH 34 50
ATOM     50  O4  BDP B   4      18.622   9.743   8.2570  0.00  0.00     0.000 O
BRANCH 50 54
ATOM     51  C1  BDP B   4      16.092  12.774   7.2740  0.00  0.00     0.000 C
ATOM     52  C2  BDP B   4      15.607  11.388   6.8630  0.00  0.00     0.000 C
ATOM     53  C3  BDP B   4      16.415  10.361   7.5960  0.00  0.00     0.000 C
ATOM     54  C4  BDP B   4      17.930  10.599   7.3320  0.00  0.00     0.000 C
ATOM     55  C5  BDP B   4      18.337  12.049   7.5620  0.00  0.00     0.000 C
ATOM     56  O5  BDP B   4      17.445  12.930   6.8860  0.00  0.00     0.000 O
ATOM     57   O  BDP B   4      14.243  11.229   7.1900  0.00  0.00     0.000 O
ATOM     59  HD  BDP B   4      13.826  11.317   6.4350  0.00  0.00     0.000 HD
ATOM     59   O  BDP B   4      16.064   9.076   7.0410  0.00  0.00     0.000 O
ATOM     61  HD  BDP B   4      15.648   9.165   6.2870  0.00  0.00     0.000 HD
BRANCH 55 61
ATOM     61   C  BDP B   4      19.745  12.263   7.0360  0.00  0.00     0.000 C
ATOM     62   O  BDP B   4      19.947  12.098   5.8040  0.00  0.00     0.000 OA
ATOM     63   O  BDP B   4      20.649  12.600   7.8600  0.00  0.00     0.000 OA
ENDBRANCH 55 61
BRANCH 51 64
ATOM     64  O3  NAG B   5      15.254  13.735   6.6030  0.00  0.00     0.000 O
BRANCH 64 67
ATOM     65  C1  NAG B   5      13.895  16.780   8.1750  0.00  0.00     0.000 C
ATOM     66  C2  NAG B   5      13.971  15.326   7.7450  0.00  0.00     0.000 C
ATOM     67  C3  NAG B   5      15.349  15.028   7.1680  0.00  0.00     0.000 C
ATOM     68  C4  NAG B   5      15.718  16.038   6.0720  0.00  0.00     0.000 C
ATOM     69  C5  NAG B   5      15.522  17.462   6.5670  0.00  0.00     0.000 C
ATOM     70  O5  NAG B   5      14.193  17.621   7.0840  0.00  0.00     0.000 O
ATOM     71   O  NAG B   5      17.056  15.812   5.6820  0.00  0.00     0.000 O
ATOM     73  HD  NAG B   5      16.720  15.938   4.8940  0.00  0.00     0.000 HD
ATOM     73   C  NAG B   5      15.745  18.539   5.4960  0.00  0.00     0.000 C
ATOM     74   O  NAG B   5      14.758  18.397   4.4530  0.00  0.00     0.000 O
ATOM     76  HD  NAG B   5      14.422  18.523   3.6650  0.00  0.00     0.000 HD
BRANCH 66 78
ATOM     76   N  NAG B   5      13.610  14.570   8.9600  0.00  0.00     0.000 N
ATOM     78  HD  NAG B   5      13.320  14.646   8.1470  0.00  0.00     0.000 HD
ATOM     78   C  NAG B   5      12.736  13.554   9.0260  0.00  0.00     0.000 C
ATOM     79   C  NAG B   5      12.595  12.973  10.4070  0.00  0.00     0.000 C
ATOM     80   O  NAG B   5      12.077  13.125   8.0120  0.00  0.00     0.000 OA
ENDBRANCH 66 78
BRANCH 65 81
ATOM     81  O4  BDP B   6      12.585  17.078   8.6760  0.00  0.00     0.000 O
BRANCH 81 85
ATOM     82  C1  BDP B   6      10.703  19.846  11.3510  0.00  0.00     0.000 C
ATOM     83  C2  BDP B   6      10.789  20.236   9.8790  0.00  0.00     0.000 C
ATOM     84  C3  BDP B   6      11.091  19.046   8.9640  0.00  0.00     0.000 C
ATOM     85  C4  BDP B   6      12.312  18.255   9.4400  0.00  0.00     0.000 C
ATOM     86  C5  BDP B   6      12.124  17.951  10.9450  0.00  0.00     0.000 C
ATOM     87  O5  BDP B   6      11.895  19.169  11.7240  0.00  0.00     0.000 O
ATOM     88   O  BDP B   6       9.511  20.775   9.5530  0.00  0.00     0.000 O
ATOM     90  HD  BDP B   6       8.922  20.758   8.9180  0.00  0.00     0.000 HD
ATOM     90   O  BDP B   6      11.270  19.505   7.6220  0.00  0.00     0.000 O
ATOM     92  HD  BDP B   6      10.680  19.488   6.9880  0.00  0.00     0.000 HD
BRANCH 86 92
ATOM     92   C  BDP B   6      13.393  17.382  11.5330  0.00  0.00     0.000 C
ATOM     93   O  BDP B   6      14.361  18.158  11.7970  0.00  0.00     0.000 OA
ATOM     94   O  BDP B   6      13.426  16.133  11.7610  0.00  0.00     0.000 OA
ENDBRANCH 86 92
BRANCH 82 95
ATOM     95  O3  NAG B   7      10.616  21.052  12.1360  0.00  0.00     0.000 O
BRANCH 95 98
ATOM     96  C1  NAG B   7       8.613  21.985  15.0440  0.00  0.00     0.000 C
ATOM     97  C2  NAG B   7       9.151  22.110  13.6250  0.00  0.00     0.000 C
ATOM     98  C3  NAG B   7      10.160  20.972  13.4850  0.00  0.00     0.000 C
ATOM     99  C4  NAG B   7      11.270  21.133  14.5200  0.00  0.00     0.000 C
ATOM    100  C5  NAG B   7      10.690  21.255  15.9300  0.00  0.00     0.000 C
ATOM    101  O5  NAG B   7       9.699  22.271  15.9330  0.00  0.00     0.000 O
BRANCH 97 104
ATOM    102   N  NAG B   7       8.203  21.885  12.5250  0.00  0.00     0.000 N
ATOM    104  HD  NAG B   7       7.821  21.566  11.8160  0.00  0.00     0.000 HD
ATOM    104   O  NAG B   7       7.030  22.387  10.6540  0.00  0.00     0.000 OA
ATOM    105   C  NAG B   7       7.803  22.741  11.5660  0.00  0.00     0.000 C
ATOM    106   C  NAG B   7       8.309  24.143  11.5880  0.00  0.00     0.000 C
ENDBRANCH 97 104
ATOM    107   O  NAG B   7      11.252  21.349  18.2050  0.00  0.00     0.000 O
ATOM    109  HD  NAG B   7      10.687  21.038  17.6280  0.00  0.00     0.000 HD
ATOM    109   O  NAG B   7      11.252  21.349  18.2050  0.00  0.00     0.000 O
ATOM    111  HD  NAG B   7      10.687  21.038  17.6280  0.00  0.00     0.000 HD
ENDBRANCH 95 98
ENDBRANCH 82 95
ENDBRANCH 81 85
ENDBRANCH 65 81
ENDBRANCH 64 67
ENDBRANCH 51 64
ENDBRANCH 50 54
ENDBRANCH 34 50
ENDBRANCH 33 36
ENDBRANCH 20 33
ENDBRANCH 19 23
ENDBRANCH 1 19
TORSDOF 19
ENDMDL
MODEL 61
REMARK VINA RESULT:      -4.1      9.848     14.623
ROOT
ATOM      1  C1  NAG B   1      21.664  17.992   6.2400  0.00  0.00     0.000 C
ATOM      2  C2  NAG B   1      22.618  19.175   6.1050  0.00  0.00     0.000 C
ATOM      3  C3  NAG B   1      22.096  20.406   6.8180  0.00  0.00     0.000 C
ATOM      4  C4  NAG B   1      20.730  20.687   6.2000  0.00  0.00     0.000 C
ATOM      5  C5  NAG B   1      19.793  19.508   6.4940  0.00  0.00     0.000 C
ATOM      6  O5  NAG B   1      20.296  18.286   5.9140  0.00  0.00     0.000 O
ATOM      7   O  NAG B   1      22.977  21.542   6.6610  0.00  0.00     0.000 O
ATOM      9  HD  NAG B   1      23.532  20.878   6.6950  0.00  0.00     0.000 HD
ATOM      9   O  NAG B   1      20.186  21.879   6.7400  0.00  0.00     0.000 O
ATOM     11  HD  NAG B   1      20.742  21.216   6.7740  0.00  0.00     0.000 HD
ATOM     11   C  NAG B   1      18.377  19.830   6.0000  0.00  0.00     0.000 C
ATOM     12   O  NAG B   1      17.672  18.643   5.6390  0.00  0.00     0.000 O
ATOM     14  HD  NAG B   1      18.228  17.980   5.6740  0.00  0.00     0.000 HD
ENDROOT
BRANCH 2 16
ATOM     14   N  NAG B   1      23.965  18.809   6.5780  0.00  0.00     0.000 N
ATOM     16  HD  NAG B   1      24.523  18.148   6.6250  0.00  0.00     0.000 HD
ATOM     16   C  NAG B   1      25.032  18.725   5.7640  0.00  0.00     0.000 C
ATOM     17   C  NAG B   1      24.875  18.985   4.2890  0.00  0.00     0.000 C
ATOM     18   O  NAG B   1      26.151  18.464   6.2040  0.00  0.00     0.000 OA
ENDBRANCH 2 16
BRANCH 1 19
ATOM     19  O4  BDP B   2      22.120  17.092   5.2390  0.00  0.00     0.000 O
BRANCH 19 23
ATOM     20  C1  BDP B   2      20.425  13.736   6.9130  0.00  0.00     0.000 C
ATOM     21  C2  BDP B   2      21.820  14.092   7.3840  0.00  0.00     0.000 C
ATOM     22  C3  BDP B   2      22.165  15.523   7.0420  0.00  0.00     0.000 C
ATOM     23  C4  BDP B   2      21.937  15.731   5.5470  0.00  0.00     0.000 C
ATOM     24  C5  BDP B   2      20.510  15.355   5.1980  0.00  0.00     0.000 C
ATOM     25  O5  BDP B   2      20.285  13.997   5.5230  0.00  0.00     0.000 O
ATOM     26   O  BDP B   2      21.931  13.895   8.7770  0.00  0.00     0.000 O
ATOM     28  HD  BDP B   2      21.174  13.504   8.6230  0.00  0.00     0.000 HD
ATOM     28   O  BDP B   2      23.525  15.786   7.4220  0.00  0.00     0.000 O
ATOM     30  HD  BDP B   2      22.768  15.395   7.2670  0.00  0.00     0.000 HD
BRANCH 24 30
ATOM     30   C  BDP B   2      20.223  15.524   3.7490  0.00  0.00     0.000 C
ATOM     31   O  BDP B   2      19.296  16.305   3.4350  0.00  0.00     0.000 OA
ATOM     32   O  BDP B   2      20.918  14.872   2.9190  0.00  0.00     0.000 OA
ENDBRANCH 24 30
BRANCH 20 33
ATOM     33  O3  NAG B   3      20.335  12.349   7.1340  0.00  0.00     0.000 O
BRANCH 33 36
ATOM     34  C1  NAG B   3      17.012  10.756   7.8890  0.00  0.00     0.000 C
ATOM     35  C2  NAG B   3      18.316  11.484   8.1530  0.00  0.00     0.000 C
ATOM     36  C3  NAG B   3      19.027  11.851   6.8410  0.00  0.00     0.000 C
ATOM     37  C4  NAG B   3      19.157  10.604   5.9710  0.00  0.00     0.000 C
ATOM     38  C5  NAG B   3      17.806   9.905   5.8430  0.00  0.00     0.000 C
ATOM     39  O5  NAG B   3      17.300   9.591   7.1290  0.00  0.00     0.000 O
ATOM     40   O  NAG B   3      19.634  10.963   4.6650  0.00  0.00     0.000 O
ATOM     42  HD  NAG B   3      18.923  10.533   4.4220  0.00  0.00     0.000 HD
ATOM     42   C  NAG B   3      17.867   8.575   5.0960  0.00  0.00     0.000 C
ATOM     43   O  NAG B   3      18.639   7.635   5.8530  0.00  0.00     0.000 O
ATOM     45  HD  NAG B   3      17.928   7.205   5.6100  0.00  0.00     0.000 HD
BRANCH 35 47
ATOM     45   N  NAG B   3      18.865  11.772   9.4730  0.00  0.00     0.000 N
ATOM     47  HD  NAG B   3      19.367  11.238   9.0120  0.00  0.00     0.000 HD
ATOM     47   C  NAG B   3      18.781  12.958  10.0410  0.00  0.00     0.000 C
ATOM     48   C  NAG B   3      19.416  13.089  11.3940  0.00  0.00     0.000 C
ATOM     49   O  NAG B   3      18.238  13.910   9.4850  0.00  0.00     0.000 OA
ENDBRANCH 35 47
BRANCH 34 50
ATOM     50  O4  BDP B   4      16.560  10.403   9.1800  0.00  0.00     0.000 O
BRANCH 50 54
ATOM     51  C1  BDP B   4      13.242   9.631  11.4030  0.00  0.00     0.000 C
ATOM     52  C2  BDP B   4      13.300   8.885  10.0750  0.00  0.00     0.000 C
ATOM     53  C3  BDP B   4      14.699   8.957   9.5460  0.00  0.00     0.000 C
ATOM     54  C4  BDP B   4      15.149  10.443   9.4510  0.00  0.00     0.000 C
ATOM     55  C5  BDP B   4      14.889  11.210  10.7400  0.00  0.00     0.000 C
ATOM     56  O5  BDP B   4      13.554  10.995  11.1870  0.00  0.00     0.000 O
ATOM     57   O  BDP B   4      12.937   7.532  10.2570  0.00  0.00     0.000 O
ATOM     59  HD  BDP B   4      12.126   7.482   9.9570  0.00  0.00     0.000 HD
ATOM     59   O  BDP B   4      14.671   8.414   8.2100  0.00  0.00     0.000 O
ATOM     61  HD  BDP B   4      13.860   8.363   7.9100  0.00  0.00     0.000 HD
BRANCH 55 61
ATOM     61   C  BDP B   4      15.099  12.693  10.4910  0.00  0.00     0.000 C
ATOM     62   O  BDP B   4      15.549  13.393  11.4360  0.00  0.00     0.000 OA
ATOM     63   O  BDP B   4      14.814  13.156   9.3440  0.00  0.00     0.000 OA
ENDBRANCH 55 61
BRANCH 51 64
ATOM     64  O3  NAG B   5      11.902   9.488  11.9150  0.00  0.00     0.000 O
BRANCH 64 67
ATOM     65  C1  NAG B   5      10.717   8.302  15.1990  0.00  0.00     0.000 C
ATOM     66  C2  NAG B   5      11.022   8.272  13.7110  0.00  0.00     0.000 C
ATOM     67  C3  NAG B   5      11.858   9.487  13.3290  0.00  0.00     0.000 C
ATOM     68  C4  NAG B   5      11.201  10.785  13.8200  0.00  0.00     0.000 C
ATOM     69  C5  NAG B   5      10.850  10.684  15.2960  0.00  0.00     0.000 C
ATOM     70  O5  NAG B   5      10.065   9.506  15.5320  0.00  0.00     0.000 O
ATOM     71   O  NAG B   5      12.085  11.858  13.5760  0.00  0.00     0.000 O
ATOM     73  HD  NAG B   5      11.351  12.248  13.3310  0.00  0.00     0.000 HD
ATOM     73   C  NAG B   5      10.073  11.890  15.8440  0.00  0.00     0.000 C
ATOM     74   O  NAG B   5       8.790  11.976  15.1900  0.00  0.00     0.000 O
ATOM     76  HD  NAG B   5       8.057  12.366  14.9450  0.00  0.00     0.000 HD
BRANCH 66 78
ATOM     76   N  NAG B   5      11.641   6.946  13.5210  0.00  0.00     0.000 N
ATOM     78  HD  NAG B   5      10.972   7.390  13.1950  0.00  0.00     0.000 HD
ATOM     78   C  NAG B   5      11.370   6.084  12.5290  0.00  0.00     0.000 C
ATOM     79   C  NAG B   5      12.181   4.818  12.5970  0.00  0.00     0.000 C
ATOM     80   O  NAG B   5      10.498   6.313  11.6160  0.00  0.00     0.000 OA
ENDBRANCH 66 78
BRANCH 65 81
ATOM     81  O4  BDP B   6       9.892   7.186  15.5560  0.00  0.00     0.000 O
BRANCH 81 85
ATOM     82  C1  BDP B   6       8.983   4.748  18.9610  0.00  0.00     0.000 C
ATOM     83  C2  BDP B   6       8.257   6.085  18.8360  0.00  0.00     0.000 C
ATOM     84  C3  BDP B   6       8.333   6.674  17.4250  0.00  0.00     0.000 C
ATOM     85  C4  BDP B   6       9.771   6.730  16.9050  0.00  0.00     0.000 C
ATOM     86  C5  BDP B   6      10.407   5.336  17.1160  0.00  0.00     0.000 C
ATOM     87  O5  BDP B   6      10.321   4.902  18.5110  0.00  0.00     0.000 O
ATOM     88   O  BDP B   6       6.898   5.812  19.1670  0.00  0.00     0.000 O
ATOM     90  HD  BDP B   6       6.095   6.008  18.9060  0.00  0.00     0.000 HD
ATOM     90   O  BDP B   6       7.733   7.972  17.4150  0.00  0.00     0.000 O
ATOM     92  HD  BDP B   6       6.931   8.168  17.1540  0.00  0.00     0.000 HD
BRANCH 86 92
ATOM     92   C  BDP B   6      11.892   5.385  16.8460  0.00  0.00     0.000 C
ATOM     93   O  BDP B   6      12.358   4.806  15.8180  0.00  0.00     0.000 OA
ATOM     94   O  BDP B   6      12.615   6.034  17.6630  0.00  0.00     0.000 OA
ENDBRANCH 86 92
BRANCH 82 95
ATOM     95  O3  NAG B   7       9.023   4.381  20.3540  0.00  0.00     0.000 O
BRANCH 95 98
ATOM     96  C1  NAG B   7       9.579   1.140  21.9420  0.00  0.00     0.000 C
ATOM     97  C2  NAG B   7       8.800   2.396  21.5760  0.00  0.00     0.000 C
ATOM     98  C3  NAG B   7       9.773   3.234  20.7490  0.00  0.00     0.000 C
ATOM     99  C4  NAG B   7      11.009   3.566  21.5820  0.00  0.00     0.000 C
ATOM    100  C5  NAG B   7      11.641   2.295  22.1510  0.00  0.00     0.000 C
ATOM    101  O5  NAG B   7      10.639   1.542  22.8170  0.00  0.00     0.000 O
BRANCH 97 104
ATOM    102   N  NAG B   7       7.384   2.609  21.2480  0.00  0.00     0.000 N
ATOM    104  HD  NAG B   7       6.519   2.618  21.2890  0.00  0.00     0.000 HD
ATOM    104   O  NAG B   7       5.460   2.364  20.0790  0.00  0.00     0.000 OA
ATOM    105   C  NAG B   7       6.682   2.148  20.1950  0.00  0.00     0.000 C
ATOM    106   C  NAG B   7       7.383   1.348  19.1510  0.00  0.00     0.000 C
ENDBRANCH 97 104
ATOM    107   O  NAG B   7      13.497   1.467  23.3240  0.00  0.00     0.000 O
ATOM    109  HD  NAG B   7      12.941   1.313  22.6770  0.00  0.00     0.000 HD
ATOM    109   O  NAG B   7      13.497   1.467  23.3240  0.00  0.00     0.000 O
ATOM    111  HD  NAG B   7      12.941   1.313  22.6770  0.00  0.00     0.000 HD
ENDBRANCH 95 98
ENDBRANCH 82 95
ENDBRANCH 81 85
ENDBRANCH 65 81
ENDBRANCH 64 67
ENDBRANCH 51 64
ENDBRANCH 50 54
ENDBRANCH 34 50
ENDBRANCH 33 36
ENDBRANCH 20 33
ENDBRANCH 19 23
ENDBRANCH 1 19
TORSDOF 19
ENDMDL
MODEL 62
REMARK VINA RESULT:      -4.1     14.892     18.920
ROOT
ATOM      1  C1  NAG B   1      10.048  24.839  18.8320  0.00  0.00     0.000 C
ATOM      2  C2  NAG B   1      11.432  24.655  18.2150  0.00  0.00     0.000 C
ATOM      3  C3  NAG B   1      11.768  25.768  17.2440  0.00  0.00     0.000 C
ATOM      4  C4  NAG B   1      10.658  25.746  16.1980  0.00  0.00     0.000 C
ATOM      5  C5  NAG B   1       9.321  26.070  16.8770  0.00  0.00     0.000 C
ATOM      6  O5  NAG B   1       8.998  25.087  17.8840  0.00  0.00     0.000 O
ATOM      7   O  NAG B   1      13.062  25.579  16.6260  0.00  0.00     0.000 O
ATOM      9  HD  NAG B   1      13.188  25.264  17.4220  0.00  0.00     0.000 HD
ATOM      9   O  NAG B   1      10.924  26.700  15.1840  0.00  0.00     0.000 O
ATOM     11  HD  NAG B   1      11.051  26.386  15.9810  0.00  0.00     0.000 HD
ATOM     11   C  NAG B   1       8.213  26.189  15.8230  0.00  0.00     0.000 C
ATOM     12   O  NAG B   1       6.942  25.834  16.3660  0.00  0.00     0.000 O
ATOM     14  HD  NAG B   1       7.069  25.519  17.1630  0.00  0.00     0.000 HD
ENDROOT
BRANCH 2 16
ATOM     14   N  NAG B   1      12.226  23.450  18.5140  0.00  0.00     0.000 N
ATOM     16  HD  NAG B   1      13.003  23.089  18.3900  0.00  0.00     0.000 HD
ATOM     16   C  NAG B   1      13.147  23.401  19.4920  0.00  0.00     0.000 C
ATOM     17   C  NAG B   1      13.425  24.624  20.3250  0.00  0.00     0.000 C
ATOM     18   O  NAG B   1      13.755  22.361  19.7440  0.00  0.00     0.000 OA
ENDBRANCH 2 16
BRANCH 1 19
ATOM     19  O4  BDP B   2       9.773  23.564  19.3960  0.00  0.00     0.000 O
BRANCH 19 23
ATOM     20  C1  BDP B   2       6.647  20.889  19.2580  0.00  0.00     0.000 C
ATOM     21  C2  BDP B   2       7.497  20.996  18.0090  0.00  0.00     0.000 C
ATOM     22  C3  BDP B   2       8.822  21.662  18.3030  0.00  0.00     0.000 C
ATOM     23  C4  BDP B   2       8.550  22.996  18.9920  0.00  0.00     0.000 C
ATOM     24  C5  BDP B   2       7.705  22.762  20.2280  0.00  0.00     0.000 C
ATOM     25  O5  BDP B   2       6.477  22.166  19.8570  0.00  0.00     0.000 O
ATOM     26   O  BDP B   2       7.720  19.716  17.4570  0.00  0.00     0.000 O
ATOM     28  HD  BDP B   2       7.104  19.532  18.0370  0.00  0.00     0.000 HD
ATOM     28   O  BDP B   2       9.552  21.826  17.0770  0.00  0.00     0.000 O
ATOM     30  HD  BDP B   2       8.936  21.642  17.6570  0.00  0.00     0.000 HD
BRANCH 24 30
ATOM     30   C  BDP B   2       7.392  24.028  20.9430  0.00  0.00     0.000 C
ATOM     31   O  BDP B   2       6.683  24.867  20.3410  0.00  0.00     0.000 OA
ATOM     32   O  BDP B   2       7.860  24.194  22.1050  0.00  0.00     0.000 OA
ENDBRANCH 24 30
BRANCH 20 33
ATOM     33  O3  NAG B   3       5.404  20.431  18.7850  0.00  0.00     0.000 O
BRANCH 33 36
ATOM     34  C1  NAG B   3       3.320  17.991  20.7480  0.00  0.00     0.000 C
ATOM     35  C2  NAG B   3       4.373  18.473  19.7690  0.00  0.00     0.000 C
ATOM     36  C3  NAG B   3       4.560  19.996  19.8540  0.00  0.00     0.000 C
ATOM     37  C4  NAG B   3       3.201  20.680  19.7200  0.00  0.00     0.000 C
ATOM     38  C5  NAG B   3       2.199  20.060  20.6900  0.00  0.00     0.000 C
ATOM     39  O5  NAG B   3       2.103  18.664  20.4600  0.00  0.00     0.000 O
ATOM     40   O  NAG B   3       3.329  22.083  19.9970  0.00  0.00     0.000 O
ATOM     42  HD  NAG B   3       2.699  21.902  20.5630  0.00  0.00     0.000 HD
ATOM     42   C  NAG B   3       0.777  20.595  20.5340  0.00  0.00     0.000 C
ATOM     43   O  NAG B   3       0.259  20.212  19.2540  0.00  0.00     0.000 O
ATOM     45  HD  NAG B   3      -0.371  20.032  19.8200  0.00  0.00     0.000 HD
BRANCH 35 47
ATOM     45   N  NAG B   3       5.060  17.533  18.8930  0.00  0.00     0.000 N
ATOM     47  HD  NAG B   3       4.494  18.031  18.4680  0.00  0.00     0.000 HD
ATOM     47   C  NAG B   3       6.333  17.219  19.0350  0.00  0.00     0.000 C
ATOM     48   C  NAG B   3       6.890  16.250  18.0350  0.00  0.00     0.000 C
ATOM     49   O  NAG B   3       7.030  17.712  19.9190  0.00  0.00     0.000 OA
ENDBRANCH 35 47
BRANCH 34 50
ATOM     50  O4  BDP B   4       3.200  16.614  20.4580  0.00  0.00     0.000 O
BRANCH 50 54
ATOM     51  C1  BDP B   4       2.685  12.917  22.0770  0.00  0.00     0.000 C
ATOM     52  C2  BDP B   4       1.435  13.789  22.0840  0.00  0.00     0.000 C
ATOM     53  C3  BDP B   4       1.648  14.939  21.1490  0.00  0.00     0.000 C
ATOM     54  C4  BDP B   4       2.947  15.701  21.5400  0.00  0.00     0.000 C
ATOM     55  C5  BDP B   4       4.135  14.766  21.7200  0.00  0.00     0.000 C
ATOM     56  O5  BDP B   4       3.784  13.670  22.5590  0.00  0.00     0.000 O
ATOM     57   O  BDP B   4       0.314  13.043  21.6600  0.00  0.00     0.000 O
ATOM     59  HD  BDP B   4      -0.117  12.864  22.3900  0.00  0.00     0.000 HD
ATOM     59   O  BDP B   4       0.534  15.838  21.3280  0.00  0.00     0.000 O
ATOM     61  HD  BDP B   4       0.103  15.660  22.0570  0.00  0.00     0.000 HD
BRANCH 55 61
ATOM     61   C  BDP B   4       5.283  15.531  22.3530  0.00  0.00     0.000 C
ATOM     62   O  BDP B   4       6.453  15.266  21.9700  0.00  0.00     0.000 OA
ATOM     63   O  BDP B   4       5.011  16.402  23.2350  0.00  0.00     0.000 OA
ENDBRANCH 55 61
BRANCH 51 64
ATOM     64  O3  NAG B   5       2.424  11.789  22.9350  0.00  0.00     0.000 O
BRANCH 64 67
ATOM     65  C1  NAG B   5       4.453   8.726  22.6240  0.00  0.00     0.000 C
ATOM     66  C2  NAG B   5       3.385   9.754  22.2920  0.00  0.00     0.000 C
ATOM     67  C3  NAG B   5       3.573  10.995  23.1550  0.00  0.00     0.000 C
ATOM     68  C4  NAG B   5       3.660  10.624  24.6420  0.00  0.00     0.000 C
ATOM     69  C5  NAG B   5       4.688   9.525  24.8620  0.00  0.00     0.000 C
ATOM     70  O5  NAG B   5       4.409   8.414  23.9980  0.00  0.00     0.000 O
ATOM     71   O  NAG B   5       3.985  11.783  25.3790  0.00  0.00     0.000 O
ATOM     73  HD  NAG B   5       3.386  11.462  25.9160  0.00  0.00     0.000 HD
ATOM     73   C  NAG B   5       4.752   9.000  26.3040  0.00  0.00     0.000 C
ATOM     74   O  NAG B   5       3.499   8.373  26.6470  0.00  0.00     0.000 O
ATOM     76  HD  NAG B   5       2.901   8.052  27.1840  0.00  0.00     0.000 HD
BRANCH 66 78
ATOM     76   N  NAG B   5       3.512   9.745  20.8220  0.00  0.00     0.000 N
ATOM     78  HD  NAG B   5       2.873   9.761  21.4060  0.00  0.00     0.000 HD
ATOM     78   C  NAG B   5       2.523   9.976  19.9430  0.00  0.00     0.000 C
ATOM     79   C  NAG B   5       2.970   9.915  18.5080  0.00  0.00     0.000 C
ATOM     80   O  NAG B   5       1.313  10.215  20.2930  0.00  0.00     0.000 OA
ENDBRANCH 66 78
BRANCH 65 81
ATOM     81  O4  BDP B   6       4.253   7.538  21.8480  0.00  0.00     0.000 O
BRANCH 81 85
ATOM     82  C1  BDP B   6       6.564   4.288  20.2790  0.00  0.00     0.000 C
ATOM     83  C2  BDP B   6       5.917   4.097  21.6480  0.00  0.00     0.000 C
ATOM     84  C3  BDP B   6       4.808   5.115  21.9290  0.00  0.00     0.000 C
ATOM     85  C4  BDP B   6       5.276   6.552  21.6900  0.00  0.00     0.000 C
ATOM     86  C5  BDP B   6       5.941   6.610  20.2940  0.00  0.00     0.000 C
ATOM     87  O5  BDP B   6       7.020   5.628  20.1630  0.00  0.00     0.000 O
ATOM     88   O  BDP B   6       5.365   2.784  21.6280  0.00  0.00     0.000 O
ATOM     90  HD  BDP B   6       4.653   2.355  21.8720  0.00  0.00     0.000 HD
ATOM     90   O  BDP B   6       4.330   4.947  23.2660  0.00  0.00     0.000 O
ATOM     92  HD  BDP B   6       3.618   4.519  23.5100  0.00  0.00     0.000 HD
BRANCH 86 92
ATOM     92   C  BDP B   6       6.635   7.935  20.0930  0.00  0.00     0.000 C
ATOM     93   O  BDP B   6       7.731   8.163  20.6890  0.00  0.00     0.000 OA
ATOM     94   O  BDP B   6       6.090   8.768  19.3030  0.00  0.00     0.000 OA
ENDBRANCH 86 92
BRANCH 82 95
ATOM     95  O3  NAG B   7       7.713   3.422  20.1960  0.00  0.00     0.000 O
BRANCH 95 98
ATOM     96  C1  NAG B   7       9.065   0.683  18.1930  0.00  0.00     0.000 C
ATOM     97  C2  NAG B   7       8.905   1.558  19.4300  0.00  0.00     0.000 C
ATOM     98  C3  NAG B   7       7.910   2.641  19.0180  0.00  0.00     0.000 C
ATOM     99  C4  NAG B   7       8.466   3.436  17.8390  0.00  0.00     0.000 C
ATOM    100  C5  NAG B   7       8.855   2.506  16.6890  0.00  0.00     0.000 C
ATOM    101  O5  NAG B   7       9.702   1.483  17.1910  0.00  0.00     0.000 O
BRANCH 97 104
ATOM    102   N  NAG B   7       8.281   0.972  20.6240  0.00  0.00     0.000 N
ATOM    104  HD  NAG B   7       7.760   0.840  21.3030  0.00  0.00     0.000 HD
ATOM    104   O  NAG B   7       8.159   0.256  22.7690  0.00  0.00     0.000 OA
ATOM    105   C  NAG B   7       8.835   0.703  21.8210  0.00  0.00     0.000 C
ATOM    106   C  NAG B   7      10.289   0.960  22.0200  0.00  0.00     0.000 C
ENDBRANCH 97 104
ATOM    107   O  NAG B   7       9.582   2.459  14.4590  0.00  0.00     0.000 O
ATOM    109  HD  NAG B   7       9.066   2.082  15.0440  0.00  0.00     0.000 HD
ATOM    109   O  NAG B   7       9.582   2.459  14.4590  0.00  0.00     0.000 O
ATOM    111  HD  NAG B   7       9.066   2.082  15.0440  0.00  0.00     0.000 HD
ENDBRANCH 95 98
ENDBRANCH 82 95
ENDBRANCH 81 85
ENDBRANCH 65 81
ENDBRANCH 64 67
ENDBRANCH 51 64
ENDBRANCH 50 54
ENDBRANCH 34 50
ENDBRANCH 33 36
ENDBRANCH 20 33
ENDBRANCH 19 23
ENDBRANCH 1 19
TORSDOF 19
ENDMDL
MODEL 63
REMARK VINA RESULT:      -3.9      6.480     10.496
ROOT
ATOM      1  C1  NAG B   1      19.681  22.583   7.8090  0.00  0.00     0.000 C
ATOM      2  C2  NAG B   1      20.806  23.555   7.4640  0.00  0.00     0.000 C
ATOM      3  C3  NAG B   1      22.110  23.169   8.1310  0.00  0.00     0.000 C
ATOM      4  C4  NAG B   1      21.810  23.136   9.6260  0.00  0.00     0.000 C
ATOM      5  C5  NAG B   1      20.769  22.044   9.9050  0.00  0.00     0.000 C
ATOM      6  O5  NAG B   1      19.532  22.315   9.2130  0.00  0.00     0.000 O
ATOM      7   O  NAG B   1      23.171  24.108   7.8390  0.00  0.00     0.000 O
ATOM      9  HD  NAG B   1      22.717  24.104   7.1010  0.00  0.00     0.000 HD
ATOM      9   O  NAG B   1      22.995  22.867  10.3560  0.00  0.00     0.000 O
ATOM     11  HD  NAG B   1      22.542  22.863   9.6180  0.00  0.00     0.000 HD
ATOM     11   C  NAG B   1      20.554  21.900  11.4170  0.00  0.00     0.000 C
ATOM     12   O  NAG B   1      19.235  21.445  11.7110  0.00  0.00     0.000 O
ATOM     14  HD  NAG B   1      18.781  21.441  10.9740  0.00  0.00     0.000 HD
ENDROOT
BRANCH 2 16
ATOM     14   N  NAG B   1      20.358  24.675   6.6170  0.00  0.00     0.000 N
ATOM     16  HD  NAG B   1      20.616  25.430   6.2790  0.00  0.00     0.000 HD
ATOM     16   C  NAG B   1      20.690  24.794   5.3200  0.00  0.00     0.000 C
ATOM     17   C  NAG B   1      21.583  23.766   4.6750  0.00  0.00     0.000 C
ATOM     18   O  NAG B   1      20.256  25.717   4.6310  0.00  0.00     0.000 OA
ENDBRANCH 2 16
BRANCH 1 19
ATOM     19  O4  BDP B   2      18.511  23.288   7.4190  0.00  0.00     0.000 O
BRANCH 19 23
ATOM     20  C1  BDP B   2      16.272  19.889   6.8100  0.00  0.00     0.000 C
ATOM     21  C2  BDP B   2      16.949  20.476   5.5890  0.00  0.00     0.000 C
ATOM     22  C3  BDP B   2      18.051  21.434   5.9810  0.00  0.00     0.000 C
ATOM     23  C4  BDP B   2      17.470  22.473   6.9360  0.00  0.00     0.000 C
ATOM     24  C5  BDP B   2      16.833  21.771   8.1190  0.00  0.00     0.000 C
ATOM     25  O5  BDP B   2      15.798  20.921   7.6640  0.00  0.00     0.000 O
ATOM     26   O  BDP B   2      17.479  19.448   4.7800  0.00  0.00     0.000 O
ATOM     28  HD  BDP B   2      16.990  18.984   5.3250  0.00  0.00     0.000 HD
ATOM     28   O  BDP B   2      18.599  22.036   4.7980  0.00  0.00     0.000 O
ATOM     30  HD  BDP B   2      18.111  21.572   5.3420  0.00  0.00     0.000 HD
BRANCH 24 30
ATOM     30   C  BDP B   2      16.235  22.729   9.0860  0.00  0.00     0.000 C
ATOM     31   O  BDP B   2      15.417  23.564   8.6370  0.00  0.00     0.000 OA
ATOM     32   O  BDP B   2      16.587  22.657  10.2980  0.00  0.00     0.000 OA
ENDBRANCH 24 30
BRANCH 20 33
ATOM     33  O3  NAG B   3      15.175  19.183   6.2840  0.00  0.00     0.000 O
BRANCH 33 36
ATOM     34  C1  NAG B   3      13.860  16.127   8.0410  0.00  0.00     0.000 C
ATOM     35  C2  NAG B   3      14.742  16.954   7.1240  0.00  0.00     0.000 C
ATOM     36  C3  NAG B   3      14.477  18.457   7.2990  0.00  0.00     0.000 C
ATOM     37  C4  NAG B   3      12.981  18.726   7.1590  0.00  0.00     0.000 C
ATOM     38  C5  NAG B   3      12.187  17.783   8.0600  0.00  0.00     0.000 C
ATOM     39  O5  NAG B   3      12.505  16.437   7.7510  0.00  0.00     0.000 O
ATOM     40   O  NAG B   3      12.691  20.086   7.5170  0.00  0.00     0.000 O
ATOM     42  HD  NAG B   3      12.132  19.696   8.0520  0.00  0.00     0.000 HD
ATOM     42   C  NAG B   3      10.674  17.893   7.8880  0.00  0.00     0.000 C
ATOM     43   O  NAG B   3      10.309  17.457   6.5730  0.00  0.00     0.000 O
ATOM     45  HD  NAG B   3       9.750  17.067   7.1080  0.00  0.00     0.000 HD
BRANCH 35 47
ATOM     45   N  NAG B   3      15.702  16.467   6.1410  0.00  0.00     0.000 N
ATOM     47  HD  NAG B   3      15.080  16.956   5.7880  0.00  0.00     0.000 HD
ATOM     47   C  NAG B   3      16.993  16.368   6.3870  0.00  0.00     0.000 C
ATOM     48   C  NAG B   3      17.844  15.868   5.2570  0.00  0.00     0.000 C
ATOM     49   O  NAG B   3      17.477  16.692   7.4690  0.00  0.00     0.000 OA
ENDBRANCH 35 47
BRANCH 34 50
ATOM     50  O4  BDP B   4      14.150  14.795   7.6720  0.00  0.00     0.000 O
BRANCH 50 54
ATOM     51  C1  BDP B   4      13.518  11.039   9.1020  0.00  0.00     0.000 C
ATOM     52  C2  BDP B   4      12.833  11.333   7.7720  0.00  0.00     0.000 C
ATOM     53  C3  BDP B   4      13.435  12.573   7.1860  0.00  0.00     0.000 C
ATOM     54  C4  BDP B   4      13.339  13.739   8.2120  0.00  0.00     0.000 C
ATOM     55  C5  BDP B   4      13.852  13.342   9.5900  0.00  0.00     0.000 C
ATOM     56  O5  BDP B   4      13.273  12.106  10.0000  0.00  0.00     0.000 O
ATOM     57   O  BDP B   4      13.017  10.256   6.8780  0.00  0.00     0.000 O
ATOM     59  HD  BDP B   4      12.260   9.836   6.8830  0.00  0.00     0.000 HD
ATOM     59   O  BDP B   4      12.637  12.924   6.0370  0.00  0.00     0.000 O
ATOM     61  HD  BDP B   4      11.880  12.504   6.0420  0.00  0.00     0.000 HD
BRANCH 55 61
ATOM     61   C  BDP B   4      13.485  14.422  10.5910  0.00  0.00     0.000 C
ATOM     62   O  BDP B   4      12.283  14.794  10.6450  0.00  0.00     0.000 OA
ATOM     63   O  BDP B   4      14.403  14.897  11.3260  0.00  0.00     0.000 OA
ENDBRANCH 55 61
BRANCH 51 64
ATOM     64  O3  NAG B   5      12.963   9.809   9.6060  0.00  0.00     0.000 O
BRANCH 64 67
ATOM     65  C1  NAG B   5      14.846   7.705  11.9770  0.00  0.00     0.000 C
ATOM     66  C2  NAG B   5      14.420   8.302  10.6470  0.00  0.00     0.000 C
ATOM     67  C3  NAG B   5      13.468   9.467  10.8820  0.00  0.00     0.000 C
ATOM     68  C4  NAG B   5      12.307   9.054  11.7970  0.00  0.00     0.000 C
ATOM     69  C5  NAG B   5      12.828   8.384  13.0590  0.00  0.00     0.000 C
ATOM     70  O5  NAG B   5      13.711   7.307  12.7110  0.00  0.00     0.000 O
ATOM     71   O  NAG B   5      11.544  10.201  12.1050  0.00  0.00     0.000 O
ATOM     73  HD  NAG B   5      10.887   9.652  11.9710  0.00  0.00     0.000 HD
ATOM     73   C  NAG B   5      11.733   7.823  13.9760  0.00  0.00     0.000 C
ATOM     74   O  NAG B   5      11.025   6.767  13.2930  0.00  0.00     0.000 O
ATOM     76  HD  NAG B   5      10.368   6.218  13.1600  0.00  0.00     0.000 HD
BRANCH 66 78
ATOM     76   N  NAG B   5      15.710   8.596   9.9930  0.00  0.00     0.000 N
ATOM     78  HD  NAG B   5      14.988   8.153   9.8090  0.00  0.00     0.000 HD
ATOM     78   C  NAG B   5      16.017   8.355   8.7090  0.00  0.00     0.000 C
ATOM     79   C  NAG B   5      17.409   8.785   8.3340  0.00  0.00     0.000 C
ATOM     80   O  NAG B   5      15.205   7.803   7.8830  0.00  0.00     0.000 OA
ENDBRANCH 66 78
BRANCH 65 81
ATOM     81  O4  BDP B   6      15.705   6.579  11.7600  0.00  0.00     0.000 O
BRANCH 81 85
ATOM     82  C1  BDP B   6      18.752   4.371  13.8110  0.00  0.00     0.000 C
ATOM     83  C2  BDP B   6      17.301   3.961  14.0510  0.00  0.00     0.000 C
ATOM     84  C3  BDP B   6      16.344   4.514  12.9910  0.00  0.00     0.000 C
ATOM     85  C4  BDP B   6      16.510   6.024  12.8030  0.00  0.00     0.000 C
ATOM     86  C5  BDP B   6      18.016   6.316  12.6050  0.00  0.00     0.000 C
ATOM     87  O5  BDP B   6      18.824   5.785  13.7050  0.00  0.00     0.000 O
ATOM     88   O  BDP B   6      17.296   2.537  14.0010  0.00  0.00     0.000 O
ATOM     90  HD  BDP B   6      16.824   1.882  13.6870  0.00  0.00     0.000 HD
ATOM     90   O  BDP B   6      14.998   4.187  13.3440  0.00  0.00     0.000 O
ATOM     92  HD  BDP B   6      14.526   3.532  13.0300  0.00  0.00     0.000 HD
BRANCH 86 92
ATOM     92   C  BDP B   6      18.278   7.802  12.6510  0.00  0.00     0.000 C
ATOM     93   O  BDP B   6      18.295   8.399  13.7700  0.00  0.00     0.000 OA
ATOM     94   O  BDP B   6      18.496   8.392  11.5480  0.00  0.00     0.000 OA
ENDBRANCH 86 92
BRANCH 82 95
ATOM     95  O3  NAG B   7      19.531   3.973  14.9570  0.00  0.00     0.000 O
BRANCH 95 98
ATOM     96  C1  NAG B   7      22.485   1.911  15.5550  0.00  0.00     0.000 C
ATOM     97  C2  NAG B   7      21.075   2.430  15.8030  0.00  0.00     0.000 C
ATOM     98  C3  NAG B   7      20.874   3.531  14.7640  0.00  0.00     0.000 C
ATOM     99  C4  NAG B   7      21.916   4.629  14.9630  0.00  0.00     0.000 C
ATOM    100  C5  NAG B   7      23.330   4.046  14.9580  0.00  0.00     0.000 C
ATOM    101  O5  NAG B   7      23.389   2.972  15.8830  0.00  0.00     0.000 O
BRANCH 97 104
ATOM    102   N  NAG B   7      19.997   1.457  15.5780  0.00  0.00     0.000 N
ATOM    104  HD  NAG B   7      19.306   1.051  15.2500  0.00  0.00     0.000 HD
ATOM    104   O  NAG B   7      18.124   0.279  16.0600  0.00  0.00     0.000 OA
ATOM    105   C  NAG B   7      19.012   1.079  16.4140  0.00  0.00     0.000 C
ATOM    106   C  NAG B   7      18.975   1.645  17.7930  0.00  0.00     0.000 C
ENDBRANCH 97 104
ATOM    107   O  NAG B   7      25.608   4.609  14.9750  0.00  0.00     0.000 O
ATOM    109  HD  NAG B   7      25.014   4.070  14.6480  0.00  0.00     0.000 HD
ATOM    109   O  NAG B   7      25.608   4.609  14.9750  0.00  0.00     0.000 O
ATOM    111  HD  NAG B   7      25.014   4.070  14.6480  0.00  0.00     0.000 HD
ENDBRANCH 95 98
ENDBRANCH 82 95
ENDBRANCH 81 85
ENDBRANCH 65 81
ENDBRANCH 64 67
ENDBRANCH 51 64
ENDBRANCH 50 54
ENDBRANCH 34 50
ENDBRANCH 33 36
ENDBRANCH 20 33
ENDBRANCH 19 23
ENDBRANCH 1 19
TORSDOF 19
ENDMDL
MODEL 64
REMARK VINA RESULT:      -3.9      9.513     14.589
ROOT
ATOM      1  C1  NAG B   1      13.939  13.600   9.5870  0.00  0.00     0.000 C
ATOM      2  C2  NAG B   1      13.048  14.806   9.8720  0.00  0.00     0.000 C
ATOM      3  C3  NAG B   1      13.295  15.375  11.2540  0.00  0.00     0.000 C
ATOM      4  C4  NAG B   1      13.040  14.223  12.2210  0.00  0.00     0.000 C
ATOM      5  C5  NAG B   1      14.060  13.108  11.9550  0.00  0.00     0.000 C
ATOM      6  O5  NAG B   1      13.931  12.594  10.6120  0.00  0.00     0.000 O
ATOM      7   O  NAG B   1      12.427  16.494  11.5460  0.00  0.00     0.000 O
ATOM      9  HD  NAG B   1      12.575  16.589  10.6980  0.00  0.00     0.000 HD
ATOM      9   O  NAG B   1      13.160  14.674  13.5600  0.00  0.00     0.000 O
ATOM     11  HD  NAG B   1      13.308  14.769  12.7120  0.00  0.00     0.000 HD
ATOM     11   C  NAG B   1      13.910  12.000  13.0050  0.00  0.00     0.000 C
ATOM     12   O  NAG B   1      14.303  10.733  12.4800  0.00  0.00     0.000 O
ATOM     14  HD  NAG B   1      14.451  10.828  11.6320  0.00  0.00     0.000 HD
ENDROOT
BRANCH 2 16
ATOM     14   N  NAG B   1      12.017  15.254   8.9190  0.00  0.00     0.000 N
ATOM     16  HD  NAG B   1      11.458  15.895   8.7600  0.00  0.00     0.000 HD
ATOM     16   C  NAG B   1      12.247  16.171   7.9640  0.00  0.00     0.000 C
ATOM     17   C  NAG B   1      13.604  16.813   7.8500  0.00  0.00     0.000 C
ATOM     18   O  NAG B   1      11.374  16.483   7.1550  0.00  0.00     0.000 OA
ENDBRANCH 2 16
BRANCH 1 19
ATOM     19  O4  BDP B   2      13.324  13.006   8.4510  0.00  0.00     0.000 O
BRANCH 19 23
ATOM     20  C1  BDP B   2      16.348  10.332   7.6440  0.00  0.00     0.000 C
ATOM     21  C2  BDP B   2      16.519  11.730   7.0860  0.00  0.00     0.000 C
ATOM     22  C3  BDP B   2      15.599  12.711   7.7760  0.00  0.00     0.000 C
ATOM     23  C4  BDP B   2      14.172  12.175   7.6950  0.00  0.00     0.000 C
ATOM     24  C5  BDP B   2      14.123  10.781   8.2910  0.00  0.00     0.000 C
ATOM     25  O5  BDP B   2      14.988   9.926   7.5680  0.00  0.00     0.000 O
ATOM     26   O  BDP B   2      17.858  12.153   7.2280  0.00  0.00     0.000 O
ATOM     28  HD  BDP B   2      17.938  11.311   7.4170  0.00  0.00     0.000 HD
ATOM     28   O  BDP B   2      15.727  13.999   7.1530  0.00  0.00     0.000 O
ATOM     30  HD  BDP B   2      15.807  13.157   7.3420  0.00  0.00     0.000 HD
BRANCH 24 30
ATOM     30   C  BDP B   2      12.759  10.194   8.2330  0.00  0.00     0.000 C
ATOM     31   O  BDP B   2      12.584   9.221   7.4620  0.00  0.00     0.000 OA
ATOM     32   O  BDP B   2      11.853  10.705   8.9510  0.00  0.00     0.000 OA
ENDBRANCH 24 30
BRANCH 20 33
ATOM     33  O3  NAG B   3      17.119   9.526   6.7860  0.00  0.00     0.000 O
BRANCH 33 36
ATOM     34  C1  NAG B   3      18.256   6.205   8.1380  0.00  0.00     0.000 C
ATOM     35  C2  NAG B   3      18.224   7.709   7.9430  0.00  0.00     0.000 C
ATOM     36  C3  NAG B   3      17.003   8.140   7.1160  0.00  0.00     0.000 C
ATOM     37  C4  NAG B   3      16.955   7.327   5.8250  0.00  0.00     0.000 C
ATOM     38  C5  NAG B   3      17.080   5.837   6.1320  0.00  0.00     0.000 C
ATOM     39  O5  NAG B   3      18.273   5.592   6.8570  0.00  0.00     0.000 O
ATOM     40   O  NAG B   3      15.718   7.571   5.1370  0.00  0.00     0.000 O
ATOM     42  HD  NAG B   3      15.670   6.707   5.1750  0.00  0.00     0.000 HD
ATOM     42   C  NAG B   3      17.172   4.956   4.8890  0.00  0.00     0.000 C
ATOM     43   O  NAG B   3      18.390   5.239   4.1910  0.00  0.00     0.000 O
ATOM     45  HD  NAG B   3      18.342   4.375   4.2280  0.00  0.00     0.000 HD
BRANCH 35 47
ATOM     45   N  NAG B   3      19.208   8.683   8.3990  0.00  0.00     0.000 N
ATOM     47  HD  NAG B   3      19.108   8.688   7.5390  0.00  0.00     0.000 HD
ATOM     47   C  NAG B   3      19.067   9.378   9.5100  0.00  0.00     0.000 C
ATOM     48   C  NAG B   3      20.163  10.353   9.8230  0.00  0.00     0.000 C
ATOM     49   O  NAG B   3      18.081   9.256  10.2340  0.00  0.00     0.000 OA
ENDBRANCH 35 47
BRANCH 34 50
ATOM     50  O4  BDP B   4      19.480   5.981   8.8070  0.00  0.00     0.000 O
BRANCH 50 54
ATOM     51  C1  BDP B   4      21.400   3.606  11.4950  0.00  0.00     0.000 C
ATOM     52  C2  BDP B   4      21.200   2.974  10.1220  0.00  0.00     0.000 C
ATOM     53  C3  BDP B   4      20.838   4.051   9.1460  0.00  0.00     0.000 C
ATOM     54  C4  BDP B   4      19.597   4.833   9.6630  0.00  0.00     0.000 C
ATOM     55  C5  BDP B   4      19.754   5.278  11.1110  0.00  0.00     0.000 C
ATOM     56  O5  BDP B   4      20.182   4.188  11.9230  0.00  0.00     0.000 O
ATOM     57   O  BDP B   4      22.387   2.338   9.6980  0.00  0.00     0.000 O
ATOM     59  HD  BDP B   4      22.240   1.494   9.8250  0.00  0.00     0.000 HD
ATOM     59   O  BDP B   4      20.470   3.395   7.9150  0.00  0.00     0.000 O
ATOM     61  HD  BDP B   4      20.323   2.551   8.0420  0.00  0.00     0.000 HD
BRANCH 55 61
ATOM     61   C  BDP B   4      18.421   5.790  11.6250  0.00  0.00     0.000 C
ATOM     62   O  BDP B   4      18.422   6.823  12.3450  0.00  0.00     0.000 OA
ATOM     63   O  BDP B   4      17.369   5.156  11.3040  0.00  0.00     0.000 OA
ENDBRANCH 55 61
BRANCH 51 64
ATOM     64  O3  NAG B   5      21.809   2.557  12.3930  0.00  0.00     0.000 O
BRANCH 64 67
ATOM     65  C1  NAG B   5      24.281   3.126  15.0680  0.00  0.00     0.000 C
ATOM     66  C2  NAG B   5      23.746   2.840  13.6760  0.00  0.00     0.000 C
ATOM     67  C3  NAG B   5      22.238   3.051  13.6470  0.00  0.00     0.000 C
ATOM     68  C4  NAG B   5      21.550   2.262  14.7690  0.00  0.00     0.000 C
ATOM     69  C5  NAG B   5      22.213   2.542  16.1090  0.00  0.00     0.000 C
ATOM     70  O5  NAG B   5      23.626   2.310  16.0120  0.00  0.00     0.000 O
ATOM     71   O  NAG B   5      20.182   2.610  14.7930  0.00  0.00     0.000 O
ATOM     73  HD  NAG B   5      20.091   1.756  14.9090  0.00  0.00     0.000 HD
ATOM     73   C  NAG B   5      21.672   1.698  17.2710  0.00  0.00     0.000 C
ATOM     74   O  NAG B   5      21.957   0.305  17.0310  0.00  0.00     0.000 O
ATOM     76  HD  NAG B   5      21.866  -0.549  17.1470  0.00  0.00     0.000 HD
BRANCH 66 78
ATOM     76   N  NAG B   5      24.597   3.705  12.8360  0.00  0.00     0.000 N
ATOM     78  HD  NAG B   5      24.364   2.872  12.8610  0.00  0.00     0.000 HD
ATOM     78   C  NAG B   5      25.129   3.375  11.6490  0.00  0.00     0.000 C
ATOM     79   C  NAG B   5      25.937   4.481  11.0250  0.00  0.00     0.000 C
ATOM     80   O  NAG B   5      24.971   2.225  11.1030  0.00  0.00     0.000 OA
ENDBRANCH 66 78
BRANCH 65 81
ATOM     81  O4  BDP B   6      25.694   2.884  15.1130  0.00  0.00     0.000 O
BRANCH 81 85
ATOM     82  C1  BDP B   6      29.116   4.018  17.4300  0.00  0.00     0.000 C
ATOM     83  C2  BDP B   6      28.299   2.825  17.9160  0.00  0.00     0.000 C
ATOM     84  C3  BDP B   6      27.374   2.257  16.8360  0.00  0.00     0.000 C
ATOM     85  C4  BDP B   6      26.510   3.343  16.1930  0.00  0.00     0.000 C
ATOM     86  C5  BDP B   6      27.441   4.506  15.7750  0.00  0.00     0.000 C
ATOM     87  O5  BDP B   6      28.236   5.000  16.9010  0.00  0.00     0.000 O
ATOM     88   O  BDP B   6      29.255   1.838  18.2930  0.00  0.00     0.000 O
ATOM     90  HD  BDP B   6      29.392   0.985  18.2340  0.00  0.00     0.000 HD
ATOM     90   O  BDP B   6      26.562   1.221  17.3960  0.00  0.00     0.000 O
ATOM     92  HD  BDP B   6      26.700   0.368  17.3360  0.00  0.00     0.000 HD
BRANCH 86 92
ATOM     92   C  BDP B   6      26.631   5.708  15.3520  0.00  0.00     0.000 C
ATOM     93   O  BDP B   6      26.125   6.462  16.2370  0.00  0.00     0.000 OA
ATOM     94   O  BDP B   6      26.512   5.925  14.1070  0.00  0.00     0.000 OA
ENDBRANCH 86 92
BRANCH 82 95
ATOM     95  O3  NAG B   7      29.794   4.596  18.5620  0.00  0.00     0.000 O
BRANCH 95 98
ATOM     96  C1  NAG B   7      33.234   5.449  19.4460  0.00  0.00     0.000 C
ATOM     97  C2  NAG B   7      31.838   4.882  19.6690  0.00  0.00     0.000 C
ATOM     98  C3  NAG B   7      31.082   5.182  18.3770  0.00  0.00     0.000 C
ATOM     99  C4  NAG B   7      31.042   6.689  18.1370  0.00  0.00     0.000 C
ATOM    100  C5  NAG B   7      32.450   7.284  18.1630  0.00  0.00     0.000 C
ATOM    101  O5  NAG B   7      33.102   6.872  19.3540  0.00  0.00     0.000 O
BRANCH 97 104
ATOM    102   N  NAG B   7      31.704   3.426  19.8150  0.00  0.00     0.000 N
ATOM    104  HD  NAG B   7      31.457   2.604  19.7010  0.00  0.00     0.000 HD
ATOM    104   O  NAG B   7      31.179   1.478  20.8430  0.00  0.00     0.000 OA
ATOM    105   C  NAG B   7      31.301   2.718  20.8860  0.00  0.00     0.000 C
ATOM    106   C  NAG B   7      30.979   3.438  22.1510  0.00  0.00     0.000 C
ENDBRANCH 97 104
ATOM    107   O  NAG B   7      33.683   9.245  17.7870  0.00  0.00     0.000 O
ATOM    109  HD  NAG B   7      33.676   8.383  17.6950  0.00  0.00     0.000 HD
ATOM    109   O  NAG B   7      33.683   9.245  17.7870  0.00  0.00     0.000 O
ATOM    111  HD  NAG B   7      33.676   8.383  17.6950  0.00  0.00     0.000 HD
ENDBRANCH 95 98
ENDBRANCH 82 95
ENDBRANCH 81 85
ENDBRANCH 65 81
ENDBRANCH 64 67
ENDBRANCH 51 64
ENDBRANCH 50 54
ENDBRANCH 34 50
ENDBRANCH 33 36
ENDBRANCH 20 33
ENDBRANCH 19 23
ENDBRANCH 1 19
TORSDOF 19
ENDMDL
MODEL 65
REMARK VINA RESULT:      -3.9     10.500     15.725
ROOT
ATOM      1  C1  NAG B   1      22.891  17.438   8.3620  0.00  0.00     0.000 C
ATOM      2  C2  NAG B   1      24.133  18.324   8.3950  0.00  0.00     0.000 C
ATOM      3  C3  NAG B   1      23.911  19.576   9.2180  0.00  0.00     0.000 C
ATOM      4  C4  NAG B   1      22.714  20.276   8.5820  0.00  0.00     0.000 C
ATOM      5  C5  NAG B   1      21.479  19.375   8.7080  0.00  0.00     0.000 C
ATOM      6  O5  NAG B   1      21.676  18.122   8.0170  0.00  0.00     0.000 O
ATOM      7   O  NAG B   1      25.071  20.439   9.2220  0.00  0.00     0.000 O
ATOM      9  HD  NAG B   1      25.426  19.649   9.2050  0.00  0.00     0.000 HD
ATOM      9   O  NAG B   1      22.473  21.515   9.2280  0.00  0.00     0.000 O
ATOM     11  HD  NAG B   1      22.828  20.725   9.2110  0.00  0.00     0.000 HD
ATOM     11   C  NAG B   1      20.237  20.115   8.1970  0.00  0.00     0.000 C
ATOM     12   O  NAG B   1      19.267  19.205   7.6810  0.00  0.00     0.000 O
ATOM     14  HD  NAG B   1      19.622  18.416   7.6640  0.00  0.00     0.000 HD
ENDROOT
BRANCH 2 16
ATOM     14   N  NAG B   1      25.237  17.794   7.5750  0.00  0.00     0.000 N
ATOM     16  HD  NAG B   1      26.022  17.990   7.2660  0.00  0.00     0.000 HD
ATOM     16   C  NAG B   1      26.356  17.267   8.1020  0.00  0.00     0.000 C
ATOM     17   C  NAG B   1      26.536  17.225   9.5960  0.00  0.00     0.000 C
ATOM     18   O  NAG B   1      27.235  16.789   7.3860  0.00  0.00     0.000 OA
ENDBRANCH 2 16
BRANCH 1 19
ATOM     19  O4  BDP B   2      23.157  16.547   7.2870  0.00  0.00     0.000 O
BRANCH 19 23
ATOM     20  C1  BDP B   2      20.683  13.524   8.5820  0.00  0.00     0.000 C
ATOM     21  C2  BDP B   2      22.078  13.551   9.1710  0.00  0.00     0.000 C
ATOM     22  C3  BDP B   2      22.734  14.897   8.9640  0.00  0.00     0.000 C
ATOM     23  C4  BDP B   2      22.675  15.239   7.4770  0.00  0.00     0.000 C
ATOM     24  C5  BDP B   2      21.235  15.191   7.0060  0.00  0.00     0.000 C
ATOM     25  O5  BDP B   2      20.712  13.892   7.2100  0.00  0.00     0.000 O
ATOM     26   O  BDP B   2      22.033  13.251  10.5500  0.00  0.00     0.000 O
ATOM     28  HD  BDP B   2      21.227  13.037  10.3160  0.00  0.00     0.000 HD
ATOM     28   O  BDP B   2      24.084  14.846   9.4530  0.00  0.00     0.000 O
ATOM     30  HD  BDP B   2      23.278  14.632   9.2190  0.00  0.00     0.000 HD
BRANCH 24 30
ATOM     30   C  BDP B   2      21.108  15.504   5.5580  0.00  0.00     0.000 C
ATOM     31   O  BDP B   2      20.397  16.487   5.2440  0.00  0.00     0.000 OA
ATOM     32   O  BDP B   2      21.709  14.765   4.7280  0.00  0.00     0.000 OA
ENDBRANCH 24 30
BRANCH 20 33
ATOM     33  O3  NAG B   3      20.294  12.176   8.6900  0.00  0.00     0.000 O
BRANCH 33 36
ATOM     34  C1  NAG B   3      16.678  11.294   9.2390  0.00  0.00     0.000 C
ATOM     35  C2  NAG B   3      18.095  11.706   9.5900  0.00  0.00     0.000 C
ATOM     36  C3  NAG B   3      18.923  11.990   8.3270  0.00  0.00     0.000 C
ATOM     37  C4  NAG B   3      18.821  10.799   7.3770  0.00  0.00     0.000 C
ATOM     38  C5  NAG B   3      17.359  10.417   7.1630  0.00  0.00     0.000 C
ATOM     39  O5  NAG B   3      16.743  10.143   8.4100  0.00  0.00     0.000 O
ATOM     40   O  NAG B   3      19.419  11.126   6.1130  0.00  0.00     0.000 O
ATOM     42  HD  NAG B   3      18.644  10.874   5.8210  0.00  0.00     0.000 HD
ATOM     42   C  NAG B   3      17.167   9.153   6.3290  0.00  0.00     0.000 C
ATOM     43   O  NAG B   3      17.688   8.025   7.0420  0.00  0.00     0.000 O
ATOM     45  HD  NAG B   3      16.913   7.774   6.7490  0.00  0.00     0.000 HD
BRANCH 35 47
ATOM     45   N  NAG B   3      18.011  12.823  10.5230  0.00  0.00     0.000 N
ATOM     47  HD  NAG B   3      17.235  12.575  10.2290  0.00  0.00     0.000 HD
ATOM     47   C  NAG B   3      18.782  12.928  11.5860  0.00  0.00     0.000 C
ATOM     48   C  NAG B   3      18.551  14.130  12.4540  0.00  0.00     0.000 C
ATOM     49   O  NAG B   3      19.624  12.078  11.8670  0.00  0.00     0.000 OA
ENDBRANCH 35 47
BRANCH 34 50
ATOM     50  O4  BDP B   4      16.107  10.968  10.4890  0.00  0.00     0.000 O
BRANCH 50 54
ATOM     51  C1  BDP B   4      12.610  10.437  12.5010  0.00  0.00     0.000 C
ATOM     52  C2  BDP B   4      12.823   9.474  11.3380  0.00  0.00     0.000 C
ATOM     53  C3  BDP B   4      14.265   9.520  10.9350  0.00  0.00     0.000 C
ATOM     54  C4  BDP B   4      14.675  10.987  10.6180  0.00  0.00     0.000 C
ATOM     55  C5  BDP B   4      14.265  11.954  11.7190  0.00  0.00     0.000 C
ATOM     56  O5  BDP B   4      12.899  11.756  12.0740  0.00  0.00     0.000 O
ATOM     57   O  BDP B   4      12.488   8.158  11.7240  0.00  0.00     0.000 O
ATOM     59  HD  BDP B   4      11.712   8.016  11.3650  0.00  0.00     0.000 HD
ATOM     59   O  BDP B   4      14.387   8.751   9.7210  0.00  0.00     0.000 O
ATOM     61  HD  BDP B   4      13.611   8.610   9.3610  0.00  0.00     0.000 HD
BRANCH 55 61
ATOM     61   C  BDP B   4      14.451  13.379  11.2300  0.00  0.00     0.000 C
ATOM     62   O  BDP B   4      15.322  14.090  11.7970  0.00  0.00     0.000 OA
ATOM     63   O  BDP B   4      13.724  13.786  10.2730  0.00  0.00     0.000 OA
ENDBRANCH 55 61
BRANCH 51 64
ATOM     64  O3  NAG B   5      11.232  10.320  12.9050  0.00  0.00     0.000 O
BRANCH 64 67
ATOM     65  C1  NAG B   5       9.583   9.076  15.9580  0.00  0.00     0.000 C
ATOM     66  C2  NAG B   5       9.980   9.143  14.4940  0.00  0.00     0.000 C
ATOM     67  C3  NAG B   5      11.086  10.173  14.3030  0.00  0.00     0.000 C
ATOM     68  C4  NAG B   5      10.694  11.523  14.9210  0.00  0.00     0.000 C
ATOM     69  C5  NAG B   5      10.224  11.342  16.3550  0.00  0.00     0.000 C
ATOM     70  O5  NAG B   5       9.186  10.352  16.4080  0.00  0.00     0.000 O
ATOM     71   O  NAG B   5      11.806  12.390  14.8530  0.00  0.00     0.000 O
ATOM     73  HD  NAG B   5      11.195  12.960  14.6240  0.00  0.00     0.000 HD
ATOM     73   C  NAG B   5       9.691  12.622  17.0130  0.00  0.00     0.000 C
ATOM     74   O  NAG B   5       8.508  13.068  16.3160  0.00  0.00     0.000 O
ATOM     76  HD  NAG B   5       7.897  13.637  16.0870  0.00  0.00     0.000 HD
BRANCH 66 78
ATOM     76   N  NAG B   5      10.221   7.715  14.2110  0.00  0.00     0.000 N
ATOM     78  HD  NAG B   5       9.789   8.373  13.8480  0.00  0.00     0.000 HD
ATOM     78   C  NAG B   5       9.928   7.077  13.0670  0.00  0.00     0.000 C
ATOM     79   C  NAG B   5      10.312   5.622  13.0760  0.00  0.00     0.000 C
ATOM     80   O  NAG B   5       9.368   7.650  12.0650  0.00  0.00     0.000 OA
ENDBRANCH 66 78
BRANCH 65 81
ATOM     81  O4  BDP B   6       8.510   8.142  16.1350  0.00  0.00     0.000 O
BRANCH 81 85
ATOM     82  C1  BDP B   6       6.876   5.590  19.1660  0.00  0.00     0.000 C
ATOM     83  C2  BDP B   6       6.430   7.050  19.1570  0.00  0.00     0.000 C
ATOM     84  C3  BDP B   6       6.733   7.756  17.8320  0.00  0.00     0.000 C
ATOM     85  C4  BDP B   6       8.193   7.581  17.4110  0.00  0.00     0.000 C
ATOM     86  C5  BDP B   6       8.534   6.074  17.4940  0.00  0.00     0.000 C
ATOM     87  O5  BDP B   6       8.252   5.523  18.8210  0.00  0.00     0.000 O
ATOM     88   O  BDP B   6       5.021   7.018  19.3690  0.00  0.00     0.000 O
ATOM     90  HD  BDP B   6       4.295   7.395  19.0850  0.00  0.00     0.000 HD
ATOM     90   O  BDP B   6       6.393   9.141  17.9390  0.00  0.00     0.000 O
ATOM     92  HD  BDP B   6       5.667   9.518  17.6550  0.00  0.00     0.000 HD
BRANCH 86 92
ATOM     92   C  BDP B   6      10.018   5.856  17.3230  0.00  0.00     0.000 C
ATOM     93   O  BDP B   6      10.832   6.514  18.0380  0.00  0.00     0.000 OA
ATOM     94   O  BDP B   6      10.389   4.992  16.4690  0.00  0.00     0.000 OA
ENDBRANCH 86 92
BRANCH 82 95
ATOM     95  O3  NAG B   7       6.730   5.080  20.5060  0.00  0.00     0.000 O
BRANCH 95 98
ATOM     96  C1  NAG B   7       5.524   1.880  21.7870  0.00  0.00     0.000 C
ATOM     97  C2  NAG B   7       5.545   3.393  21.6150  0.00  0.00     0.000 C
ATOM     98  C3  NAG B   7       6.749   3.669  20.7180  0.00  0.00     0.000 C
ATOM     99  C4  NAG B   7       8.024   3.166  21.3900  0.00  0.00     0.000 C
ATOM    100  C5  NAG B   7       7.889   1.694  21.7830  0.00  0.00     0.000 C
ATOM    101  O5  NAG B   7       6.695   1.524  22.5310  0.00  0.00     0.000 O
BRANCH 97 104
ATOM    102   N  NAG B   7       4.413   3.998  20.9000  0.00  0.00     0.000 N
ATOM    104  HD  NAG B   7       3.941   4.435  20.3200  0.00  0.00     0.000 HD
ATOM    104   O  NAG B   7       2.638   5.372  20.5970  0.00  0.00     0.000 OA
ATOM    105   C  NAG B   7       3.517   4.900  21.3440  0.00  0.00     0.000 C
ATOM    106   C  NAG B   7       3.590   5.355  22.7620  0.00  0.00     0.000 C
ENDBRANCH 97 104
ATOM    107   O  NAG B   7       9.063  -0.153  22.6310  0.00  0.00     0.000 O
ATOM    109  HD  NAG B   7       8.466   0.105  22.0590  0.00  0.00     0.000 HD
ATOM    109   O  NAG B   7       9.063  -0.153  22.6310  0.00  0.00     0.000 O
ATOM    111  HD  NAG B   7       8.466   0.105  22.0590  0.00  0.00     0.000 HD
ENDBRANCH 95 98
ENDBRANCH 82 95
ENDBRANCH 81 85
ENDBRANCH 65 81
ENDBRANCH 64 67
ENDBRANCH 51 64
ENDBRANCH 50 54
ENDBRANCH 34 50
ENDBRANCH 33 36
ENDBRANCH 20 33
ENDBRANCH 19 23
ENDBRANCH 1 19
TORSDOF 19
ENDMDL
MODEL 66
REMARK VINA RESULT:      -3.9     10.108     17.294
ROOT
ATOM      1  C1  NAG B   1      26.543   9.933  10.9360  0.00  0.00     0.000 C
ATOM      2  C2  NAG B   1      28.001   9.629  11.2660  0.00  0.00     0.000 C
ATOM      3  C3  NAG B   1      28.367  10.072  12.6680  0.00  0.00     0.000 C
ATOM      4  C4  NAG B   1      28.059  11.565  12.7180  0.00  0.00     0.000 C
ATOM      5  C5  NAG B   1      26.554  11.775  12.5080  0.00  0.00     0.000 C
ATOM      6  O5  NAG B   1      26.134  11.281  11.2190  0.00  0.00     0.000 O
ATOM      7   O  NAG B   1      29.758   9.822  12.9740  0.00  0.00     0.000 O
ATOM      9  HD  NAG B   1      29.554   9.149  12.4680  0.00  0.00     0.000 HD
ATOM      9   O  NAG B   1      28.450  12.102  13.9700  0.00  0.00     0.000 O
ATOM     11  HD  NAG B   1      28.246  11.430  13.4640  0.00  0.00     0.000 HD
ATOM     11   C  NAG B   1      26.203  13.257  12.6910  0.00  0.00     0.000 C
ATOM     12   O  NAG B   1      25.064  13.619  11.9110  0.00  0.00     0.000 O
ATOM     14  HD  NAG B   1      24.860  12.946  11.4050  0.00  0.00     0.000 HD
ENDROOT
BRANCH 2 16
ATOM     14   N  NAG B   1      28.287   8.198  11.0590  0.00  0.00     0.000 N
ATOM     16  HD  NAG B   1      28.082   7.519  10.5610  0.00  0.00     0.000 HD
ATOM     16   C  NAG B   1      29.116   7.745  10.1020  0.00  0.00     0.000 C
ATOM     17   C  NAG B   1      29.782   8.716   9.1640  0.00  0.00     0.000 C
ATOM     18   O  NAG B   1      29.368   6.546   9.9920  0.00  0.00     0.000 OA
ENDBRANCH 2 16
BRANCH 1 19
ATOM     19  O4  BDP B   2      26.495   9.798   9.5220  0.00  0.00     0.000 O
BRANCH 19 23
ATOM     20  C1  BDP B   2      22.421   9.255   9.3100  0.00  0.00     0.000 C
ATOM     21  C2  BDP B   2      23.257   8.007   9.5040  0.00  0.00     0.000 C
ATOM     22  C3  BDP B   2      24.650   8.349   9.9810  0.00  0.00     0.000 C
ATOM     23  C4  BDP B   2      25.255   9.366   9.0170  0.00  0.00     0.000 C
ATOM     24  C5  BDP B   2      24.340  10.570   8.9140  0.00  0.00     0.000 C
ATOM     25  O5  BDP B   2      23.073  10.163   8.4340  0.00  0.00     0.000 O
ATOM     26   O  BDP B   2      22.637   7.140  10.4290  0.00  0.00     0.000 O
ATOM     28  HD  BDP B   2      21.995   7.704  10.2870  0.00  0.00     0.000 HD
ATOM     28   O  BDP B   2      25.433   7.147  10.0600  0.00  0.00     0.000 O
ATOM     30  HD  BDP B   2      24.791   7.711   9.9180  0.00  0.00     0.000 HD
BRANCH 24 30
ATOM     30   C  BDP B   2      24.867  11.598   7.9780  0.00  0.00     0.000 C
ATOM     31   O  BDP B   2      25.062  12.747   8.4370  0.00  0.00     0.000 OA
ATOM     32   O  BDP B   2      25.082  11.264   6.7780  0.00  0.00     0.000 OA
ENDBRANCH 24 30
BRANCH 20 33
ATOM     33  O3  NAG B   3      21.245   8.785   8.6980  0.00  0.00     0.000 O
BRANCH 33 36
ATOM     34  C1  NAG B   3      17.930  10.469   9.2680  0.00  0.00     0.000 C
ATOM     35  C2  NAG B   3      19.088   9.521   9.5150  0.00  0.00     0.000 C
ATOM     36  C3  NAG B   3      20.264   9.818   8.5730  0.00  0.00     0.000 C
ATOM     37  C4  NAG B   3      19.762   9.851   7.1310  0.00  0.00     0.000 C
ATOM     38  C5  NAG B   3      18.547  10.767   7.0150  0.00  0.00     0.000 C
ATOM     39  O5  NAG B   3      17.533  10.341   7.9100  0.00  0.00     0.000 O
ATOM     40   O  NAG B   3      20.801  10.323   6.2600  0.00  0.00     0.000 O
ATOM     42  HD  NAG B   3      20.184  10.886   6.0320  0.00  0.00     0.000 HD
ATOM     42   C  NAG B   3      17.898  10.759   5.6330  0.00  0.00     0.000 C
ATOM     43   O  NAG B   3      17.345   9.463   5.3710  0.00  0.00     0.000 O
ATOM     45  HD  NAG B   3      16.728  10.026   5.1440  0.00  0.00     0.000 HD
BRANCH 35 47
ATOM     45   N  NAG B   3      19.085   8.436  10.4880  0.00  0.00     0.000 N
ATOM     47  HD  NAG B   3      19.149   8.152   9.6720  0.00  0.00     0.000 HD
ATOM     47   C  NAG B   3      19.690   8.519  11.6560  0.00  0.00     0.000 C
ATOM     48   C  NAG B   3      19.608   7.304  12.5310  0.00  0.00     0.000 C
ATOM     49   O  NAG B   3      20.310   9.524  11.9990  0.00  0.00     0.000 OA
ENDBRANCH 35 47
BRANCH 34 50
ATOM     50  O4  BDP B   4      16.915   9.988  10.1240  0.00  0.00     0.000 O
BRANCH 50 54
ATOM     51  C1  BDP B   4      13.720  11.047  12.4080  0.00  0.00     0.000 C
ATOM     52  C2  BDP B   4      13.496  11.184  10.9060  0.00  0.00     0.000 C
ATOM     53  C3  BDP B   4      14.572  10.427  10.1900  0.00  0.00     0.000 C
ATOM     54  C4  BDP B   4      15.968  10.924  10.6650  0.00  0.00     0.000 C
ATOM     55  C5  BDP B   4      16.084  10.962  12.1830  0.00  0.00     0.000 C
ATOM     56  O5  BDP B   4      14.963  11.632  12.7510  0.00  0.00     0.000 O
ATOM     57   O  BDP B   4      12.236  10.657  10.5480  0.00  0.00     0.000 O
ATOM     59  HD  BDP B   4      11.735  11.353  10.4270  0.00  0.00     0.000 HD
ATOM     59   O  BDP B   4      14.442  10.738   8.7880  0.00  0.00     0.000 O
ATOM     61  HD  BDP B   4      13.941  11.434   8.6670  0.00  0.00     0.000 HD
BRANCH 55 61
ATOM     61   C  BDP B   4      17.354  11.699  12.5690  0.00  0.00     0.000 C
ATOM     62   O  BDP B   4      18.014  11.265  13.5500  0.00  0.00     0.000 OA
ATOM     63   O  BDP B   4      17.692  12.714  11.8860  0.00  0.00     0.000 OA
ENDBRANCH 55 61
BRANCH 51 64
ATOM     64  O3  NAG B   5      12.635  11.730  13.0660  0.00  0.00     0.000 O
BRANCH 64 67
ATOM     65  C1  NAG B   5      10.869  10.319  15.9780  0.00  0.00     0.000 C
ATOM     66  C2  NAG B   5      11.220  10.564  14.5210  0.00  0.00     0.000 C
ATOM     67  C3  NAG B   5      12.510  11.369  14.4270  0.00  0.00     0.000 C
ATOM     68  C4  NAG B   5      12.431  12.638  15.2870  0.00  0.00     0.000 C
ATOM     69  C5  NAG B   5      11.984  12.303  16.7010  0.00  0.00     0.000 C
ATOM     70  O5  NAG B   5      10.764  11.547  16.6610  0.00  0.00     0.000 O
ATOM     71   O  NAG B   5      13.697  13.264  15.2860  0.00  0.00     0.000 O
ATOM     73  HD  NAG B   5      13.211  13.975  15.1990  0.00  0.00     0.000 HD
ATOM     73   C  NAG B   5      11.754  13.527  17.5990  0.00  0.00     0.000 C
ATOM     74   O  NAG B   5      10.668  14.316  17.0710  0.00  0.00     0.000 O
ATOM     76  HD  NAG B   5      10.181  15.027  16.9850  0.00  0.00     0.000 HD
BRANCH 66 78
ATOM     76   N  NAG B   5      10.342   9.874  13.5560  0.00  0.00     0.000 N
ATOM     78  HD  NAG B   5      11.186   9.891  13.7510  0.00  0.00     0.000 HD
ATOM     78   C  NAG B   5      10.687   8.837  12.7770  0.00  0.00     0.000 C
ATOM     79   C  NAG B   5       9.563   8.339  11.9100  0.00  0.00     0.000 C
ATOM     80   O  NAG B   5      11.863   8.326  12.7670  0.00  0.00     0.000 OA
ENDBRANCH 66 78
BRANCH 65 81
ATOM     81  O4  BDP B   6       9.631   9.601  16.0730  0.00  0.00     0.000 O
BRANCH 81 85
ATOM     82  C1  BDP B   6       7.805   6.470  18.3580  0.00  0.00     0.000 C
ATOM     83  C2  BDP B   6       7.988   7.824  19.0370  0.00  0.00     0.000 C
ATOM     84  C3  BDP B   6       8.256   8.957  18.0430  0.00  0.00     0.000 C
ATOM     85  C4  BDP B   6       9.398   8.617  17.0830  0.00  0.00     0.000 C
ATOM     86  C5  BDP B   6       9.119   7.216  16.4890  0.00  0.00     0.000 C
ATOM     87  O5  BDP B   6       8.932   6.208  17.5330  0.00  0.00     0.000 O
ATOM     88   O  BDP B   6       6.764   8.073  19.7240  0.00  0.00     0.000 O
ATOM     90  HD  BDP B   6       6.206   8.716  19.8820  0.00  0.00     0.000 HD
ATOM     90   O  BDP B   6       8.528  10.166  18.7560  0.00  0.00     0.000 O
ATOM     92  HD  BDP B   6       7.971  10.810  18.9140  0.00  0.00     0.000 HD
BRANCH 86 92
ATOM     92   C  BDP B   6      10.319   6.719  15.7200  0.00  0.00     0.000 C
ATOM     93   O  BDP B   6      11.483   6.924  16.1780  0.00  0.00     0.000 OA
ATOM     94   O  BDP B   6      10.102   6.085  14.6400  0.00  0.00     0.000 OA
ENDBRANCH 86 92
BRANCH 82 95
ATOM     95  O3  NAG B   7       7.758   5.453  19.3790  0.00  0.00     0.000 O
BRANCH 95 98
ATOM     96  C1  NAG B   7       6.162   2.265  20.1700  0.00  0.00     0.000 C
ATOM     97  C2  NAG B   7       6.918   3.555  20.4610  0.00  0.00     0.000 C
ATOM     98  C3  NAG B   7       7.106   4.216  19.0970  0.00  0.00     0.000 C
ATOM     99  C4  NAG B   7       7.906   3.294  18.1800  0.00  0.00     0.000 C
ATOM    100  C5  NAG B   7       7.258   1.911  18.0950  0.00  0.00     0.000 C
ATOM    101  O5  NAG B   7       7.039   1.425  19.4110  0.00  0.00     0.000 O
BRANCH 97 104
ATOM    102   N  NAG B   7       6.866   4.563  21.5290  0.00  0.00     0.000 N
ATOM    104  HD  NAG B   7       6.945   4.959  22.2950  0.00  0.00     0.000 HD
ATOM    104   O  NAG B   7       5.899   5.990  22.9970  0.00  0.00     0.000 OA
ATOM    105   C  NAG B   7       5.794   5.194  22.0430  0.00  0.00     0.000 C
ATOM    106   C  NAG B   7       4.447   4.923  21.4650  0.00  0.00     0.000 C
ENDBRANCH 97 104
ATOM    107   O  NAG B   7       7.360  -0.161  17.0000  0.00  0.00     0.000 O
ATOM    109  HD  NAG B   7       6.831   0.446  17.3200  0.00  0.00     0.000 HD
ATOM    109   O  NAG B   7       7.360  -0.161  17.0000  0.00  0.00     0.000 O
ATOM    111  HD  NAG B   7       6.831   0.446  17.3200  0.00  0.00     0.000 HD
ENDBRANCH 95 98
ENDBRANCH 82 95
ENDBRANCH 81 85
ENDBRANCH 65 81
ENDBRANCH 64 67
ENDBRANCH 51 64
ENDBRANCH 50 54
ENDBRANCH 34 50
ENDBRANCH 33 36
ENDBRANCH 20 33
ENDBRANCH 19 23
ENDBRANCH 1 19
TORSDOF 19
ENDMDL
MODEL 67
REMARK VINA RESULT:      -3.9      5.804      7.433
ROOT
ATOM      1  C1  NAG B   1       6.639  20.705   9.6690  0.00  0.00     0.000 C
ATOM      2  C2  NAG B   1       6.248  22.126  10.0640  0.00  0.00     0.000 C
ATOM      3  C3  NAG B   1       4.763  22.247  10.3380  0.00  0.00     0.000 C
ATOM      4  C4  NAG B   1       4.073  21.789   9.0570  0.00  0.00     0.000 C
ATOM      5  C5  NAG B   1       4.411  20.314   8.8040  0.00  0.00     0.000 C
ATOM      6  O5  NAG B   1       5.832  20.128   8.6300  0.00  0.00     0.000 O
ATOM      7   O  NAG B   1       4.378  23.600  10.6740  0.00  0.00     0.000 O
ATOM      9  HD  NAG B   1       5.167  23.537  11.0270  0.00  0.00     0.000 HD
ATOM      9   O  NAG B   1       2.669  21.945   9.1760  0.00  0.00     0.000 O
ATOM     11  HD  NAG B   1       3.457  21.882   9.5290  0.00  0.00     0.000 HD
ATOM     11   C  NAG B   1       3.619  19.795   7.5970  0.00  0.00     0.000 C
ATOM     12   O  NAG B   1       4.319  18.746   6.9310  0.00  0.00     0.000 O
ATOM     14  HD  NAG B   1       5.108  18.682   7.2840  0.00  0.00     0.000 HD
ENDROOT
BRANCH 2 16
ATOM     14   N  NAG B   1       7.039  22.589  11.2180  0.00  0.00     0.000 N
ATOM     16  HD  NAG B   1       7.817  22.522  11.5910  0.00  0.00     0.000 HD
ATOM     16   C  NAG B   1       7.949  23.574  11.1370  0.00  0.00     0.000 C
ATOM     17   C  NAG B   1       8.219  24.242   9.8150  0.00  0.00     0.000 C
ATOM     18   O  NAG B   1       8.555  23.967  12.1340  0.00  0.00     0.000 OA
ENDBRANCH 2 16
BRANCH 1 19
ATOM     19  O4  BDP B   2       7.936  20.869   9.1130  0.00  0.00     0.000 O
BRANCH 19 23
ATOM     20  C1  BDP B   2      11.258  18.492   8.6060  0.00  0.00     0.000 C
ATOM     21  C2  BDP B   2      10.005  18.061   7.8730  0.00  0.00     0.000 C
ATOM     22  C3  BDP B   2       9.005  19.193   7.7850  0.00  0.00     0.000 C
ATOM     23  C4  BDP B   2       8.756  19.727   9.1920  0.00  0.00     0.000 C
ATOM     24  C5  BDP B   2      10.075  20.136   9.8180  0.00  0.00     0.000 C
ATOM     25  O5  BDP B   2      10.934  19.013   9.8870  0.00  0.00     0.000 O
ATOM     26   O  BDP B   2      10.327  17.609   6.5750  0.00  0.00     0.000 O
ATOM     28  HD  BDP B   2      11.117  17.655   6.9270  0.00  0.00     0.000 HD
ATOM     28   O  BDP B   2       7.800  18.713   7.1680  0.00  0.00     0.000 O
ATOM     30  HD  BDP B   2       8.591  18.759   7.5200  0.00  0.00     0.000 HD
BRANCH 24 30
ATOM     30   C  BDP B   2       9.904  20.657  11.2000  0.00  0.00     0.000 C
ATOM     31   O  BDP B   2      10.687  21.561  11.5730  0.00  0.00     0.000 OA
ATOM     32   O  BDP B   2       8.993  20.160  11.9210  0.00  0.00     0.000 OA
ENDBRANCH 24 30
BRANCH 20 33
ATOM     33  O3  NAG B   3      11.987  17.299   8.7630  0.00  0.00     0.000 O
BRANCH 33 36
ATOM     34  C1  NAG B   3      15.686  17.196   9.4410  0.00  0.00     0.000 C
ATOM     35  C2  NAG B   3      14.403  17.197   8.6320  0.00  0.00     0.000 C
ATOM     36  C3  NAG B   3      13.185  17.506   9.5160  0.00  0.00     0.000 C
ATOM     37  C4  NAG B   3      13.181  16.566  10.7190  0.00  0.00     0.000 C
ATOM     38  C5  NAG B   3      14.544  16.580  11.4060  0.00  0.00     0.000 C
ATOM     39  O5  NAG B   3      15.557  16.233  10.4770  0.00  0.00     0.000 O
ATOM     40   O  NAG B   3      12.170  16.970  11.6550  0.00  0.00     0.000 O
ATOM     42  HD  NAG B   3      12.845  16.963  12.1980  0.00  0.00     0.000 HD
ATOM     42   C  NAG B   3      14.673  15.570  12.5430  0.00  0.00     0.000 C
ATOM     43   O  NAG B   3      14.598  14.240  12.0130  0.00  0.00     0.000 O
ATOM     45  HD  NAG B   3      15.273  14.234  12.5560  0.00  0.00     0.000 HD
BRANCH 35 47
ATOM     45   N  NAG B   3      14.311  16.903   7.2080  0.00  0.00     0.000 N
ATOM     47  HD  NAG B   3      13.890  16.324   7.6960  0.00  0.00     0.000 HD
ATOM     47   C  NAG B   3      14.184  17.840   6.2890  0.00  0.00     0.000 C
ATOM     48   C  NAG B   3      14.082  17.364   4.8700  0.00  0.00     0.000 C
ATOM     49   O  NAG B   3      14.125  19.033   6.5790  0.00  0.00     0.000 OA
ENDBRANCH 35 47
BRANCH 34 50
ATOM     50  O4  BDP B   4      16.667  16.790   8.5110  0.00  0.00     0.000 O
BRANCH 50 54
ATOM     51  C1  BDP B   4      20.647  17.033   7.7020  0.00  0.00     0.000 C
ATOM     52  C2  BDP B   4      20.311  16.892   9.1830  0.00  0.00     0.000 C
ATOM     53  C3  BDP B   4      18.888  16.442   9.3100  0.00  0.00     0.000 C
ATOM     54  C4  BDP B   4      17.956  17.427   8.5460  0.00  0.00     0.000 C
ATOM     55  C5  BDP B   4      18.439  17.699   7.1280  0.00  0.00     0.000 C
ATOM     56  O5  BDP B   4      19.824  18.033   7.1290  0.00  0.00     0.000 O
ATOM     57   O  BDP B   4      21.158  15.939   9.7890  0.00  0.00     0.000 O
ATOM     59  HD  BDP B   4      21.737  16.410  10.2280  0.00  0.00     0.000 HD
ATOM     59   O  BDP B   4      18.550  16.507  10.7110  0.00  0.00     0.000 O
ATOM     61  HD  BDP B   4      19.129  16.978  11.1500  0.00  0.00     0.000 HD
BRANCH 55 61
ATOM     61   C  BDP B   4      17.648  18.855   6.5430  0.00  0.00     0.000 C
ATOM     62   O  BDP B   4      17.368  18.819   5.3160  0.00  0.00     0.000 OA
ATOM     63   O  BDP B   4      17.305  19.801   7.3160  0.00  0.00     0.000 OA
ENDBRANCH 55 61
BRANCH 51 64
ATOM     64  O3  NAG B   5      22.037  17.403   7.6140  0.00  0.00     0.000 O
BRANCH 64 67
ATOM     65  C1  NAG B   5      24.488  15.762   5.4020  0.00  0.00     0.000 C
ATOM     66  C2  NAG B   5      23.656  16.016   6.6470  0.00  0.00     0.000 C
ATOM     67  C3  NAG B   5      22.606  17.082   6.3600  0.00  0.00     0.000 C
ATOM     68  C4  NAG B   5      23.248  18.338   5.7540  0.00  0.00     0.000 C
ATOM     69  C5  NAG B   5      24.134  17.973   4.5740  0.00  0.00     0.000 C
ATOM     70  O5  NAG B   5      25.078  16.965   4.9640  0.00  0.00     0.000 O
ATOM     71   O  NAG B   5      22.223  19.228   5.3680  0.00  0.00     0.000 O
ATOM     73  HD  NAG B   5      22.762  19.810   5.7160  0.00  0.00     0.000 HD
ATOM     73   C  NAG B   5      24.918  19.153   3.9830  0.00  0.00     0.000 C
ATOM     74   O  NAG B   5      25.846  19.658   4.9660  0.00  0.00     0.000 O
ATOM     76  HD  NAG B   5      26.385  20.240   5.3140  0.00  0.00     0.000 HD
BRANCH 66 78
ATOM     76   N  NAG B   5      23.924  15.140   7.8040  0.00  0.00     0.000 N
ATOM     78  HD  NAG B   5      23.261  15.310   7.2730  0.00  0.00     0.000 HD
ATOM     78   C  NAG B   5      23.140  14.140   8.2350  0.00  0.00     0.000 C
ATOM     79   C  NAG B   5      23.695  13.416   9.4310  0.00  0.00     0.000 C
ATOM     80   O  NAG B   5      22.021  13.837   7.6860  0.00  0.00     0.000 OA
ENDBRANCH 66 78
BRANCH 65 81
ATOM     81  O4  BDP B   6      25.507  14.793   5.6800  0.00  0.00     0.000 O
BRANCH 81 85
ATOM     82  C1  BDP B   6      27.594  11.562   3.7900  0.00  0.00     0.000 C
ATOM     83  C2  BDP B   6      27.864  12.973   3.2760  0.00  0.00     0.000 C
ATOM     84  C3  BDP B   6      27.408  14.060   4.2520  0.00  0.00     0.000 C
ATOM     85  C4  BDP B   6      25.957  13.859   4.6960  0.00  0.00     0.000 C
ATOM     86  C5  BDP B   6      25.801  12.391   5.1600  0.00  0.00     0.000 C
ATOM     87  O5  BDP B   6      26.218  11.444   4.1250  0.00  0.00     0.000 O
ATOM     88   O  BDP B   6      29.276  13.050   3.1020  0.00  0.00     0.000 O
ATOM     90  HD  BDP B   6      29.937  13.594   3.2360  0.00  0.00     0.000 HD
ATOM     90   O  BDP B   6      27.588  15.347   3.6560  0.00  0.00     0.000 O
ATOM     92  HD  BDP B   6      28.248  15.891   3.7900  0.00  0.00     0.000 HD
BRANCH 86 92
ATOM     92   C  BDP B   6      24.346  12.059   5.3850  0.00  0.00     0.000 C
ATOM     93   O  BDP B   6      24.011  11.380   6.4020  0.00  0.00     0.000 OA
ATOM     94   O  BDP B   6      23.506  12.503   4.5420  0.00  0.00     0.000 OA
ENDBRANCH 86 92
BRANCH 82 95
ATOM     95  O3  NAG B   7      27.872  10.630   2.7270  0.00  0.00     0.000 O
BRANCH 95 98
ATOM     96  C1  NAG B   7      29.711   7.486   2.4600  0.00  0.00     0.000 C
ATOM     97  C2  NAG B   7      29.308   8.901   2.0690  0.00  0.00     0.000 C
ATOM     98  C3  NAG B   7      28.204   9.281   3.0540  0.00  0.00     0.000 C
ATOM     99  C4  NAG B   7      27.034   8.310   2.9200  0.00  0.00     0.000 C
ATOM    100  C5  NAG B   7      27.505   6.863   3.0720  0.00  0.00     0.000 C
ATOM    101  O5  NAG B   7      28.591   6.638   2.1860  0.00  0.00     0.000 O
BRANCH 97 104
ATOM    102   N  NAG B   7      30.330   9.945   2.2340  0.00  0.00     0.000 N
ATOM    104  HD  NAG B   7      30.749  10.656   2.4950  0.00  0.00     0.000 HD
ATOM    104   O  NAG B   7      31.686  11.646   1.6050  0.00  0.00     0.000 OA
ATOM    105   C  NAG B   7      30.863  10.759   1.3030  0.00  0.00     0.000 C
ATOM    106   C  NAG B   7      30.448  10.603  -0.1200  0.00  0.00     0.000 C
ENDBRANCH 97 104
ATOM    107   O  NAG B   7      26.768   4.642   3.2460  0.00  0.00     0.000 O
ATOM    109  HD  NAG B   7      27.344   5.222   3.5330  0.00  0.00     0.000 HD
ATOM    109   O  NAG B   7      26.768   4.642   3.2460  0.00  0.00     0.000 O
ATOM    111  HD  NAG B   7      27.344   5.222   3.5330  0.00  0.00     0.000 HD
ENDBRANCH 95 98
ENDBRANCH 82 95
ENDBRANCH 81 85
ENDBRANCH 65 81
ENDBRANCH 64 67
ENDBRANCH 51 64
ENDBRANCH 50 54
ENDBRANCH 34 50
ENDBRANCH 33 36
ENDBRANCH 20 33
ENDBRANCH 19 23
ENDBRANCH 1 19
TORSDOF 19
ENDMDL
MODEL 68
REMARK VINA RESULT:      -3.7     10.214     19.291
ROOT
ATOM      1  C1  NAG B   1      33.210   9.805  15.4790  0.00  0.00     0.000 C
ATOM      2  C2  NAG B   1      33.887  10.325  16.7440  0.00  0.00     0.000 C
ATOM      3  C3  NAG B   1      33.369  11.693  17.1390  0.00  0.00     0.000 C
ATOM      4  C4  NAG B   1      33.625  12.591  15.9330  0.00  0.00     0.000 C
ATOM      5  C5  NAG B   1      32.807  12.076  14.7410  0.00  0.00     0.000 C
ATOM      6  O5  NAG B   1      33.197  10.733  14.3830  0.00  0.00     0.000 O
ATOM      7   O  NAG B   1      34.034  12.209  18.3150  0.00  0.00     0.000 O
ATOM      9  HD  NAG B   1      34.001  11.359  18.4770  0.00  0.00     0.000 HD
ATOM      9   O  NAG B   1      33.253  13.926  16.2300  0.00  0.00     0.000 O
ATOM     11  HD  NAG B   1      33.221  13.076  16.3920  0.00  0.00     0.000 HD
ATOM     11   C  NAG B   1      32.942  13.042  13.5570  0.00  0.00     0.000 C
ATOM     12   O  NAG B   1      32.796  12.360  12.3130  0.00  0.00     0.000 O
ATOM     14  HD  NAG B   1      32.764  11.510  12.4750  0.00  0.00     0.000 HD
ENDROOT
BRANCH 2 16
ATOM     14   N  NAG B   1      34.881   9.341  17.2080  0.00  0.00     0.000 N
ATOM     16  HD  NAG B   1      35.560   9.244  17.7370  0.00  0.00     0.000 HD
ATOM     16   C  NAG B   1      34.778   8.686  18.3770  0.00  0.00     0.000 C
ATOM     17   C  NAG B   1      33.617   8.966  19.2940  0.00  0.00     0.000 C
ATOM     18   O  NAG B   1      35.602   7.835  18.7070  0.00  0.00     0.000 OA
ENDBRANCH 2 16
BRANCH 1 19
ATOM     19  O4  BDP B   2      34.056   8.736  15.0760  0.00  0.00     0.000 O
BRANCH 19 23
ATOM     20  C1  BDP B   2      31.132   6.635  13.0820  0.00  0.00     0.000 C
ATOM     21  C2  BDP B   2      31.274   6.350  14.5620  0.00  0.00     0.000 C
ATOM     22  C3  BDP B   2      32.054   7.442  15.2580  0.00  0.00     0.000 C
ATOM     23  C4  BDP B   2      33.379   7.631  14.5260  0.00  0.00     0.000 C
ATOM     24  C5  BDP B   2      33.111   7.921  13.0630  0.00  0.00     0.000 C
ATOM     25  O5  BDP B   2      32.406   6.837  12.4870  0.00  0.00     0.000 O
ATOM     26   O  BDP B   2      30.002   6.218  15.1600  0.00  0.00     0.000 O
ATOM     28  HD  BDP B   2      29.784   6.204  14.3220  0.00  0.00     0.000 HD
ATOM     28   O  BDP B   2      32.244   7.084  16.6360  0.00  0.00     0.000 O
ATOM     30  HD  BDP B   2      32.026   7.070  15.7980  0.00  0.00     0.000 HD
BRANCH 24 30
ATOM     30   C  BDP B   2      34.366   8.104  12.2870  0.00  0.00     0.000 C
ATOM     31   O  BDP B   2      35.111   7.106  12.1570  0.00  0.00     0.000 OA
ATOM     32   O  BDP B   2      34.616   9.248  11.8110  0.00  0.00     0.000 OA
ENDBRANCH 24 30
BRANCH 20 33
ATOM     33  O3  NAG B   3      30.561   5.459  12.5620  0.00  0.00     0.000 O
BRANCH 33 36
ATOM     34  C1  NAG B   3      28.236   5.531   9.6050  0.00  0.00     0.000 C
ATOM     35  C2  NAG B   3      28.667   5.587  11.0580  0.00  0.00     0.000 C
ATOM     36  C3  NAG B   3      30.198   5.610  11.1870  0.00  0.00     0.000 C
ATOM     37  C4  NAG B   3      30.789   4.450  10.3900  0.00  0.00     0.000 C
ATOM     38  C5  NAG B   3      30.223   4.439   8.9720  0.00  0.00     0.000 C
ATOM     39  O5  NAG B   3      28.808   4.372   9.0170  0.00  0.00     0.000 O
ATOM     40   O  NAG B   3      32.219   4.571  10.3330  0.00  0.00     0.000 O
ATOM     42  HD  NAG B   3      32.066   4.512   9.4830  0.00  0.00     0.000 HD
ATOM     42   C  NAG B   3      30.661   3.235   8.1420  0.00  0.00     0.000 C
ATOM     43   O  NAG B   3      30.116   2.038   8.7100  0.00  0.00     0.000 O
ATOM     45  HD  NAG B   3      29.963   1.979   7.8600  0.00  0.00     0.000 HD
BRANCH 35 47
ATOM     45   N  NAG B   3      27.738   5.585  12.1810  0.00  0.00     0.000 N
ATOM     47  HD  NAG B   3      28.225   4.869  12.1500  0.00  0.00     0.000 HD
ATOM     47   C  NAG B   3      27.449   6.668  12.8760  0.00  0.00     0.000 C
ATOM     48   C  NAG B   3      26.489   6.486  14.0140  0.00  0.00     0.000 C
ATOM     49   O  NAG B   3      27.957   7.758  12.6230  0.00  0.00     0.000 OA
ENDBRANCH 35 47
BRANCH 34 50
ATOM     50  O4  BDP B   4      26.831   5.404   9.6780  0.00  0.00     0.000 O
BRANCH 50 54
ATOM     51  C1  BDP B   4      23.390   5.903   7.5660  0.00  0.00     0.000 C
ATOM     52  C2  BDP B   4      24.033   4.530   7.4100  0.00  0.00     0.000 C
ATOM     53  C3  BDP B   4      25.047   4.349   8.4980  0.00  0.00     0.000 C
ATOM     54  C4  BDP B   4      26.065   5.526   8.4680  0.00  0.00     0.000 C
ATOM     55  C5  BDP B   4      25.379   6.884   8.4230  0.00  0.00     0.000 C
ATOM     56  O5  BDP B   4      24.379   6.904   7.4070  0.00  0.00     0.000 O
ATOM     57   O  BDP B   4      23.055   3.517   7.5100  0.00  0.00     0.000 O
ATOM     59  HD  BDP B   4      22.920   3.263   6.6930  0.00  0.00     0.000 HD
ATOM     59   O  BDP B   4      25.765   3.133   8.2050  0.00  0.00     0.000 O
ATOM     61  HD  BDP B   4      25.630   2.879   7.3880  0.00  0.00     0.000 HD
BRANCH 55 61
ATOM     61   C  BDP B   4      26.411   7.957   8.1280  0.00  0.00     0.000 C
ATOM     62   O  BDP B   4      27.079   7.858   7.0650  0.00  0.00     0.000 OA
ATOM     63   O  BDP B   4      26.551   8.902   8.9630  0.00  0.00     0.000 OA
ENDBRANCH 55 61
BRANCH 51 64
ATOM     64  O3  NAG B   5      22.378   6.019   6.5480  0.00  0.00     0.000 O
BRANCH 64 67
ATOM     65  C1  NAG B   5      19.152   7.654   7.2640  0.00  0.00     0.000 C
ATOM     66  C2  NAG B   5      20.208   6.563   7.2370  0.00  0.00     0.000 C
ATOM     67  C3  NAG B   5      21.532   7.134   6.7460  0.00  0.00     0.000 C
ATOM     68  C4  NAG B   5      21.351   7.880   5.4170  0.00  0.00     0.000 C
ATOM     69  C5  NAG B   5      20.213   8.884   5.5140  0.00  0.00     0.000 C
ATOM     70  O5  NAG B   5      19.024   8.232   5.9850  0.00  0.00     0.000 O
ATOM     71   O  NAG B   5      22.567   8.516   5.0860  0.00  0.00     0.000 O
ATOM     73  HD  NAG B   5      22.366   8.223   4.2970  0.00  0.00     0.000 HD
ATOM     73   C  NAG B   5      19.875   9.588   4.1930  0.00  0.00     0.000 C
ATOM     74   O  NAG B   5      19.398   8.619   3.2360  0.00  0.00     0.000 O
ATOM     76  HD  NAG B   5      19.198   8.325   2.4470  0.00  0.00     0.000 HD
BRANCH 66 78
ATOM     76   N  NAG B   5      20.263   6.028   8.6110  0.00  0.00     0.000 N
ATOM     78  HD  NAG B   5      20.070   5.733   7.8200  0.00  0.00     0.000 HD
ATOM     78   C  NAG B   5      20.190   4.734   8.9580  0.00  0.00     0.000 C
ATOM     79   C  NAG B   5      20.296   4.503  10.4410  0.00  0.00     0.000 C
ATOM     80   O  NAG B   5      20.035   3.786   8.1080  0.00  0.00     0.000 OA
ENDBRANCH 66 78
BRANCH 65 81
ATOM     81  O4  BDP B   6      17.892   7.111   7.6810  0.00  0.00     0.000 O
BRANCH 81 85
ATOM     82  C1  BDP B   6      14.146   8.435   9.2860  0.00  0.00     0.000 C
ATOM     83  C2  BDP B   6      14.770   9.270   8.1710  0.00  0.00     0.000 C
ATOM     84  C3  BDP B   6      15.859   8.516   7.4020  0.00  0.00     0.000 C
ATOM     85  C4  BDP B   6      16.902   7.905   8.3390  0.00  0.00     0.000 C
ATOM     86  C5  BDP B   6      16.151   7.117   9.4390  0.00  0.00     0.000 C
ATOM     87  O5  BDP B   6      15.175   7.954  10.1390  0.00  0.00     0.000 O
ATOM     88   O  BDP B   6      13.698   9.589   7.2890  0.00  0.00     0.000 O
ATOM     90  HD  BDP B   6      13.522   9.640   6.4430  0.00  0.00     0.000 HD
ATOM     90   O  BDP B   6      16.473   9.395   6.4560  0.00  0.00     0.000 O
ATOM     92  HD  BDP B   6      16.298   9.446   5.6090  0.00  0.00     0.000 HD
BRANCH 86 92
ATOM     92   C  BDP B   6      17.104   6.688  10.5280  0.00  0.00     0.000 C
ATOM     93   O  BDP B   6      16.833   5.665  11.2270  0.00  0.00     0.000 OA
ATOM     94   O  BDP B   6      18.163   7.371  10.6830  0.00  0.00     0.000 OA
ENDBRANCH 86 92
BRANCH 82 95
ATOM     95  O3  NAG B   7      13.288   9.290  10.0670  0.00  0.00     0.000 O
BRANCH 95 98
ATOM     96  C1  NAG B   7       9.898   9.576  11.3950  0.00  0.00     0.000 C
ATOM     97  C2  NAG B   7      11.323  10.027  11.1070  0.00  0.00     0.000 C
ATOM     98  C3  NAG B   7      11.972   8.843  10.3920  0.00  0.00     0.000 C
ATOM     99  C4  NAG B   7      11.947   7.613  11.2960  0.00  0.00     0.000 C
ATOM    100  C5  NAG B   7      10.526   7.320  11.7800  0.00  0.00     0.000 C
ATOM    101  O5  NAG B   7       9.978   8.503  12.3410  0.00  0.00     0.000 O
BRANCH 97 104
ATOM    102   N  NAG B   7      11.400  11.202  10.2290  0.00  0.00     0.000 N
ATOM    104  HD  NAG B   7      11.513  11.710   9.5360  0.00  0.00     0.000 HD
ATOM    104   O  NAG B   7      12.174  13.197   9.4850  0.00  0.00     0.000 OA
ATOM    105   C  NAG B   7      12.174  12.298  10.3490  0.00  0.00     0.000 C
ATOM    106   C  NAG B   7      13.062  12.430  11.5390  0.00  0.00     0.000 C
ENDBRANCH 97 104
ATOM    107   O  NAG B   7       9.208   5.771  12.9490  0.00  0.00     0.000 O
ATOM    109  HD  NAG B   7       9.235   6.309  12.2710  0.00  0.00     0.000 HD
ATOM    109   O  NAG B   7       9.208   5.771  12.9490  0.00  0.00     0.000 O
ATOM    111  HD  NAG B   7       9.235   6.309  12.2710  0.00  0.00     0.000 HD
ENDBRANCH 95 98
ENDBRANCH 82 95
ENDBRANCH 81 85
ENDBRANCH 65 81
ENDBRANCH 64 67
ENDBRANCH 51 64
ENDBRANCH 50 54
ENDBRANCH 34 50
ENDBRANCH 33 36
ENDBRANCH 20 33
ENDBRANCH 19 23
ENDBRANCH 1 19
TORSDOF 19
ENDMDL
MODEL 69
REMARK VINA RESULT:      -3.7     10.046     15.177
ROOT
ATOM      1  C1  NAG B   1      12.264   7.183  22.1200  0.00  0.00     0.000 C
ATOM      2  C2  NAG B   1      12.217   7.094  23.6430  0.00  0.00     0.000 C
ATOM      3  C3  NAG B   1      13.604   7.110  24.2520  0.00  0.00     0.000 C
ATOM      4  C4  NAG B   1      14.340   5.931  23.6220  0.00  0.00     0.000 C
ATOM      5  C5  NAG B   1      14.460   6.162  22.1100  0.00  0.00     0.000 C
ATOM      6  O5  NAG B   1      13.158   6.251  21.4930  0.00  0.00     0.000 O
ATOM      7   O  NAG B   1      13.569   6.986  25.6920  0.00  0.00     0.000 O
ATOM      9  HD  NAG B   1      12.856   7.449  25.5270  0.00  0.00     0.000 HD
ATOM      9   O  NAG B   1      15.631   5.801  24.1920  0.00  0.00     0.000 O
ATOM     11  HD  NAG B   1      14.919   6.265  24.0270  0.00  0.00     0.000 HD
ATOM     11   C  NAG B   1      15.314   5.057  21.4780  0.00  0.00     0.000 C
ATOM     12   O  NAG B   1      14.940   4.825  20.1210  0.00  0.00     0.000 O
ATOM     14  HD  NAG B   1      14.227   5.288  19.9560  0.00  0.00     0.000 HD
ENDROOT
BRANCH 2 16
ATOM     14   N  NAG B   1      10.847   6.952  24.1660  0.00  0.00     0.000 N
ATOM     16  HD  NAG B   1      10.398   6.798  24.8910  0.00  0.00     0.000 HD
ATOM     16   C  NAG B   1      10.206   7.934  24.8230  0.00  0.00     0.000 C
ATOM     17   C  NAG B   1      10.900   9.246  25.0780  0.00  0.00     0.000 C
ATOM     18   O  NAG B   1       9.043   7.796  25.2020  0.00  0.00     0.000 OA
ENDBRANCH 2 16
BRANCH 1 19
ATOM     19  O4  BDP B   2      10.954   6.791  21.7320  0.00  0.00     0.000 O
BRANCH 19 23
ATOM     20  C1  BDP B   2      10.975   8.772  18.1240  0.00  0.00     0.000 C
ATOM     21  C2  BDP B   2      10.530   9.574  19.3300  0.00  0.00     0.000 C
ATOM     22  C3  BDP B   2      10.954   8.906  20.6180  0.00  0.00     0.000 C
ATOM     23  C4  BDP B   2      10.450   7.466  20.6040  0.00  0.00     0.000 C
ATOM     24  C5  BDP B   2      10.967   6.763  19.3640  0.00  0.00     0.000 C
ATOM     25  O5  BDP B   2      10.500   7.436  18.2100  0.00  0.00     0.000 O
ATOM     26   O  BDP B   2      11.063  10.879  19.2730  0.00  0.00     0.000 O
ATOM     28  HD  BDP B   2      11.244  10.601  18.4730  0.00  0.00     0.000 HD
ATOM     28   O  BDP B   2      10.431   9.650  21.7310  0.00  0.00     0.000 O
ATOM     30  HD  BDP B   2      10.611   9.371  20.9310  0.00  0.00     0.000 HD
BRANCH 24 30
ATOM     30   C  BDP B   2      10.502   5.354  19.2820  0.00  0.00     0.000 C
ATOM     31   O  BDP B   2      11.270   4.469  19.7260  0.00  0.00     0.000 OA
ATOM     32   O  BDP B   2       9.371   5.122  18.7660  0.00  0.00     0.000 OA
ENDBRANCH 24 30
BRANCH 20 33
ATOM     33  O3  NAG B   3      10.353   9.415  17.0390  0.00  0.00     0.000 O
BRANCH 33 36
ATOM     34  C1  NAG B   3      11.262   8.596  13.4820  0.00  0.00     0.000 C
ATOM     35  C2  NAG B   3      11.338   9.285  14.8310  0.00  0.00     0.000 C
ATOM     36  C3  NAG B   3      10.403   8.619  15.8520  0.00  0.00     0.000 C
ATOM     37  C4  NAG B   3       8.998   8.521  15.2630  0.00  0.00     0.000 C
ATOM     38  C5  NAG B   3       9.050   7.892  13.8730  0.00  0.00     0.000 C
ATOM     39  O5  NAG B   3       9.914   8.640  13.0360  0.00  0.00     0.000 O
ATOM     40   O  NAG B   3       8.162   7.726  16.1170  0.00  0.00     0.000 O
ATOM     42  HD  NAG B   3       8.034   7.290  15.3790  0.00  0.00     0.000 HD
ATOM     42   C  NAG B   3       7.704   7.874  13.1540  0.00  0.00     0.000 C
ATOM     43   O  NAG B   3       7.289   9.217  12.8780  0.00  0.00     0.000 O
ATOM     45  HD  NAG B   3       7.162   8.782  12.1410  0.00  0.00     0.000 HD
BRANCH 35 47
ATOM     45   N  NAG B   3      12.120  10.460  15.1950  0.00  0.00     0.000 N
ATOM     47  HD  NAG B   3      11.271  10.571  15.3250  0.00  0.00     0.000 HD
ATOM     47   C  NAG B   3      13.302  10.384  15.7730  0.00  0.00     0.000 C
ATOM     48   C  NAG B   3      13.963  11.690  16.0990  0.00  0.00     0.000 C
ATOM     49   O  NAG B   3      13.822   9.306  16.0530  0.00  0.00     0.000 OA
ENDBRANCH 35 47
BRANCH 34 50
ATOM     50  O4  BDP B   4      12.082   9.393  12.6530  0.00  0.00     0.000 O
BRANCH 50 54
ATOM     51  C1  BDP B   4      14.064   9.526   9.1020  0.00  0.00     0.000 C
ATOM     52  C2  BDP B   4      12.557   9.732   8.9930  0.00  0.00     0.000 C
ATOM     53  C3  BDP B   4      12.015  10.033  10.3560  0.00  0.00     0.000 C
ATOM     54  C4  BDP B   4      12.423   8.903  11.3450  0.00  0.00     0.000 C
ATOM     55  C5  BDP B   4      13.910   8.586  11.2810  0.00  0.00     0.000 C
ATOM     56  O5  BDP B   4      14.323   8.405   9.9290  0.00  0.00     0.000 O
ATOM     57   O  BDP B   4      12.273  10.811   8.1280  0.00  0.00     0.000 O
ATOM     59  HD  BDP B   4      12.016  10.437   7.3900  0.00  0.00     0.000 HD
ATOM     59   O  BDP B   4      10.576  10.030  10.2460  0.00  0.00     0.000 O
ATOM     61  HD  BDP B   4      10.320   9.656   9.5080  0.00  0.00     0.000 HD
BRANCH 55 61
ATOM     61   C  BDP B   4      14.186   7.313  12.0610  0.00  0.00     0.000 C
ATOM     62   O  BDP B   4      13.797   6.222  11.5680  0.00  0.00     0.000 OA
ATOM     63   O  BDP B   4      14.795   7.409  13.1700  0.00  0.00     0.000 OA
ENDBRANCH 55 61
BRANCH 51 64
ATOM     64  O3  NAG B   5      14.562   9.303   7.7690  0.00  0.00     0.000 O
BRANCH 64 67
ATOM     65  C1  NAG B   5      17.848  10.565   6.6700  0.00  0.00     0.000 C
ATOM     66  C2  NAG B   5      16.363  10.580   6.9910  0.00  0.00     0.000 C
ATOM     67  C3  NAG B   5      15.975   9.295   7.7110  0.00  0.00     0.000 C
ATOM     68  C4  NAG B   5      16.447   8.061   6.9290  0.00  0.00     0.000 C
ATOM     69  C5  NAG B   5      17.921   8.181   6.5740  0.00  0.00     0.000 C
ATOM     70  O5  NAG B   5      18.163   9.426   5.9030  0.00  0.00     0.000 O
ATOM     71   O  NAG B   5      16.200   6.911   7.7080  0.00  0.00     0.000 O
ATOM     73  HD  NAG B   5      15.944   6.595   6.9440  0.00  0.00     0.000 HD
ATOM     73   C  NAG B   5      18.450   7.050   5.6810  0.00  0.00     0.000 C
ATOM     74   O  NAG B   5      17.784   7.092   4.4020  0.00  0.00     0.000 O
ATOM     76  HD  NAG B   5      17.528   6.777   3.6370  0.00  0.00     0.000 HD
BRANCH 66 78
ATOM     76   N  NAG B   5      15.548  11.773   6.6880  0.00  0.00     0.000 N
ATOM     78  HD  NAG B   5      15.854  11.372   7.3920  0.00  0.00     0.000 HD
ATOM     78   C  NAG B   5      15.206  12.736   7.5580  0.00  0.00     0.000 C
ATOM     79   C  NAG B   5      14.384  13.836   6.9430  0.00  0.00     0.000 C
ATOM     80   O  NAG B   5      15.541  12.717   8.7960  0.00  0.00     0.000 OA
ENDBRANCH 66 78
BRANCH 65 81
ATOM     81  O4  BDP B   6      18.209  11.752   5.9520  0.00  0.00     0.000 O
BRANCH 81 85
ATOM     82  C1  BDP B   6      21.471  14.500   5.5380  0.00  0.00     0.000 C
ATOM     83  C2  BDP B   6      21.712  13.050   5.1240  0.00  0.00     0.000 C
ATOM     84  C3  BDP B   6      20.414  12.265   4.9220  0.00  0.00     0.000 C
ATOM     85  C4  BDP B   6      19.476  12.390   6.1240  0.00  0.00     0.000 C
ATOM     86  C5  BDP B   6      19.339  13.892   6.4670  0.00  0.00     0.000 C
ATOM     87  O5  BDP B   6      20.641  14.522   6.6900  0.00  0.00     0.000 O
ATOM     88   O  BDP B   6      22.425  13.120   3.8920  0.00  0.00     0.000 O
ATOM     90  HD  BDP B   6      22.450  12.741   3.1140  0.00  0.00     0.000 HD
ATOM     90   O  BDP B   6      20.719  10.895   4.6500  0.00  0.00     0.000 O
ATOM     92  HD  BDP B   6      20.745  10.516   3.8720  0.00  0.00     0.000 HD
BRANCH 86 92
ATOM     92   C  BDP B   6      18.622  14.072   7.7830  0.00  0.00     0.000 C
ATOM     93   O  BDP B   6      18.862  13.274   8.7390  0.00  0.00     0.000 OA
ATOM     94   O  BDP B   6      17.813  15.047   7.8810  0.00  0.00     0.000 OA
ENDBRANCH 86 92
BRANCH 82 95
ATOM     95  O3  NAG B   7      22.738  15.087   5.8930  0.00  0.00     0.000 O
BRANCH 95 98
ATOM     96  C1  NAG B   7      24.937  17.787   4.7890  0.00  0.00     0.000 C
ATOM     97  C2  NAG B   7      24.589  16.424   5.3740  0.00  0.00     0.000 C
ATOM     98  C3  NAG B   7      23.063  16.388   5.4040  0.00  0.00     0.000 C
ATOM     99  C4  NAG B   7      22.533  17.522   6.2770  0.00  0.00     0.000 C
ATOM    100  C5  NAG B   7      23.095  18.870   5.8220  0.00  0.00     0.000 C
ATOM    101  O5  NAG B   7      24.508  18.773   5.7350  0.00  0.00     0.000 O
BRANCH 97 104
ATOM    102   N  NAG B   7      24.961  15.241   4.5860  0.00  0.00     0.000 N
ATOM    104  HD  NAG B   7      24.920  14.501   4.1380  0.00  0.00     0.000 HD
ATOM    104   O  NAG B   7      25.978  13.264   4.1550  0.00  0.00     0.000 OA
ATOM    105   C  NAG B   7      25.805  14.243   4.9080  0.00  0.00     0.000 C
ATOM    106   C  NAG B   7      26.540  14.304   6.2030  0.00  0.00     0.000 C
ENDBRANCH 97 104
ATOM    107   O  NAG B   7      22.953  21.188   6.1530  0.00  0.00     0.000 O
ATOM    109  HD  NAG B   7      23.044  20.561   5.5620  0.00  0.00     0.000 HD
ATOM    109   O  NAG B   7      22.953  21.188   6.1530  0.00  0.00     0.000 O
ATOM    111  HD  NAG B   7      23.044  20.561   5.5620  0.00  0.00     0.000 HD
ENDBRANCH 95 98
ENDBRANCH 82 95
ENDBRANCH 81 85
ENDBRANCH 65 81
ENDBRANCH 64 67
ENDBRANCH 51 64
ENDBRANCH 50 54
ENDBRANCH 34 50
ENDBRANCH 33 36
ENDBRANCH 20 33
ENDBRANCH 19 23
ENDBRANCH 1 19
TORSDOF 19
ENDMDL
MODEL 70
REMARK VINA RESULT:      -3.7     11.184     18.086
ROOT
ATOM      1  C1  NAG B   1      22.229  32.169  17.9890  0.00  0.00     0.000 C
ATOM      2  C2  NAG B   1      21.335  32.953  18.9470  0.00  0.00     0.000 C
ATOM      3  C3  NAG B   1      21.902  32.982  20.3510  0.00  0.00     0.000 C
ATOM      4  C4  NAG B   1      22.052  31.520  20.7610  0.00  0.00     0.000 C
ATOM      5  C5  NAG B   1      23.065  30.838  19.8320  0.00  0.00     0.000 C
ATOM      6  O5  NAG B   1      22.615  30.868  18.4610  0.00  0.00     0.000 O
ATOM      7   O  NAG B   1      21.041  33.690  21.2720  0.00  0.00     0.000 O
ATOM      9  HD  NAG B   1      20.933  34.134  20.5370  0.00  0.00     0.000 HD
ATOM      9   O  NAG B   1      22.497  31.433  22.1040  0.00  0.00     0.000 O
ATOM     11  HD  NAG B   1      22.389  31.877  21.3690  0.00  0.00     0.000 HD
ATOM     11   C  NAG B   1      23.333  29.406  20.3110  0.00  0.00     0.000 C
ATOM     12   O  NAG B   1      23.691  28.555  19.2240  0.00  0.00     0.000 O
ATOM     14  HD  NAG B   1      23.583  28.999  18.4880  0.00  0.00     0.000 HD
ENDROOT
BRANCH 2 16
ATOM     14   N  NAG B   1      21.112  34.276  18.3380  0.00  0.00     0.000 N
ATOM     16  HD  NAG B   1      20.954  34.670  17.5830  0.00  0.00     0.000 HD
ATOM     16   C  NAG B   1      19.891  34.745  18.0270  0.00  0.00     0.000 C
ATOM     17   C  NAG B   1      18.674  33.894  18.2740  0.00  0.00     0.000 C
ATOM     18   O  NAG B   1      19.740  35.876  17.5660  0.00  0.00     0.000 OA
ENDBRANCH 2 16
BRANCH 1 19
ATOM     19  O4  BDP B   2      21.384  31.944  16.8690  0.00  0.00     0.000 O
BRANCH 19 23
ATOM     20  C1  BDP B   2      20.053  28.655  14.7830  0.00  0.00     0.000 C
ATOM     21  C2  BDP B   2      19.550  28.799  16.2040  0.00  0.00     0.000 C
ATOM     22  C3  BDP B   2      19.748  30.208  16.7150  0.00  0.00     0.000 C
ATOM     23  C4  BDP B   2      21.213  30.589  16.5270  0.00  0.00     0.000 C
ATOM     24  C5  BDP B   2      21.596  30.417  15.0700  0.00  0.00     0.000 C
ATOM     25  O5  BDP B   2      21.409  29.068  14.6870  0.00  0.00     0.000 O
ATOM     26   O  BDP B   2      18.184  28.453  16.2780  0.00  0.00     0.000 O
ATOM     28  HD  BDP B   2      18.376  28.169  15.4830  0.00  0.00     0.000 HD
ATOM     28   O  BDP B   2      19.346  30.273  18.0930  0.00  0.00     0.000 O
ATOM     30  HD  BDP B   2      19.537  29.989  17.2970  0.00  0.00     0.000 HD
BRANCH 24 30
ATOM     30   C  BDP B   2      23.020  30.762  14.8190  0.00  0.00     0.000 C
ATOM     31   O  BDP B   2      23.886  30.149  15.4860  0.00  0.00     0.000 OA
ATOM     32   O  BDP B   2      23.281  31.653  13.9610  0.00  0.00     0.000 OA
ENDBRANCH 24 30
BRANCH 20 33
ATOM     33  O3  NAG B   3      19.972  27.273  14.5310  0.00  0.00     0.000 O
BRANCH 33 36
ATOM     34  C1  NAG B   3      19.246  25.946  11.0870  0.00  0.00     0.000 C
ATOM     35  C2  NAG B   3      18.963  26.483  12.4770  0.00  0.00     0.000 C
ATOM     36  C3  NAG B   3      20.250  26.967  13.1620  0.00  0.00     0.000 C
ATOM     37  C4  NAG B   3      21.300  25.861  13.1070  0.00  0.00     0.000 C
ATOM     38  C5  NAG B   3      21.442  25.337  11.6800  0.00  0.00     0.000 C
ATOM     39  O5  NAG B   3      20.185  24.887  11.2030  0.00  0.00     0.000 O
ATOM     40   O  NAG B   3      22.566  26.362  13.5600  0.00  0.00     0.000 O
ATOM     42  HD  NAG B   3      22.824  26.052  12.7940  0.00  0.00     0.000 HD
ATOM     42   C  NAG B   3      22.378  24.138  11.5530  0.00  0.00     0.000 C
ATOM     43   O  NAG B   3      21.817  23.017  12.2470  0.00  0.00     0.000 O
ATOM     45  HD  NAG B   3      22.075  22.707  11.4810  0.00  0.00     0.000 HD
BRANCH 35 47
ATOM     45   N  NAG B   3      17.909  27.480  12.3400  0.00  0.00     0.000 N
ATOM     47  HD  NAG B   3      18.158  27.151  11.5780  0.00  0.00     0.000 HD
ATOM     47   C  NAG B   3      16.913  27.593  13.1960  0.00  0.00     0.000 C
ATOM     48   C  NAG B   3      15.902  28.660  12.8960  0.00  0.00     0.000 C
ATOM     49   O  NAG B   3      16.804  26.851  14.1700  0.00  0.00     0.000 OA
ENDBRANCH 35 47
BRANCH 34 50
ATOM     50  O4  BDP B   4      17.995  25.450  10.6590  0.00  0.00     0.000 O
BRANCH 50 54
ATOM     51  C1  BDP B   4      15.727  24.555   7.4020  0.00  0.00     0.000 C
ATOM     52  C2  BDP B   4      16.822  23.539   7.7080  0.00  0.00     0.000 C
ATOM     53  C3  BDP B   4      17.320  23.775   9.1010  0.00  0.00     0.000 C
ATOM     54  C4  BDP B   4      17.777  25.255   9.2510  0.00  0.00     0.000 C
ATOM     55  C5  BDP B   4      16.729  26.239   8.7470  0.00  0.00     0.000 C
ATOM     56  O5  BDP B   4      16.273  25.860   7.4520  0.00  0.00     0.000 O
ATOM     57   O  BDP B   4      16.314  22.226   7.6090  0.00  0.00     0.000 O
ATOM     59  HD  BDP B   4      16.610  21.933   6.8500  0.00  0.00     0.000 HD
ATOM     59   O  BDP B   4      18.476  22.932   9.2820  0.00  0.00     0.000 O
ATOM     61  HD  BDP B   4      18.772  22.640   8.5230  0.00  0.00     0.000 HD
BRANCH 55 61
ATOM     61   C  BDP B   4      17.339  27.627   8.6760  0.00  0.00     0.000 C
ATOM     62   O  BDP B   4      18.126  27.878   7.7260  0.00  0.00     0.000 OA
ATOM     63   O  BDP B   4      17.027  28.467   9.5740  0.00  0.00     0.000 OA
ENDBRANCH 55 61
BRANCH 51 64
ATOM     64  O3  NAG B   5      15.227  24.259   6.0830  0.00  0.00     0.000 O
BRANCH 64 67
ATOM     65  C1  NAG B   5      11.646  24.086   5.2230  0.00  0.00     0.000 C
ATOM     66  C2  NAG B   5      13.009  23.616   5.7010  0.00  0.00     0.000 C
ATOM     67  C3  NAG B   5      13.945  24.809   5.8520  0.00  0.00     0.000 C
ATOM     68  C4  NAG B   5      13.974  25.653   4.5700  0.00  0.00     0.000 C
ATOM     69  C5  NAG B   5      12.563  25.995   4.1200  0.00  0.00     0.000 C
ATOM     70  O5  NAG B   5      11.779  24.797   4.0140  0.00  0.00     0.000 O
ATOM     71   O  NAG B   5      14.730  26.819   4.8150  0.00  0.00     0.000 O
ATOM     73  HD  NAG B   5      15.040  26.638   4.0260  0.00  0.00     0.000 HD
ATOM     73   C  NAG B   5      12.489  26.730   2.7740  0.00  0.00     0.000 C
ATOM     74   O  NAG B   5      12.987  25.872   1.7260  0.00  0.00     0.000 O
ATOM     76  HD  NAG B   5      13.296  25.691   0.9380  0.00  0.00     0.000 HD
BRANCH 66 78
ATOM     76   N  NAG B   5      13.134  22.184   6.0300  0.00  0.00     0.000 N
ATOM     78  HD  NAG B   5      13.196  22.941   6.4470  0.00  0.00     0.000 HD
ATOM     78   C  NAG B   5      13.203  21.661   7.2650  0.00  0.00     0.000 C
ATOM     79   C  NAG B   5      13.308  20.160   7.2760  0.00  0.00     0.000 C
ATOM     80   O  NAG B   5      13.190  22.373   8.3320  0.00  0.00     0.000 OA
ENDBRANCH 66 78
BRANCH 65 81
ATOM     81  O4  BDP B   6      10.776  22.963   5.0340  0.00  0.00     0.000 O
BRANCH 81 85
ATOM     82  C1  BDP B   6       6.652  21.874   5.4460  0.00  0.00     0.000 C
ATOM     83  C2  BDP B   6       7.006  22.907   4.3790  0.00  0.00     0.000 C
ATOM     84  C3  BDP B   6       8.498  22.921   4.0360  0.00  0.00     0.000 C
ATOM     85  C4  BDP B   6       9.371  23.038   5.2880  0.00  0.00     0.000 C
ATOM     86  C5  BDP B   6       8.896  21.970   6.3010  0.00  0.00     0.000 C
ATOM     87  O5  BDP B   6       7.466  22.089   6.5890  0.00  0.00     0.000 O
ATOM     88   O  BDP B   6       6.255  22.536   3.2260  0.00  0.00     0.000 O
ATOM     90  HD  BDP B   6       6.341  22.468   2.3670  0.00  0.00     0.000 HD
ATOM     90   O  BDP B   6       8.770  23.985   3.1210  0.00  0.00     0.000 O
ATOM     92  HD  BDP B   6       8.856  23.917   2.2610  0.00  0.00     0.000 HD
BRANCH 86 92
ATOM     92   C  BDP B   6       9.553  22.184   7.6430  0.00  0.00     0.000 C
ATOM     93   O  BDP B   6       9.944  21.181   8.3130  0.00  0.00     0.000 OA
ATOM     94   O  BDP B   6       9.706  23.382   8.0360  0.00  0.00     0.000 OA
ENDBRANCH 86 92
BRANCH 82 95
ATOM     95  O3  NAG B   7       5.279  22.077   5.8350  0.00  0.00     0.000 O
BRANCH 95 98
ATOM     96  C1  NAG B   7       2.294  20.069   6.4700  0.00  0.00     0.000 C
ATOM     97  C2  NAG B   7       3.083  21.276   5.9790  0.00  0.00     0.000 C
ATOM     98  C3  NAG B   7       4.533  20.975   6.3520  0.00  0.00     0.000 C
ATOM     99  C4  NAG B   7       4.656  20.805   7.8640  0.00  0.00     0.000 C
ATOM    100  C5  NAG B   7       3.671  19.753   8.3760  0.00  0.00     0.000 C
ATOM    101  O5  NAG B   7       2.372  20.069   7.9000  0.00  0.00     0.000 O
BRANCH 97 104
ATOM    102   N  NAG B   7       3.308  21.672   4.5820  0.00  0.00     0.000 N
ATOM    104  HD  NAG B   7       3.638  22.040   3.8710  0.00  0.00     0.000 HD
ATOM    104   O  NAG B   7       2.830  22.641   2.5910  0.00  0.00     0.000 OA
ATOM    105   C  NAG B   7       2.476  22.316   3.7410  0.00  0.00     0.000 C
ATOM    106   C  NAG B   7       1.101  22.660   4.2050  0.00  0.00     0.000 C
ENDBRANCH 97 104
ATOM    107   O  NAG B   7       3.028  18.529  10.2710  0.00  0.00     0.000 O
ATOM    109  HD  NAG B   7       3.149  18.496   9.4140  0.00  0.00     0.000 HD
ATOM    109   O  NAG B   7       3.028  18.529  10.2710  0.00  0.00     0.000 O
ATOM    111  HD  NAG B   7       3.149  18.496   9.4140  0.00  0.00     0.000 HD
ENDBRANCH 95 98
ENDBRANCH 82 95
ENDBRANCH 81 85
ENDBRANCH 65 81
ENDBRANCH 64 67
ENDBRANCH 51 64
ENDBRANCH 50 54
ENDBRANCH 34 50
ENDBRANCH 33 36
ENDBRANCH 20 33
ENDBRANCH 19 23
ENDBRANCH 1 19
TORSDOF 19
ENDMDL
MODEL 71
REMARK VINA RESULT:      -3.7      9.721     18.460
ROOT
ATOM      1  C1  NAG B   1      26.545   7.394  15.8470  0.00  0.00     0.000 C
ATOM      2  C2  NAG B   1      27.390   7.216  17.1050  0.00  0.00     0.000 C
ATOM      3  C3  NAG B   1      27.005   8.203  18.1880  0.00  0.00     0.000 C
ATOM      4  C4  NAG B   1      27.178   9.583  17.5620  0.00  0.00     0.000 C
ATOM      5  C5  NAG B   1      26.201   9.729  16.3890  0.00  0.00     0.000 C
ATOM      6  O5  NAG B   1      26.465   8.745  15.3660  0.00  0.00     0.000 O
ATOM      7   O  NAG B   1      27.827   8.065  19.3690  0.00  0.00     0.000 O
ATOM      9  HD  NAG B   1      27.761   7.248  19.0920  0.00  0.00     0.000 HD
ATOM      9   O  NAG B   1      26.924  10.591  18.5270  0.00  0.00     0.000 O
ATOM     11  HD  NAG B   1      26.858   9.773  18.2490  0.00  0.00     0.000 HD
ATOM     11   C  NAG B   1      26.262  11.157  15.8320  0.00  0.00     0.000 C
ATOM     12   O  NAG B   1      25.935  11.185  14.4430  0.00  0.00     0.000 O
ATOM     14  HD  NAG B   1      25.869  10.368  14.1660  0.00  0.00     0.000 HD
ENDROOT
BRANCH 2 16
ATOM     14   N  NAG B   1      28.404   6.160  16.9360  0.00  0.00     0.000 N
ATOM     16  HD  NAG B   1      29.107   5.814  17.3040  0.00  0.00     0.000 HD
ATOM     16   C  NAG B   1      28.356   4.983  17.5840  0.00  0.00     0.000 C
ATOM     17   C  NAG B   1      27.242   4.707  18.5570  0.00  0.00     0.000 C
ATOM     18   O  NAG B   1      29.195   4.107  17.3780  0.00  0.00     0.000 OA
ENDBRANCH 2 16
BRANCH 1 19
ATOM     19  O4  BDP B   2      27.273   6.671  14.8640  0.00  0.00     0.000 O
BRANCH 19 23
ATOM     20  C1  BDP B   2      24.006   5.858  12.4960  0.00  0.00     0.000 C
ATOM     21  C2  BDP B   2      24.326   4.842  13.5720  0.00  0.00     0.000 C
ATOM     22  C3  BDP B   2      25.247   5.425  14.6200  0.00  0.00     0.000 C
ATOM     23  C4  BDP B   2      26.473   6.002  13.9180  0.00  0.00     0.000 C
ATOM     24  C5  BDP B   2      26.030   7.011  12.8760  0.00  0.00     0.000 C
ATOM     25  O5  BDP B   2      25.199   6.374  11.9240  0.00  0.00     0.000 O
ATOM     26   O  BDP B   2      23.139   4.384  14.1830  0.00  0.00     0.000 O
ATOM     28  HD  BDP B   2      22.813   4.807  13.5010  0.00  0.00     0.000 HD
ATOM     28   O  BDP B   2      25.598   4.401  15.5640  0.00  0.00     0.000 O
ATOM     30  HD  BDP B   2      25.271   4.824  14.8820  0.00  0.00     0.000 HD
BRANCH 24 30
ATOM     30   C  BDP B   2      27.179   7.605  12.1450  0.00  0.00     0.000 C
ATOM     31   O  BDP B   2      27.242   8.855  12.0920  0.00  0.00     0.000 OA
ATOM     32   O  BDP B   2      28.020   6.826  11.6120  0.00  0.00     0.000 OA
ENDBRANCH 24 30
BRANCH 20 33
ATOM     33  O3  NAG B   3      23.310   5.116  11.5230  0.00  0.00     0.000 O
BRANCH 33 36
ATOM     34  C1  NAG B   3      20.570   6.799   9.5700  0.00  0.00     0.000 C
ATOM     35  C2  NAG B   3      21.239   6.090  10.7330  0.00  0.00     0.000 C
ATOM     36  C3  NAG B   3      22.754   5.960  10.5120  0.00  0.00     0.000 C
ATOM     37  C4  NAG B   3      23.013   5.331   9.1460  0.00  0.00     0.000 C
ATOM     38  C5  NAG B   3      22.227   6.069   8.0650  0.00  0.00     0.000 C
ATOM     39  O5  NAG B   3      20.846   6.066   8.3860  0.00  0.00     0.000 O
ATOM     40   O  NAG B   3      24.415   5.386   8.8380  0.00  0.00     0.000 O
ATOM     42  HD  NAG B   3      24.116   5.773   8.1230  0.00  0.00     0.000 HD
ATOM     42   C  NAG B   3      22.324   5.426   6.6840  0.00  0.00     0.000 C
ATOM     43   O  NAG B   3      21.697   4.138   6.7090  0.00  0.00     0.000 O
ATOM     45  HD  NAG B   3      21.398   4.525   5.9940  0.00  0.00     0.000 HD
BRANCH 35 47
ATOM     45   N  NAG B   3      20.481   5.600  11.8770  0.00  0.00     0.000 N
ATOM     47  HD  NAG B   3      20.792   4.960  11.3840  0.00  0.00     0.000 HD
ATOM     47   C  NAG B   3      20.526   6.170  13.0650  0.00  0.00     0.000 C
ATOM     48   C  NAG B   3      19.700   5.526  14.1390  0.00  0.00     0.000 C
ATOM     49   O  NAG B   3      21.224   7.157  13.2880  0.00  0.00     0.000 OA
ENDBRANCH 35 47
BRANCH 34 50
ATOM     50  O4  BDP B   4      19.195   6.730   9.8830  0.00  0.00     0.000 O
BRANCH 50 54
ATOM     51  C1  BDP B   4      15.701   8.813   9.9580  0.00  0.00     0.000 C
ATOM     52  C2  BDP B   4      16.183   8.437   8.5610  0.00  0.00     0.000 C
ATOM     53  C3  BDP B   4      17.238   7.381   8.6860  0.00  0.00     0.000 C
ATOM     54  C4  BDP B   4      18.371   7.880   9.6270  0.00  0.00     0.000 C
ATOM     55  C5  BDP B   4      17.833   8.435  10.9390  0.00  0.00     0.000 C
ATOM     56  O5  BDP B   4      16.780   9.362  10.6920  0.00  0.00     0.000 O
ATOM     57   O  BDP B   4      15.110   7.937   7.7910  0.00  0.00     0.000 O
ATOM     59  HD  BDP B   4      14.898   8.590   7.2630  0.00  0.00     0.000 HD
ATOM     59   O  BDP B   4      17.802   7.193   7.3720  0.00  0.00     0.000 O
ATOM     61  HD  BDP B   4      17.589   7.846   6.8440  0.00  0.00     0.000 HD
BRANCH 55 61
ATOM     61   C  BDP B   4      18.953   9.139  11.6820  0.00  0.00     0.000 C
ATOM     62   O  BDP B   4      19.887   9.643  11.0050  0.00  0.00     0.000 OA
ATOM     63   O  BDP B   4      18.896   9.189  12.9490  0.00  0.00     0.000 OA
ENDBRANCH 55 61
BRANCH 51 64
ATOM     64  O3  NAG B   5      14.645   9.780   9.7990  0.00  0.00     0.000 O
BRANCH 64 67
ATOM     65  C1  NAG B   5      12.365  10.681  12.5530  0.00  0.00     0.000 C
ATOM     66  C2  NAG B   5      12.925   9.891  11.3830  0.00  0.00     0.000 C
ATOM     67  C3  NAG B   5      14.306  10.419  11.0140  0.00  0.00     0.000 C
ATOM     68  C4  NAG B   5      14.275  11.939  10.8000  0.00  0.00     0.000 C
ATOM     69  C5  NAG B   5      13.614  12.634  11.9800  0.00  0.00     0.000 C
ATOM     70  O5  NAG B   5      12.326  12.053  12.2310  0.00  0.00     0.000 O
ATOM     71   O  NAG B   5      15.597  12.395  10.6130  0.00  0.00     0.000 O
ATOM     73  HD  NAG B   5      15.217  12.871   9.9970  0.00  0.00     0.000 HD
ATOM     73   C  NAG B   5      13.425  14.146  11.7970  0.00  0.00     0.000 C
ATOM     74   O  NAG B   5      12.518  14.391  10.7020  0.00  0.00     0.000 O
ATOM     76  HD  NAG B   5      12.138  14.867  10.0860  0.00  0.00     0.000 HD
BRANCH 66 78
ATOM     76   N  NAG B   5      12.243   8.728  10.7830  0.00  0.00     0.000 N
ATOM     78  HD  NAG B   5      12.904   8.869  11.3240  0.00  0.00     0.000 HD
ATOM     78   C  NAG B   5      12.409   7.445  11.1390  0.00  0.00     0.000 C
ATOM     79   C  NAG B   5      11.556   6.488  10.3510  0.00  0.00     0.000 C
ATOM     80   O  NAG B   5      13.224   7.069  12.0570  0.00  0.00     0.000 OA
ENDBRANCH 66 78
BRANCH 65 81
ATOM     81  O4  BDP B   6      11.047  10.219  12.8750  0.00  0.00     0.000 O
BRANCH 81 85
ATOM     82  C1  BDP B   6       8.527   9.894  16.3250  0.00  0.00     0.000 C
ATOM     83  C2  BDP B   6       9.520  11.052  16.2830  0.00  0.00     0.000 C
ATOM     84  C3  BDP B   6      10.065  11.318  14.8780  0.00  0.00     0.000 C
ATOM     85  C4  BDP B   6      10.610  10.047  14.2250  0.00  0.00     0.000 C
ATOM     86  C5  BDP B   6       9.534   8.943  14.3600  0.00  0.00     0.000 C
ATOM     87  O5  BDP B   6       9.131   8.742  15.7530  0.00  0.00     0.000 O
ATOM     88   O  BDP B   6       8.795  12.191  16.7380  0.00  0.00     0.000 O
ATOM     90  HD  BDP B   6       8.690  13.032  16.5570  0.00  0.00     0.000 HD
ATOM     90   O  BDP B   6      11.069  12.335  14.9370  0.00  0.00     0.000 O
ATOM     92  HD  BDP B   6      10.964  13.175  14.7560  0.00  0.00     0.000 HD
BRANCH 86 92
ATOM     92   C  BDP B   6      10.095   7.603  13.9510  0.00  0.00     0.000 C
ATOM     93   O  BDP B   6      11.143   7.167  14.5150  0.00  0.00     0.000 OA
ATOM     94   O  BDP B   6       9.466   6.951  13.0600  0.00  0.00     0.000 OA
ENDBRANCH 86 92
BRANCH 82 95
ATOM     95  O3  NAG B   7       8.231   9.599  17.7040  0.00  0.00     0.000 O
BRANCH 95 98
ATOM     96  C1  NAG B   7       5.259   8.469  19.5020  0.00  0.00     0.000 C
ATOM     97  C2  NAG B   7       6.457   9.364  19.2150  0.00  0.00     0.000 C
ATOM     98  C3  NAG B   7       7.145   8.725  18.0110  0.00  0.00     0.000 C
ATOM     99  C4  NAG B   7       7.580   7.303  18.3560  0.00  0.00     0.000 C
ATOM    100  C5  NAG B   7       6.401   6.484  18.8820  0.00  0.00     0.000 C
ATOM    101  O5  NAG B   7       5.772   7.203  19.9310  0.00  0.00     0.000 O
BRANCH 97 104
ATOM    102   N  NAG B   7       6.667  10.776  18.8660  0.00  0.00     0.000 N
ATOM    104  HD  NAG B   7       7.014  11.566  18.7950  0.00  0.00     0.000 HD
ATOM    104   O  NAG B   7       6.249  13.002  18.8600  0.00  0.00     0.000 OA
ATOM    105   C  NAG B   7       5.910  11.845  19.1780  0.00  0.00     0.000 C
ATOM    106   C  NAG B   7       4.643  11.639  19.9340  0.00  0.00     0.000 C
ENDBRANCH 97 104
ATOM    107   O  NAG B   7       5.732   4.329  19.5250  0.00  0.00     0.000 O
ATOM    109  HD  NAG B   7       5.491   5.053  19.1140  0.00  0.00     0.000 HD
ATOM    109   O  NAG B   7       5.732   4.329  19.5250  0.00  0.00     0.000 O
ATOM    111  HD  NAG B   7       5.491   5.053  19.1140  0.00  0.00     0.000 HD
ENDBRANCH 95 98
ENDBRANCH 82 95
ENDBRANCH 81 85
ENDBRANCH 65 81
ENDBRANCH 64 67
ENDBRANCH 51 64
ENDBRANCH 50 54
ENDBRANCH 34 50
ENDBRANCH 33 36
ENDBRANCH 20 33
ENDBRANCH 19 23
ENDBRANCH 1 19
TORSDOF 19
ENDMDL
MODEL 72
REMARK VINA RESULT:      -3.7      6.100     19.603
ROOT
ATOM      1  C1  NAG B   1      30.478   2.594   8.8890  0.00  0.00     0.000 C
ATOM      2  C2  NAG B   1      31.516   3.398   9.6670  0.00  0.00     0.000 C
ATOM      3  C3  NAG B   1      32.337   2.519  10.5870  0.00  0.00     0.000 C
ATOM      4  C4  NAG B   1      31.329   1.831  11.5030  0.00  0.00     0.000 C
ATOM      5  C5  NAG B   1      30.408   0.941  10.6580  0.00  0.00     0.000 C
ATOM      6  O5  NAG B   1      29.669   1.722   9.6950  0.00  0.00     0.000 O
ATOM      7   O  NAG B   1      33.296   3.280  11.3570  0.00  0.00     0.000 O
ATOM      9  HD  NAG B   1      33.280   3.706  10.6030  0.00  0.00     0.000 HD
ATOM      9   O  NAG B   1      32.004   1.044  12.4690  0.00  0.00     0.000 O
ATOM     11  HD  NAG B   1      31.988   1.471  11.7150  0.00  0.00     0.000 HD
ATOM     11   C  NAG B   1      29.476   0.136  11.5720  0.00  0.00     0.000 C
ATOM     12   O  NAG B   1      28.243  -0.164  10.9190  0.00  0.00     0.000 O
ATOM     14  HD  NAG B   1      28.227   0.263  10.1660  0.00  0.00     0.000 HD
ENDROOT
BRANCH 2 16
ATOM     14   N  NAG B   1      31.569   4.866   9.5500  0.00  0.00     0.000 N
ATOM     16  HD  NAG B   1      32.031   5.560   9.7830  0.00  0.00     0.000 HD
ATOM     16   C  NAG B   1      32.371   5.506   8.6820  0.00  0.00     0.000 C
ATOM     17   C  NAG B   1      33.293   4.717   7.7890  0.00  0.00     0.000 C
ATOM     18   O  NAG B   1      32.352   6.732   8.5780  0.00  0.00     0.000 OA
ENDBRANCH 2 16
BRANCH 1 19
ATOM     19  O4  BDP B   2      29.600   3.594   8.3910  0.00  0.00     0.000 O
BRANCH 19 23
ATOM     20  C1  BDP B   2      25.537   4.252   8.4410  0.00  0.00     0.000 C
ATOM     21  C2  BDP B   2      26.250   4.342   9.7750  0.00  0.00     0.000 C
ATOM     22  C3  BDP B   2      27.741   4.503   9.5890  0.00  0.00     0.000 C
ATOM     23  C4  BDP B   2      28.240   3.379   8.6860  0.00  0.00     0.000 C
ATOM     24  C5  BDP B   2      27.465   3.397   7.3830  0.00  0.00     0.000 C
ATOM     25  O5  BDP B   2      26.088   3.210   7.6490  0.00  0.00     0.000 O
ATOM     26   O  BDP B   2      25.744   5.422  10.5290  0.00  0.00     0.000 O
ATOM     28  HD  BDP B   2      25.154   5.383   9.8960  0.00  0.00     0.000 HD
ATOM     28   O  BDP B   2      28.383   4.489  10.8740  0.00  0.00     0.000 O
ATOM     30  HD  BDP B   2      27.793   4.449  10.2410  0.00  0.00     0.000 HD
BRANCH 24 30
ATOM     30   C  BDP B   2      27.896   2.315   6.4590  0.00  0.00     0.000 C
ATOM     31   O  BDP B   2      28.381   2.661   5.3570  0.00  0.00     0.000 OA
ATOM     32   O  BDP B   2      27.744   1.115   6.8260  0.00  0.00     0.000 OA
ENDBRANCH 24 30
BRANCH 20 33
ATOM     33  O3  NAG B   3      24.213   3.922   8.7840  0.00  0.00     0.000 O
BRANCH 33 36
ATOM     34  C1  NAG B   3      21.261   5.418   6.9960  0.00  0.00     0.000 C
ATOM     35  C2  NAG B   3      22.366   5.292   8.0280  0.00  0.00     0.000 C
ATOM     36  C3  NAG B   3      23.315   4.132   7.6920  0.00  0.00     0.000 C
ATOM     37  C4  NAG B   3      22.500   2.860   7.4700  0.00  0.00     0.000 C
ATOM     38  C5  NAG B   3      21.367   3.123   6.4820  0.00  0.00     0.000 C
ATOM     39  O5  NAG B   3      20.555   4.186   6.9500  0.00  0.00     0.000 O
ATOM     40   O  NAG B   3      23.346   1.817   6.9610  0.00  0.00     0.000 O
ATOM     42  HD  NAG B   3      22.740   1.797   6.3430  0.00  0.00     0.000 HD
ATOM     42   C  NAG B   3      20.421   1.939   6.2990  0.00  0.00     0.000 C
ATOM     43   O  NAG B   3      19.722   1.691   7.5250  0.00  0.00     0.000 O
ATOM     45  HD  NAG B   3      19.115   1.671   6.9070  0.00  0.00     0.000 HD
BRANCH 35 47
ATOM     45   N  NAG B   3      22.424   6.207   9.1610  0.00  0.00     0.000 N
ATOM     47  HD  NAG B   3      22.171   5.410   9.3880  0.00  0.00     0.000 HD
ATOM     47   C  NAG B   3      23.362   7.124   9.2950  0.00  0.00     0.000 C
ATOM     48   C  NAG B   3      23.287   7.969  10.5320  0.00  0.00     0.000 C
ATOM     49   O  NAG B   3      24.261   7.261   8.4690  0.00  0.00     0.000 OA
ENDBRANCH 35 47
BRANCH 34 50
ATOM     50  O4  BDP B   4      20.435   6.439   7.5150  0.00  0.00     0.000 O
BRANCH 50 54
ATOM     51  C1  BDP B   4      18.167   9.679   6.5600  0.00  0.00     0.000 C
ATOM     52  C2  BDP B   4      17.641   8.356   6.0140  0.00  0.00     0.000 C
ATOM     53  C3  BDP B   4      18.328   7.235   6.7300  0.00  0.00     0.000 C
ATOM     54  C4  BDP B   4      19.870   7.397   6.6040  0.00  0.00     0.000 C
ATOM     55  C5  BDP B   4      20.337   8.799   6.9690  0.00  0.00     0.000 C
ATOM     56  O5  BDP B   4      19.553   9.777   6.2920  0.00  0.00     0.000 O
ATOM     57   O  BDP B   4      16.248   8.260   6.2210  0.00  0.00     0.000 O
ATOM     59  HD  BDP B   4      15.900   8.425   5.4450  0.00  0.00     0.000 HD
ATOM     59   O  BDP B   4      17.952   6.015   6.0580  0.00  0.00     0.000 O
ATOM     61  HD  BDP B   4      17.604   6.179   5.2830  0.00  0.00     0.000 HD
BRANCH 55 61
ATOM     61   C  BDP B   4      21.793   8.962   6.5710  0.00  0.00     0.000 C
ATOM     62   O  BDP B   4      22.511   9.734   7.2590  0.00  0.00     0.000 OA
ATOM     63   O  BDP B   4      22.217   8.313   5.5670  0.00  0.00     0.000 OA
ENDBRANCH 55 61
BRANCH 51 64
ATOM     64  O3  NAG B   5      17.441  10.733   5.8990  0.00  0.00     0.000 O
BRANCH 64 67
ATOM     65  C1  NAG B   5      16.019  13.723   7.5210  0.00  0.00     0.000 C
ATOM     66  C2  NAG B   5      16.082  12.308   6.9710  0.00  0.00     0.000 C
ATOM     67  C3  NAG B   5      17.517  11.963   6.5910  0.00  0.00     0.000 C
ATOM     68  C4  NAG B   5      18.115  13.034   5.6680  0.00  0.00     0.000 C
ATOM     69  C5  NAG B   5      17.921  14.422   6.2580  0.00  0.00     0.000 C
ATOM     70  O5  NAG B   5      16.537  14.630   6.5750  0.00  0.00     0.000 O
ATOM     71   O  NAG B   5      19.483  12.748   5.4720  0.00  0.00     0.000 O
ATOM     73  HD  NAG B   5      19.287  12.963   4.6560  0.00  0.00     0.000 HD
ATOM     73   C  NAG B   5      18.375  15.567   5.3430  0.00  0.00     0.000 C
ATOM     74   O  NAG B   5      17.564  15.584   4.1500  0.00  0.00     0.000 O
ATOM     76  HD  NAG B   5      17.368  15.799   3.3340  0.00  0.00     0.000 HD
BRANCH 66 78
ATOM     76   N  NAG B   5      14.810  11.567   7.0600  0.00  0.00     0.000 N
ATOM     78  HD  NAG B   5      15.622  11.473   7.3440  0.00  0.00     0.000 HD
ATOM     78   C  NAG B   5      14.557  10.526   7.8700  0.00  0.00     0.000 C
ATOM     79   C  NAG B   5      13.156   9.994   7.7430  0.00  0.00     0.000 C
ATOM     80   O  NAG B   5      15.430  10.028   8.6680  0.00  0.00     0.000 OA
ENDBRANCH 66 78
BRANCH 65 81
ATOM     81  O4  BDP B   6      14.664  14.069   7.8360  0.00  0.00     0.000 O
BRANCH 81 85
ATOM     82  C1  BDP B   6      12.412  17.312   9.5010  0.00  0.00     0.000 C
ATOM     83  C2  BDP B   6      12.829  17.421   8.0370  0.00  0.00     0.000 C
ATOM     84  C3  BDP B   6      13.252  16.078   7.4370  0.00  0.00     0.000 C
ATOM     85  C4  BDP B   6      14.300  15.371   8.3000  0.00  0.00     0.000 C
ATOM     86  C5  BDP B   6      13.782  15.354   9.7580  0.00  0.00     0.000 C
ATOM     87  O5  BDP B   6      13.459  16.699  10.2380  0.00  0.00     0.000 O
ATOM     88   O  BDP B   6      11.680  17.909   7.3490  0.00  0.00     0.000 O
ATOM     90  HD  BDP B   6      11.238  17.783   6.6150  0.00  0.00     0.000 HD
ATOM     90   O  BDP B   6      13.736  16.277   6.1060  0.00  0.00     0.000 O
ATOM     92  HD  BDP B   6      13.294  16.151   5.3720  0.00  0.00     0.000 HD
BRANCH 86 92
ATOM     92   C  BDP B   6      14.865  14.886  10.7000  0.00  0.00     0.000 C
ATOM     93   O  BDP B   6      14.635  13.914  11.4820  0.00  0.00     0.000 OA
ATOM     94   O  BDP B   6      15.984  15.484  10.6490  0.00  0.00     0.000 OA
ENDBRANCH 86 92
BRANCH 82 95
ATOM     95  O3  NAG B   7      12.227  18.644  10.0200  0.00  0.00     0.000 O
BRANCH 95 98
ATOM     96  C1  NAG B   7       9.650  20.415  11.9080  0.00  0.00     0.000 C
ATOM     97  C2  NAG B   7      10.686  20.221  10.8080  0.00  0.00     0.000 C
ATOM     98  C3  NAG B   7      11.302  18.852  11.0860  0.00  0.00     0.000 C
ATOM     99  C4  NAG B   7      11.948  18.845  12.4700  0.00  0.00     0.000 C
ATOM    100  C5  NAG B   7      10.950  19.285  13.5410  0.00  0.00     0.000 C
ATOM    101  O5  NAG B   7      10.364  20.516  13.1460  0.00  0.00     0.000 O
BRANCH 97 104
ATOM    102   N  NAG B   7      10.260  20.072   9.4100  0.00  0.00     0.000 N
ATOM    104  HD  NAG B   7      10.185  19.788   8.5960  0.00  0.00     0.000 HD
ATOM    104   O  NAG B   7       9.986  20.673   7.2430  0.00  0.00     0.000 OA
ATOM    105   C  NAG B   7      10.336  20.964   8.4040  0.00  0.00     0.000 C
ATOM    106   C  NAG B   7      10.866  22.328   8.6840  0.00  0.00     0.000 C
ENDBRANCH 97 104
ATOM    107   O  NAG B   7      10.634  19.509  15.8550  0.00  0.00     0.000 O
ATOM    109  HD  NAG B   7      10.258  19.286  15.1070  0.00  0.00     0.000 HD
ATOM    109   O  NAG B   7      10.634  19.509  15.8550  0.00  0.00     0.000 O
ATOM    111  HD  NAG B   7      10.258  19.286  15.1070  0.00  0.00     0.000 HD
ENDBRANCH 95 98
ENDBRANCH 82 95
ENDBRANCH 81 85
ENDBRANCH 65 81
ENDBRANCH 64 67
ENDBRANCH 51 64
ENDBRANCH 50 54
ENDBRANCH 34 50
ENDBRANCH 33 36
ENDBRANCH 20 33
ENDBRANCH 19 23
ENDBRANCH 1 19
TORSDOF 19
ENDMDL
MODEL 73
REMARK VINA RESULT:      -3.7      7.658     11.207
ROOT
ATOM      1  C1  NAG B   1      14.731  23.262  16.1280  0.00  0.00     0.000 C
ATOM      2  C2  NAG B   1      15.410  24.558  15.6950  0.00  0.00     0.000 C
ATOM      3  C3  NAG B   1      16.802  24.311  15.1490  0.00  0.00     0.000 C
ATOM      4  C4  NAG B   1      17.559  23.603  16.2670  0.00  0.00     0.000 C
ATOM      5  C5  NAG B   1      16.891  22.252  16.5510  0.00  0.00     0.000 C
ATOM      6  O5  NAG B   1      15.526  22.428  16.9860  0.00  0.00     0.000 O
ATOM      7   O  NAG B   1      17.466  25.539  14.7720  0.00  0.00     0.000 O
ATOM      9  HD  NAG B   1      16.640  25.705  14.5730  0.00  0.00     0.000 HD
ATOM      9   O  NAG B   1      18.911  23.401  15.8890  0.00  0.00     0.000 O
ATOM     11  HD  NAG B   1      18.084  23.567  15.6900  0.00  0.00     0.000 HD
ATOM     11   C  NAG B   1      17.717  21.465  17.5760  0.00  0.00     0.000 C
ATOM     12   O  NAG B   1      16.892  20.589  18.3430  0.00  0.00     0.000 O
ATOM     14  HD  NAG B   1      16.066  20.755  18.1440  0.00  0.00     0.000 HD
ENDROOT
BRANCH 2 16
ATOM     14   N  NAG B   1      14.594  25.295  14.7140  0.00  0.00     0.000 N
ATOM     16  HD  NAG B   1      13.776  25.454  14.4780  0.00  0.00     0.000 HD
ATOM     16   C  NAG B   1      13.993  26.466  14.9890  0.00  0.00     0.000 C
ATOM     17   C  NAG B   1      14.117  27.069  16.3640  0.00  0.00     0.000 C
ATOM     18   O  NAG B   1      13.360  27.077  14.1290  0.00  0.00     0.000 OA
ENDBRANCH 2 16
BRANCH 1 19
ATOM     19  O4  BDP B   2      13.644  23.716  16.9230  0.00  0.00     0.000 O
BRANCH 19 23
ATOM     20  C1  BDP B   2      11.401  20.292  16.4930  0.00  0.00     0.000 C
ATOM     21  C2  BDP B   2      11.183  21.373  15.4560  0.00  0.00     0.000 C
ATOM     22  C3  BDP B   2      12.320  22.370  15.4560  0.00  0.00     0.000 C
ATOM     23  C4  BDP B   2      12.502  22.894  16.8780  0.00  0.00     0.000 C
ATOM     24  C5  BDP B   2      12.723  21.727  17.8210  0.00  0.00     0.000 C
ATOM     25  O5  BDP B   2      11.602  20.865  17.7780  0.00  0.00     0.000 O
ATOM     26   O  BDP B   2      11.053  20.801  14.1720  0.00  0.00     0.000 O
ATOM     28  HD  BDP B   2      10.998  20.092  14.6670  0.00  0.00     0.000 HD
ATOM     28   O  BDP B   2      12.026  23.424  14.5260  0.00  0.00     0.000 O
ATOM     30  HD  BDP B   2      11.971  22.715  15.0210  0.00  0.00     0.000 HD
BRANCH 24 30
ATOM     30   C  BDP B   2      12.897  22.168  19.2300  0.00  0.00     0.000 C
ATOM     31   O  BDP B   2      12.925  21.279  20.1110  0.00  0.00     0.000 OA
ATOM     32   O  BDP B   2      12.999  23.407  19.4640  0.00  0.00     0.000 OA
ENDBRANCH 24 30
BRANCH 20 33
ATOM     33  O3  NAG B   3      10.193  19.571  16.4930  0.00  0.00     0.000 O
BRANCH 33 36
ATOM     34  C1  NAG B   3      10.288  15.898  17.3010  0.00  0.00     0.000 C
ATOM     35  C2  NAG B   3      10.421  17.161  16.4700  0.00  0.00     0.000 C
ATOM     36  C3  NAG B   3      10.263  18.420  17.3370  0.00  0.00     0.000 C
ATOM     37  C4  NAG B   3       8.971  18.319  18.1440  0.00  0.00     0.000 C
ATOM     38  C5  NAG B   3       8.903  16.977  18.8700  0.00  0.00     0.000 C
ATOM     39  O5  NAG B   3       9.018  15.917  17.9360  0.00  0.00     0.000 O
ATOM     40   O  NAG B   3       8.907  19.385  19.1040  0.00  0.00     0.000 O
ATOM     42  HD  NAG B   3       8.791  18.721  19.6490  0.00  0.00     0.000 HD
ATOM     42   C  NAG B   3       7.584  16.736  19.5990  0.00  0.00     0.000 C
ATOM     43   O  NAG B   3       6.521  16.634  18.6430  0.00  0.00     0.000 O
ATOM     45  HD  NAG B   3       6.404  15.971  19.1880  0.00  0.00     0.000 HD
BRANCH 35 47
ATOM     45   N  NAG B   3      11.670  17.036  15.7300  0.00  0.00     0.000 N
ATOM     47  HD  NAG B   3      11.522  16.361  16.2510  0.00  0.00     0.000 HD
ATOM     47   C  NAG B   3      11.804  17.430  14.4790  0.00  0.00     0.000 C
ATOM     48   C  NAG B   3      13.152  17.211  13.8580  0.00  0.00     0.000 C
ATOM     49   O  NAG B   3      10.872  17.923  13.8480  0.00  0.00     0.000 OA
ENDBRANCH 35 47
BRANCH 34 50
ATOM     50  O4  BDP B   4      10.344  14.862  16.3430  0.00  0.00     0.000 O
BRANCH 50 54
ATOM     51  C1  BDP B   4      11.383  10.974  15.7440  0.00  0.00     0.000 C
ATOM     52  C2  BDP B   4      10.027  11.170  16.4130  0.00  0.00     0.000 C
ATOM     53  C3  BDP B   4       9.606  12.596  16.2350  0.00  0.00     0.000 C
ATOM     54  C4  BDP B   4      10.715  13.542  16.7780  0.00  0.00     0.000 C
ATOM     55  C5  BDP B   4      12.094  13.187  16.2390  0.00  0.00     0.000 C
ATOM     56  O5  BDP B   4      12.343  11.792  16.3870  0.00  0.00     0.000 O
ATOM     57   O  BDP B   4       9.064  10.321  15.8240  0.00  0.00     0.000 O
ATOM     59  HD  BDP B   4       8.964   9.676  16.3940  0.00  0.00     0.000 HD
ATOM     59   O  BDP B   4       8.424  12.789  17.0390  0.00  0.00     0.000 O
ATOM     61  HD  BDP B   4       8.325  12.144  17.6080  0.00  0.00     0.000 HD
BRANCH 55 61
ATOM     61   C  BDP B   4      13.148  13.967  17.0060  0.00  0.00     0.000 C
ATOM     62   O  BDP B   4      13.756  14.889  16.4030  0.00  0.00     0.000 OA
ATOM     63   O  BDP B   4      13.364  13.653  18.2160  0.00  0.00     0.000 OA
ENDBRANCH 55 61
BRANCH 51 64
ATOM     64  O3  NAG B   5      11.727   9.581  15.8770  0.00  0.00     0.000 O
BRANCH 64 67
ATOM     65  C1  NAG B   5      14.434   8.106  13.8550  0.00  0.00     0.000 C
ATOM     66  C2  NAG B   5      13.051   8.634  14.1950  0.00  0.00     0.000 C
ATOM     67  C3  NAG B   5      13.079   9.322  15.5540  0.00  0.00     0.000 C
ATOM     68  C4  NAG B   5      13.693   8.406  16.6220  0.00  0.00     0.000 C
ATOM     69  C5  NAG B   5      15.030   7.854  16.1530  0.00  0.00     0.000 C
ATOM     70  O5  NAG B   5      14.878   7.233  14.8680  0.00  0.00     0.000 O
ATOM     71   O  NAG B   5      13.835   9.141  17.8190  0.00  0.00     0.000 O
ATOM     73  HD  NAG B   5      13.544   8.403  18.1650  0.00  0.00     0.000 HD
ATOM     73   C  NAG B   5      15.659   6.827  17.1050  0.00  0.00     0.000 C
ATOM     74   O  NAG B   5      14.813   5.660  17.1850  0.00  0.00     0.000 O
ATOM     76  HD  NAG B   5      14.521   4.922  17.5310  0.00  0.00     0.000 HD
BRANCH 66 78
ATOM     76   N  NAG B   5      11.966   8.518  13.2020  0.00  0.00     0.000 N
ATOM     78  HD  NAG B   5      12.439   9.150  13.5580  0.00  0.00     0.000 HD
ATOM     78   C  NAG B   5      11.537   9.492  12.3840  0.00  0.00     0.000 C
ATOM     79   C  NAG B   5      10.424   9.059  11.4690  0.00  0.00     0.000 C
ATOM     80   O  NAG B   5      12.023  10.679  12.3890  0.00  0.00     0.000 OA
ENDBRANCH 66 78
BRANCH 65 81
ATOM     81  O4  BDP B   6      14.403   7.417  12.5980  0.00  0.00     0.000 O
BRANCH 81 85
ATOM     82  C1  BDP B   6      16.997   6.603   9.2860  0.00  0.00     0.000 C
ATOM     83  C2  BDP B   6      17.609   6.579  10.6830  0.00  0.00     0.000 C
ATOM     84  C3  BDP B   6      16.558   6.472  11.7920  0.00  0.00     0.000 C
ATOM     85  C4  BDP B   6      15.461   7.529  11.6430  0.00  0.00     0.000 C
ATOM     86  C5  BDP B   6      14.947   7.479  10.1840  0.00  0.00     0.000 C
ATOM     87  O5  BDP B   6      16.033   7.644   9.2170  0.00  0.00     0.000 O
ATOM     88   O  BDP B   6      18.449   5.429  10.7110  0.00  0.00     0.000 O
ATOM     90  HD  BDP B   6      18.665   4.772  11.2330  0.00  0.00     0.000 HD
ATOM     90   O  BDP B   6      17.194   6.571  13.0680  0.00  0.00     0.000 O
ATOM     92  HD  BDP B   6      17.410   5.914  13.5900  0.00  0.00     0.000 HD
BRANCH 86 92
ATOM     92   C  BDP B   6      14.035   8.649   9.9040  0.00  0.00     0.000 C
ATOM     93   O  BDP B   6      12.954   8.460   9.2680  0.00  0.00     0.000 OA
ATOM     94   O  BDP B   6      14.388   9.786  10.3460  0.00  0.00     0.000 OA
ENDBRANCH 86 92
BRANCH 82 95
ATOM     95  O3  NAG B   7      18.040   6.903   8.3380  0.00  0.00     0.000 O
BRANCH 95 98
ATOM     96  C1  NAG B   7      19.653   5.397   5.4280  0.00  0.00     0.000 C
ATOM     97  C2  NAG B   7      19.570   6.239   6.6940  0.00  0.00     0.000 C
ATOM     98  C3  NAG B   7      18.104   6.166   7.1180  0.00  0.00     0.000 C
ATOM     99  C4  NAG B   7      17.215   6.730   6.0120  0.00  0.00     0.000 C
ATOM    100  C5  NAG B   7      17.493   6.033   4.6800  0.00  0.00     0.000 C
ATOM    101  O5  NAG B   7      18.888   6.071   4.4220  0.00  0.00     0.000 O
BRANCH 97 104
ATOM    102   N  NAG B   7      20.223   5.835   7.9460  0.00  0.00     0.000 N
ATOM    104  HD  NAG B   7      20.387   5.698   8.7850  0.00  0.00     0.000 HD
ATOM    104   O  NAG B   7      21.812   5.843   9.5610  0.00  0.00     0.000 OA
ATOM    105   C  NAG B   7      21.410   6.230   8.4460  0.00  0.00     0.000 C
ATOM    106   C  NAG B   7      22.256   7.165   7.6500  0.00  0.00     0.000 C
ENDBRANCH 97 104
ATOM    107   O  NAG B   7      16.762   5.839   2.4590  0.00  0.00     0.000 O
ATOM    109  HD  NAG B   7      17.073   5.408   3.1420  0.00  0.00     0.000 HD
ATOM    109   O  NAG B   7      16.762   5.839   2.4590  0.00  0.00     0.000 O
ATOM    111  HD  NAG B   7      17.073   5.408   3.1420  0.00  0.00     0.000 HD
ENDBRANCH 95 98
ENDBRANCH 82 95
ENDBRANCH 81 85
ENDBRANCH 65 81
ENDBRANCH 64 67
ENDBRANCH 51 64
ENDBRANCH 50 54
ENDBRANCH 34 50
ENDBRANCH 33 36
ENDBRANCH 20 33
ENDBRANCH 19 23
ENDBRANCH 1 19
TORSDOF 19
ENDMDL
MODEL 74
REMARK VINA RESULT:      -3.6      9.912     16.236
ROOT
ATOM      1  C1  NAG B   1      11.356  22.002  25.9400  0.00  0.00     0.000 C
ATOM      2  C2  NAG B   1      11.895  21.923  27.3660  0.00  0.00     0.000 C
ATOM      3  C3  NAG B   1      12.342  20.521  27.7240  0.00  0.00     0.000 C
ATOM      4  C4  NAG B   1      11.117  19.636  27.5150  0.00  0.00     0.000 C
ATOM      5  C5  NAG B   1      10.721  19.667  26.0330  0.00  0.00     0.000 C
ATOM      6  O5  NAG B   1      10.375  21.005  25.6150  0.00  0.00     0.000 O
ATOM      7   O  NAG B   1      12.817  20.430  29.0860  0.00  0.00     0.000 O
ATOM      9  HD  NAG B   1      13.073  21.224  28.8510  0.00  0.00     0.000 HD
ATOM      9   O  NAG B   1      11.404  18.305  27.9080  0.00  0.00     0.000 O
ATOM     11  HD  NAG B   1      11.660  19.098  27.6730  0.00  0.00     0.000 HD
ATOM     11   C  NAG B   1       9.576  18.679  25.7770  0.00  0.00     0.000 C
ATOM     12   O  NAG B   1       8.761  19.103  24.6860  0.00  0.00     0.000 O
ATOM     14  HD  NAG B   1       9.017  19.896  24.4510  0.00  0.00     0.000 HD
ENDROOT
BRANCH 2 16
ATOM     14   N  NAG B   1      12.980  22.901  27.5650  0.00  0.00     0.000 N
ATOM     16  HD  NAG B   1      13.251  23.688  27.3270  0.00  0.00     0.000 HD
ATOM     16   C  NAG B   1      12.873  23.962  28.3830  0.00  0.00     0.000 C
ATOM     17   C  NAG B   1      11.587  24.210  29.1270  0.00  0.00     0.000 C
ATOM     18   O  NAG B   1      13.819  24.729  28.5610  0.00  0.00     0.000 OA
ENDBRANCH 2 16
BRANCH 1 19
ATOM     19  O4  BDP B   2      10.671  23.247  25.9210  0.00  0.00     0.000 O
BRANCH 19 23
ATOM     20  C1  BDP B   2      10.813  23.689  21.8310  0.00  0.00     0.000 C
ATOM     21  C2  BDP B   2      11.968  24.281  22.6130  0.00  0.00     0.000 C
ATOM     22  C3  BDP B   2      12.032  23.710  24.0120  0.00  0.00     0.000 C
ATOM     23  C4  BDP B   2      10.669  23.895  24.6720  0.00  0.00     0.000 C
ATOM     24  C5  BDP B   2       9.599  23.256  23.8090  0.00  0.00     0.000 C
ATOM     25  O5  BDP B   2       9.591  23.868  22.5330  0.00  0.00     0.000 O
ATOM     26   O  BDP B   2      13.187  24.039  21.9440  0.00  0.00     0.000 O
ATOM     28  HD  BDP B   2      12.621  23.812  21.3280  0.00  0.00     0.000 HD
ATOM     28   O  BDP B   2      13.080  24.367  24.7430  0.00  0.00     0.000 O
ATOM     30  HD  BDP B   2      12.515  24.140  24.1270  0.00  0.00     0.000 HD
BRANCH 24 30
ATOM     30   C  BDP B   2       8.240  23.410  24.3910  0.00  0.00     0.000 C
ATOM     31   O  BDP B   2       7.539  22.378  24.4950  0.00  0.00     0.000 OA
ATOM     32   O  BDP B   2       7.864  24.565  24.7400  0.00  0.00     0.000 OA
ENDBRANCH 24 30
BRANCH 20 33
ATOM     33  O3  NAG B   3      10.781  24.447  20.6460  0.00  0.00     0.000 O
BRANCH 33 36
ATOM     34  C1  NAG B   3       9.655  22.933  17.3920  0.00  0.00     0.000 C
ATOM     35  C2  NAG B   3      10.603  23.316  18.5130  0.00  0.00     0.000 C
ATOM     36  C3  NAG B   3       9.843  23.917  19.7050  0.00  0.00     0.000 C
ATOM     37  C4  NAG B   3       8.944  25.048  19.2140  0.00  0.00     0.000 C
ATOM     38  C5  NAG B   3       8.098  24.577  18.0340  0.00  0.00     0.000 C
ATOM     39  O5  NAG B   3       8.938  24.094  17.0000  0.00  0.00     0.000 O
ATOM     40   O  NAG B   3       8.081  25.486  20.2750  0.00  0.00     0.000 O
ATOM     42  HD  NAG B   3       7.472  25.324  19.6810  0.00  0.00     0.000 HD
ATOM     42   C  NAG B   3       7.261  25.682  17.3940  0.00  0.00     0.000 C
ATOM     43   O  NAG B   3       8.128  26.654  16.7960  0.00  0.00     0.000 O
ATOM     45  HD  NAG B   3       7.519  26.492  16.2010  0.00  0.00     0.000 HD
BRANCH 35 47
ATOM     45   N  NAG B   3      12.051  23.169  18.4510  0.00  0.00     0.000 N
ATOM     47  HD  NAG B   3      11.802  23.997  18.4960  0.00  0.00     0.000 HD
ATOM     47   C  NAG B   3      12.700  22.200  19.0640  0.00  0.00     0.000 C
ATOM     48   C  NAG B   3      14.193  22.206  18.9140  0.00  0.00     0.000 C
ATOM     49   O  NAG B   3      12.120  21.354  19.7420  0.00  0.00     0.000 OA
ENDBRANCH 35 47
BRANCH 34 50
ATOM     50  O4  BDP B   4      10.517  22.513  16.3550  0.00  0.00     0.000 O
BRANCH 50 54
ATOM     51  C1  BDP B   4      10.842  20.035  13.1440  0.00  0.00     0.000 C
ATOM     52  C2  BDP B   4       9.585  20.898  13.1520  0.00  0.00     0.000 C
ATOM     53  C3  BDP B   4       9.766  22.000  14.1500  0.00  0.00     0.000 C
ATOM     54  C4  BDP B   4      10.122  21.397  15.5400  0.00  0.00     0.000 C
ATOM     55  C5  BDP B   4      11.257  20.385  15.4590  0.00  0.00     0.000 C
ATOM     56  O5  BDP B   4      11.010  19.442  14.4190  0.00  0.00     0.000 O
ATOM     57   O  BDP B   4       9.366  21.456  11.8740  0.00  0.00     0.000 O
ATOM     59  HD  BDP B   4       8.728  20.979  11.5340  0.00  0.00     0.000 HD
ATOM     59   O  BDP B   4       8.495  22.671  14.2690  0.00  0.00     0.000 O
ATOM     61  HD  BDP B   4       7.857  22.195  13.9290  0.00  0.00     0.000 HD
BRANCH 55 61
ATOM     61   C  BDP B   4      11.368  19.651  16.7830  0.00  0.00     0.000 C
ATOM     62   O  BDP B   4      10.315  19.466  17.4470  0.00  0.00     0.000 OA
ATOM     63   O  BDP B   4      12.515  19.256  17.1560  0.00  0.00     0.000 OA
ENDBRANCH 55 61
BRANCH 51 64
ATOM     64  O3  NAG B   5      10.662  19.027  12.1310  0.00  0.00     0.000 O
BRANCH 64 67
ATOM     65  C1  NAG B   5      12.944  18.171   9.3640  0.00  0.00     0.000 C
ATOM     66  C2  NAG B   5      11.774  18.822  10.0820  0.00  0.00     0.000 C
ATOM     67  C3  NAG B   5      11.887  18.583  11.5820  0.00  0.00     0.000 C
ATOM     68  C4  NAG B   5      12.074  17.091  11.8890  0.00  0.00     0.000 C
ATOM     69  C5  NAG B   5      13.206  16.508  11.0570  0.00  0.00     0.000 C
ATOM     70  O5  NAG B   5      12.989  16.796   9.6680  0.00  0.00     0.000 O
ATOM     71   O  NAG B   5      12.325  16.942  13.2700  0.00  0.00     0.000 O
ATOM     73  HD  NAG B   5      11.783  16.274  13.1740  0.00  0.00     0.000 HD
ATOM     73   C  NAG B   5      13.382  14.990  11.2050  0.00  0.00     0.000 C
ATOM     74   O  NAG B   5      12.207  14.316  10.7080  0.00  0.00     0.000 O
ATOM     76  HD  NAG B   5      11.665  13.648  10.6120  0.00  0.00     0.000 HD
BRANCH 66 78
ATOM     76   N  NAG B   5      11.824  20.239   9.6720  0.00  0.00     0.000 N
ATOM     78  HD  NAG B   5      11.265  19.580   9.6190  0.00  0.00     0.000 HD
ATOM     78   C  NAG B   5      10.790  20.967   9.2220  0.00  0.00     0.000 C
ATOM     79   C  NAG B   5      11.155  22.392   8.9020  0.00  0.00     0.000 C
ATOM     80   O  NAG B   5       9.608  20.493   9.0710  0.00  0.00     0.000 OA
ENDBRANCH 66 78
BRANCH 65 81
ATOM     81  O4  BDP B   6      12.817  18.354   7.9480  0.00  0.00     0.000 O
BRANCH 81 85
ATOM     82  C1  BDP B   6      15.258  18.522   4.4300  0.00  0.00     0.000 C
ATOM     83  C2  BDP B   6      14.938  17.144   5.0010  0.00  0.00     0.000 C
ATOM     84  C3  BDP B   6      13.759  17.163   5.9780  0.00  0.00     0.000 C
ATOM     85  C4  BDP B   6      13.932  18.228   7.0630  0.00  0.00     0.000 C
ATOM     86  C5  BDP B   6      14.285  19.564   6.3660  0.00  0.00     0.000 C
ATOM     87  O5  BDP B   6      15.459  19.434   5.5000  0.00  0.00     0.000 O
ATOM     88   O  BDP B   6      14.612  16.332   3.8770  0.00  0.00     0.000 O
ATOM     90  HD  BDP B   6      14.043  15.727   3.6330  0.00  0.00     0.000 HD
ATOM     90   O  BDP B   6      13.594  15.866   6.5560  0.00  0.00     0.000 O
ATOM     92  HD  BDP B   6      13.024  15.261   6.3130  0.00  0.00     0.000 HD
BRANCH 86 92
ATOM     92   C  BDP B   6      14.701  20.599   7.3830  0.00  0.00     0.000 C
ATOM     93   O  BDP B   6      15.560  20.296   8.2660  0.00  0.00     0.000 OA
ATOM     94   O  BDP B   6      14.179  21.753   7.2920  0.00  0.00     0.000 OA
ENDBRANCH 86 92
BRANCH 82 95
ATOM     95  O3  NAG B   7      16.490  18.432   3.6890  0.00  0.00     0.000 O
BRANCH 95 98
ATOM     96  C1  NAG B   7      17.586  19.392   0.3390  0.00  0.00     0.000 C
ATOM     97  C2  NAG B   7      17.413  18.467   1.5370  0.00  0.00     0.000 C
ATOM     98  C3  NAG B   7      16.708  19.317   2.5910  0.00  0.00     0.000 C
ATOM     99  C4  NAG B   7      17.569  20.529   2.9410  0.00  0.00     0.000 C
ATOM    100  C5  NAG B   7      17.942  21.315   1.6830  0.00  0.00     0.000 C
ATOM    101  O5  NAG B   7      18.500  20.422   0.7320  0.00  0.00     0.000 O
BRANCH 97 104
ATOM    102   N  NAG B   7      16.517  17.305   1.4500  0.00  0.00     0.000 N
ATOM    104  HD  NAG B   7      15.913  16.713   1.6350  0.00  0.00     0.000 HD
ATOM    104   O  NAG B   7      15.958  15.114   1.3330  0.00  0.00     0.000 OA
ATOM    105   C  NAG B   7      16.833  16.001   1.3340  0.00  0.00     0.000 C
ATOM    106   C  NAG B   7      18.267  15.611   1.2200  0.00  0.00     0.000 C
ENDBRANCH 97 104
ATOM    107   O  NAG B   7      18.965  23.282   0.9160  0.00  0.00     0.000 O
ATOM    109  HD  NAG B   7      18.308  22.731   0.7940  0.00  0.00     0.000 HD
ATOM    109   O  NAG B   7      18.965  23.282   0.9160  0.00  0.00     0.000 O
ATOM    111  HD  NAG B   7      18.308  22.731   0.7940  0.00  0.00     0.000 HD
ENDBRANCH 95 98
ENDBRANCH 82 95
ENDBRANCH 81 85
ENDBRANCH 65 81
ENDBRANCH 64 67
ENDBRANCH 51 64
ENDBRANCH 50 54
ENDBRANCH 34 50
ENDBRANCH 33 36
ENDBRANCH 20 33
ENDBRANCH 19 23
ENDBRANCH 1 19
TORSDOF 19
ENDMDL
MODEL 75
REMARK VINA RESULT:      -3.6      3.489      4.766
ROOT
ATOM      1  C1  NAG B   1       6.908  21.004   9.2720  0.00  0.00     0.000 C
ATOM      2  C2  NAG B   1       6.616  22.498   9.3770  0.00  0.00     0.000 C
ATOM      3  C3  NAG B   1       5.148  22.770   9.6320  0.00  0.00     0.000 C
ATOM      4  C4  NAG B   1       4.404  22.113   8.4750  0.00  0.00     0.000 C
ATOM      5  C5  NAG B   1       4.642  20.598   8.5190  0.00  0.00     0.000 C
ATOM      6  O5  NAG B   1       6.045  20.287   8.3750  0.00  0.00     0.000 O
ATOM      7   O  NAG B   1       4.858  24.185   9.6940  0.00  0.00     0.000 O
ATOM      9  HD  NAG B   1       5.648  24.141  10.0470  0.00  0.00     0.000 HD
ATOM      9   O  NAG B   1       3.015  22.383   8.5710  0.00  0.00     0.000 O
ATOM     11  HD  NAG B   1       3.805  22.339   8.9230  0.00  0.00     0.000 HD
ATOM     11   C  NAG B   1       3.793  19.903   7.4470  0.00  0.00     0.000 C
ATOM     12   O  NAG B   1       4.411  18.698   6.9980  0.00  0.00     0.000 O
ATOM     14  HD  NAG B   1       5.201  18.653   7.3510  0.00  0.00     0.000 HD
ENDROOT
BRANCH 2 16
ATOM     14   N  NAG B   1       7.503  23.079  10.4010  0.00  0.00     0.000 N
ATOM     16  HD  NAG B   1       8.305  23.035  10.7230  0.00  0.00     0.000 HD
ATOM     16   C  NAG B   1       8.429  24.014  10.1260  0.00  0.00     0.000 C
ATOM     17   C  NAG B   1       8.615  24.494   8.7110  0.00  0.00     0.000 C
ATOM     18   O  NAG B   1       9.117  24.512  11.0160  0.00  0.00     0.000 OA
ENDBRANCH 2 16
BRANCH 1 19
ATOM     19  O4  BDP B   2       8.201  20.967   8.6830  0.00  0.00     0.000 O
BRANCH 19 23
ATOM     20  C1  BDP B   2      11.361  18.329   8.6710  0.00  0.00     0.000 C
ATOM     21  C2  BDP B   2      10.154  17.937   7.8450  0.00  0.00     0.000 C
ATOM     22  C3  BDP B   2       9.259  19.127   7.5820  0.00  0.00     0.000 C
ATOM     23  C4  BDP B   2       8.918  19.779   8.9200  0.00  0.00     0.000 C
ATOM     24  C5  BDP B   2      10.198  20.136   9.6480  0.00  0.00     0.000 C
ATOM     25  O5  BDP B   2      10.956  18.963   9.8770  0.00  0.00     0.000 O
ATOM     26   O  BDP B   2      10.563  17.371   6.6190  0.00  0.00     0.000 O
ATOM     28  HD  BDP B   2      11.317  17.385   7.0450  0.00  0.00     0.000 HD
ATOM     28   O  BDP B   2       8.085  18.691   6.8790  0.00  0.00     0.000 O
ATOM     30  HD  BDP B   2       8.839  18.706   7.3050  0.00  0.00     0.000 HD
BRANCH 24 30
ATOM     30   C  BDP B   2       9.936  20.766  10.9690  0.00  0.00     0.000 C
ATOM     31   O  BDP B   2      10.712  21.680  11.3330  0.00  0.00     0.000 OA
ATOM     32   O  BDP B   2       8.959  20.346  11.6520  0.00  0.00     0.000 OA
ENDBRANCH 24 30
BRANCH 20 33
ATOM     33  O3  NAG B   3      11.976  17.102   8.9790  0.00  0.00     0.000 O
BRANCH 33 36
ATOM     34  C1  NAG B   3      15.686  16.522   9.1980  0.00  0.00     0.000 C
ATOM     35  C2  NAG B   3      14.297  16.535   8.5880  0.00  0.00     0.000 C
ATOM     36  C3  NAG B   3      13.301  17.286   9.4840  0.00  0.00     0.000 C
ATOM     37  C4  NAG B   3      13.371  16.723  10.9020  0.00  0.00     0.000 C
ATOM     38  C5  NAG B   3      14.820  16.677  11.3810  0.00  0.00     0.000 C
ATOM     39  O5  NAG B   3      15.603  15.915  10.4790  0.00  0.00     0.000 O
ATOM     40   O  NAG B   3      12.599  17.541  11.7940  0.00  0.00     0.000 O
ATOM     42  HD  NAG B   3      13.348  17.560  12.2270  0.00  0.00     0.000 HD
ATOM     42   C  NAG B   3      14.999  16.006  12.7410  0.00  0.00     0.000 C
ATOM     43   O  NAG B   3      14.653  14.619  12.6400  0.00  0.00     0.000 O
ATOM     45  HD  NAG B   3      15.403  14.639  13.0730  0.00  0.00     0.000 HD
BRANCH 35 47
ATOM     45   N  NAG B   3      14.368  17.098   7.2460  0.00  0.00     0.000 N
ATOM     47  HD  NAG B   3      15.113  17.177   7.6810  0.00  0.00     0.000 HD
ATOM     47   C  NAG B   3      13.776  16.547   6.2050  0.00  0.00     0.000 C
ATOM     48   C  NAG B   3      13.966  17.244   4.8910  0.00  0.00     0.000 C
ATOM     49   O  NAG B   3      13.127  15.507   6.3000  0.00  0.00     0.000 OA
ENDBRANCH 35 47
BRANCH 34 50
ATOM     50  O4  BDP B   4      16.431  15.709   8.3150  0.00  0.00     0.000 O
BRANCH 50 54
ATOM     51  C1  BDP B   4      20.209  14.834   7.0860  0.00  0.00     0.000 C
ATOM     52  C2  BDP B   4      20.051  14.968   8.5960  0.00  0.00     0.000 C
ATOM     53  C3  BDP B   4      18.593  14.913   8.9330  0.00  0.00     0.000 C
ATOM     54  C4  BDP B   4      17.826  15.998   8.1230  0.00  0.00     0.000 C
ATOM     55  C5  BDP B   4      18.164  15.959   6.6390  0.00  0.00     0.000 C
ATOM     56  O5  BDP B   4      19.576  15.929   6.4500  0.00  0.00     0.000 O
ATOM     57   O  BDP B   4      20.723  13.916   9.2550  0.00  0.00     0.000 O
ATOM     59  HD  BDP B   4      21.451  14.276   9.5570  0.00  0.00     0.000 HD
ATOM     59   O  BDP B   4      18.472  15.236  10.3330  0.00  0.00     0.000 O
ATOM     61  HD  BDP B   4      19.200  15.597  10.6350  0.00  0.00     0.000 HD
BRANCH 55 61
ATOM     61   C  BDP B   4      17.597  17.196   5.9640  0.00  0.00     0.000 C
ATOM     62   O  BDP B   4      17.431  17.164   4.7160  0.00  0.00     0.000 OA
ATOM     63   O  BDP B   4      17.316  18.200   6.6870  0.00  0.00     0.000 OA
ENDBRANCH 55 61
BRANCH 51 64
ATOM     64  O3  NAG B   5      21.622  14.825   6.8040  0.00  0.00     0.000 O
BRANCH 64 67
ATOM     65  C1  NAG B   5      23.178  12.409   4.4940  0.00  0.00     0.000 C
ATOM     66  C2  NAG B   5      22.611  12.961   5.7910  0.00  0.00     0.000 C
ATOM     67  C3  NAG B   5      21.918  14.292   5.5280  0.00  0.00     0.000 C
ATOM     68  C4  NAG B   5      22.845  15.257   4.7740  0.00  0.00     0.000 C
ATOM     69  C5  NAG B   5      23.434  14.584   3.5440  0.00  0.00     0.000 C
ATOM     70  O5  NAG B   5      24.057  13.346   3.9160  0.00  0.00     0.000 O
ATOM     71   O  NAG B   5      22.108  16.409   4.4230  0.00  0.00     0.000 O
ATOM     73  HD  NAG B   5      22.837  16.803   4.6740  0.00  0.00     0.000 HD
ATOM     73   C  NAG B   5      24.473  15.432   2.7970  0.00  0.00     0.000 C
ATOM     74   O  NAG B   5      25.617  15.657   3.6480  0.00  0.00     0.000 O
ATOM     76  HD  NAG B   5      26.345  16.051   3.8990  0.00  0.00     0.000 HD
BRANCH 66 78
ATOM     76   N  NAG B   5      22.730  12.064   6.9550  0.00  0.00     0.000 N
ATOM     78  HD  NAG B   5      22.095  12.448   6.5100  0.00  0.00     0.000 HD
ATOM     78   C  NAG B   5      21.723  11.409   7.5530  0.00  0.00     0.000 C
ATOM     79   C  NAG B   5      22.166  10.552   8.7080  0.00  0.00     0.000 C
ATOM     80   O  NAG B   5      20.499  11.510   7.1820  0.00  0.00     0.000 OA
ENDBRANCH 66 78
BRANCH 65 81
ATOM     81  O4  BDP B   6      23.871  11.179   4.7440  0.00  0.00     0.000 O
BRANCH 81 85
ATOM     82  C1  BDP B   6      24.535   7.398   2.8390  0.00  0.00     0.000 C
ATOM     83  C2  BDP B   6      25.535   8.516   2.5570  0.00  0.00     0.000 C
ATOM     84  C3  BDP B   6      25.453   9.659   3.5720  0.00  0.00     0.000 C
ATOM     85  C4  BDP B   6      24.022  10.174   3.7390  0.00  0.00     0.000 C
ATOM     86  C5  BDP B   6      23.103   8.953   3.9840  0.00  0.00     0.000 C
ATOM     87  O5  BDP B   6      23.230   7.953   2.9220  0.00  0.00     0.000 O
ATOM     88   O  BDP B   6      26.820   7.903   2.6320  0.00  0.00     0.000 O
ATOM     90  HD  BDP B   6      27.615   8.055   2.9410  0.00  0.00     0.000 HD
ATOM     90   O  BDP B   6      26.335  10.714   3.1800  0.00  0.00     0.000 O
ATOM     92  HD  BDP B   6      27.129  10.865   3.4890  0.00  0.00     0.000 HD
BRANCH 86 92
ATOM     92   C  BDP B   6      21.651   9.362   3.9200  0.00  0.00     0.000 C
ATOM     93   O  BDP B   6      21.207   9.929   2.8770  0.00  0.00     0.000 OA
ATOM     94   O  BDP B   6      20.922   9.094   4.9260  0.00  0.00     0.000 OA
ENDBRANCH 86 92
BRANCH 82 95
ATOM     95  O3  NAG B   7      24.555   6.480   1.7280  0.00  0.00     0.000 O
BRANCH 95 98
ATOM     96  C1  NAG B   7      24.497   2.836   1.4840  0.00  0.00     0.000 C
ATOM     97  C2  NAG B   7      25.036   4.240   1.2430  0.00  0.00     0.000 C
ATOM     98  C3  NAG B   7      24.017   5.170   1.9000  0.00  0.00     0.000 C
ATOM     99  C4  NAG B   7      22.647   4.978   1.2540  0.00  0.00     0.000 C
ATOM    100  C5  NAG B   7      22.229   3.508   1.2850  0.00  0.00     0.000 C
ATOM    101  O5  NAG B   7      23.278   2.720   0.7420  0.00  0.00     0.000 O
BRANCH 97 104
ATOM    102   N  NAG B   7      26.304   4.603   1.8890  0.00  0.00     0.000 N
ATOM    104  HD  NAG B   7      26.901   5.010   2.3670  0.00  0.00     0.000 HD
ATOM    104   O  NAG B   7      28.467   5.268   2.0000  0.00  0.00     0.000 OA
ATOM    105   C  NAG B   7      27.482   4.921   1.3190  0.00  0.00     0.000 C
ATOM    106   C  NAG B   7      27.606   4.869  -0.1660  0.00  0.00     0.000 C
ENDBRANCH 97 104
ATOM    107   O  NAG B   7      20.458   2.035   0.8410  0.00  0.00     0.000 O
ATOM    109  HD  NAG B   7      21.108   2.218   1.3840  0.00  0.00     0.000 HD
ATOM    109   O  NAG B   7      20.458   2.035   0.8410  0.00  0.00     0.000 O
ATOM    111  HD  NAG B   7      21.108   2.218   1.3840  0.00  0.00     0.000 HD
ENDBRANCH 95 98
ENDBRANCH 82 95
ENDBRANCH 81 85
ENDBRANCH 65 81
ENDBRANCH 64 67
ENDBRANCH 51 64
ENDBRANCH 50 54
ENDBRANCH 34 50
ENDBRANCH 33 36
ENDBRANCH 20 33
ENDBRANCH 19 23
ENDBRANCH 1 19
TORSDOF 19
ENDMDL
MODEL 76
REMARK VINA RESULT:      -3.5      6.006     19.102
ROOT
ATOM      1  C1  NAG B   1      28.782   3.838   9.4180  0.00  0.00     0.000 C
ATOM      2  C2  NAG B   1      29.506   4.026  10.7470  0.00  0.00     0.000 C
ATOM      3  C3  NAG B   1      30.250   2.775  11.1670  0.00  0.00     0.000 C
ATOM      4  C4  NAG B   1      29.195   1.675  11.2300  0.00  0.00     0.000 C
ATOM      5  C5  NAG B   1      28.611   1.457   9.8280  0.00  0.00     0.000 C
ATOM      6  O5  NAG B   1      27.970   2.655   9.3400  0.00  0.00     0.000 O
ATOM      7   O  NAG B   1      30.907   2.933  12.4450  0.00  0.00     0.000 O
ATOM      9  HD  NAG B   1      30.978   3.724  12.0990  0.00  0.00     0.000 HD
ATOM      9   O  NAG B   1      29.775   0.469  11.7010  0.00  0.00     0.000 O
ATOM     11  HD  NAG B   1      29.845   1.260  11.3550  0.00  0.00     0.000 HD
ATOM     11   C  NAG B   1      27.648   0.264   9.8420  0.00  0.00     0.000 C
ATOM     12   O  NAG B   1      26.632   0.406   8.8500  0.00  0.00     0.000 O
ATOM     14  HD  NAG B   1      26.703   1.197   8.5050  0.00  0.00     0.000 HD
ENDROOT
BRANCH 2 16
ATOM     14   N  NAG B   1      30.313   5.249  10.5870  0.00  0.00     0.000 N
ATOM     16  HD  NAG B   1      30.284   6.059  10.2820  0.00  0.00     0.000 HD
ATOM     16   C  NAG B   1      30.210   6.310  11.4060  0.00  0.00     0.000 C
ATOM     17   C  NAG B   1      29.215   6.293  12.5360  0.00  0.00     0.000 C
ATOM     18   O  NAG B   1      30.936   7.294  11.2710  0.00  0.00     0.000 OA
ENDBRANCH 2 16
BRANCH 1 19
ATOM     19  O4  BDP B   2      27.879   4.935   9.3830  0.00  0.00     0.000 O
BRANCH 19 23
ATOM     20  C1  BDP B   2      23.801   5.400   9.0720  0.00  0.00     0.000 C
ATOM     21  C2  BDP B   2      24.312   4.785  10.3580  0.00  0.00     0.000 C
ATOM     22  C3  BDP B   2      25.790   5.046  10.5410  0.00  0.00     0.000 C
ATOM     23  C4  BDP B   2      26.522   4.574   9.2870  0.00  0.00     0.000 C
ATOM     24  C5  BDP B   2      25.934   5.262   8.0710  0.00  0.00     0.000 C
ATOM     25  O5  BDP B   2      24.560   4.940   7.9620  0.00  0.00     0.000 O
ATOM     26   O  BDP B   2      23.599   5.298  11.4630  0.00  0.00     0.000 O
ATOM     28  HD  BDP B   2      23.109   5.588  10.8110  0.00  0.00     0.000 HD
ATOM     28   O  BDP B   2      26.249   4.367  11.7210  0.00  0.00     0.000 O
ATOM     30  HD  BDP B   2      25.758   4.657  11.0680  0.00  0.00     0.000 HD
BRANCH 24 30
ATOM     30   C  BDP B   2      26.596   4.837   6.8100  0.00  0.00     0.000 C
ATOM     31   O  BDP B   2      27.225   5.710   6.1690  0.00  0.00     0.000 OA
ATOM     32   O  BDP B   2      26.485   3.631   6.4490  0.00  0.00     0.000 OA
ENDBRANCH 24 30
BRANCH 20 33
ATOM     33  O3  NAG B   3      22.485   4.915   8.9630  0.00  0.00     0.000 O
BRANCH 33 36
ATOM     34  C1  NAG B   3      19.853   6.976   7.2380  0.00  0.00     0.000 C
ATOM     35  C2  NAG B   3      20.750   6.494   8.3620  0.00  0.00     0.000 C
ATOM     36  C3  NAG B   3      21.798   5.494   7.8500  0.00  0.00     0.000 C
ATOM     37  C4  NAG B   3      21.100   4.384   7.0690  0.00  0.00     0.000 C
ATOM     38  C5  NAG B   3      20.161   4.982   6.0250  0.00  0.00     0.000 C
ATOM     39  O5  NAG B   3      19.226   5.844   6.6520  0.00  0.00     0.000 O
ATOM     40   O  NAG B   3      22.074   3.555   6.4170  0.00  0.00     0.000 O
ATOM     42  HD  NAG B   3      21.596   3.753   5.7220  0.00  0.00     0.000 HD
ATOM     42   C  NAG B   3      19.321   3.944   5.2830  0.00  0.00     0.000 C
ATOM     43   O  NAG B   3      18.417   3.316   6.2000  0.00  0.00     0.000 O
ATOM     45  HD  NAG B   3      17.939   3.514   5.5060  0.00  0.00     0.000 HD
BRANCH 35 47
ATOM     45   N  NAG B   3      21.302   7.671   9.0190  0.00  0.00     0.000 N
ATOM     47  HD  NAG B   3      20.826   7.870   8.3240  0.00  0.00     0.000 HD
ATOM     47   C  NAG B   3      21.404   7.780  10.3290  0.00  0.00     0.000 C
ATOM     48   C  NAG B   3      21.976   9.068  10.8420  0.00  0.00     0.000 C
ATOM     49   O  NAG B   3      21.026   6.890  11.0870  0.00  0.00     0.000 OA
ENDBRANCH 35 47
BRANCH 34 50
ATOM     50  O4  BDP B   4      18.897   7.782   7.8950  0.00  0.00     0.000 O
BRANCH 50 54
ATOM     51  C1  BDP B   4      16.467  11.017   7.4670  0.00  0.00     0.000 C
ATOM     52  C2  BDP B   4      15.885   9.714   6.9300  0.00  0.00     0.000 C
ATOM     53  C3  BDP B   4      16.686   8.571   7.4740  0.00  0.00     0.000 C
ATOM     54  C4  BDP B   4      18.191   8.774   7.1320  0.00  0.00     0.000 C
ATOM     55  C5  BDP B   4      18.686  10.165   7.5030  0.00  0.00     0.000 C
ATOM     56  O5  BDP B   4      17.798  11.160   7.0030  0.00  0.00     0.000 O
ATOM     57   O  BDP B   4      14.540   9.576   7.3330  0.00  0.00     0.000 O
ATOM     59  HD  BDP B   4      14.079   9.774   6.6270  0.00  0.00     0.000 HD
ATOM     59   O  BDP B   4      16.233   7.381   6.7970  0.00  0.00     0.000 O
ATOM     61  HD  BDP B   4      15.772   7.579   6.0910  0.00  0.00     0.000 HD
BRANCH 55 61
ATOM     61   C  BDP B   4      20.065  10.381   6.9050  0.00  0.00     0.000 C
ATOM     62   O  BDP B   4      20.151  10.532   5.6580  0.00  0.00     0.000 OA
ATOM     63   O  BDP B   4      21.063  10.402   7.6890  0.00  0.00     0.000 OA
ENDBRANCH 55 61
BRANCH 51 64
ATOM     64  O3  NAG B   5      15.638  12.088   6.9780  0.00  0.00     0.000 O
BRANCH 64 67
ATOM     65  C1  NAG B   5      14.595  15.077   8.8700  0.00  0.00     0.000 C
ATOM     66  C2  NAG B   5      14.529  13.670   8.3000  0.00  0.00     0.000 C
ATOM     67  C3  NAG B   5      15.863  13.306   7.6620  0.00  0.00     0.000 C
ATOM     68  C4  NAG B   5      16.306  14.380   6.6590  0.00  0.00     0.000 C
ATOM     69  C5  NAG B   5      16.251  15.761   7.2920  0.00  0.00     0.000 C
ATOM     70  O5  NAG B   5      14.952  15.989   7.8570  0.00  0.00     0.000 O
ATOM     71   O  NAG B   5      17.609  14.073   6.2140  0.00  0.00     0.000 O
ATOM     73  HD  NAG B   5      17.273  14.305   5.4500  0.00  0.00     0.000 HD
ATOM     73   C  NAG B   5      16.556  16.913   6.3240  0.00  0.00     0.000 C
ATOM     74   O  NAG B   5      15.542  16.964   5.2990  0.00  0.00     0.000 O
ATOM     76  HD  NAG B   5      15.206  17.197   4.5350  0.00  0.00     0.000 HD
BRANCH 66 78
ATOM     76   N  NAG B   5      14.236  12.694   9.3670  0.00  0.00     0.000 N
ATOM     78  HD  NAG B   5      13.817  13.054   8.7010  0.00  0.00     0.000 HD
ATOM     78   C  NAG B   5      13.155  11.902   9.4380  0.00  0.00     0.000 C
ATOM     79   C  NAG B   5      13.152  10.997  10.6400  0.00  0.00     0.000 C
ATOM     80   O  NAG B   5      12.212  11.920   8.5690  0.00  0.00     0.000 OA
ENDBRANCH 66 78
BRANCH 65 81
ATOM     81  O4  BDP B   6      13.328  15.442   9.4310  0.00  0.00     0.000 O
BRANCH 81 85
ATOM     82  C1  BDP B   6      11.713  17.992  12.4720  0.00  0.00     0.000 C
ATOM     83  C2  BDP B   6      12.026  18.621  11.1170  0.00  0.00     0.000 C
ATOM     84  C3  BDP B   6      12.199  17.583  10.0050  0.00  0.00     0.000 C
ATOM     85  C4  BDP B   6      13.196  16.489  10.3950  0.00  0.00     0.000 C
ATOM     86  C5  BDP B   6      12.797  15.957  11.7920  0.00  0.00     0.000 C
ATOM     87  O5  BDP B   6      12.714  17.033  12.7820  0.00  0.00     0.000 O
ATOM     88   O  BDP B   6      10.910  19.456  10.8190  0.00  0.00     0.000 O
ATOM     90  HD  BDP B   6      10.399  19.675  10.1560  0.00  0.00     0.000 HD
ATOM     90   O  BDP B   6      12.601  18.235   8.7980  0.00  0.00     0.000 O
ATOM     92  HD  BDP B   6      12.089  18.454   8.1350  0.00  0.00     0.000 HD
BRANCH 86 92
ATOM     92   C  BDP B   6      13.870  15.048  12.3390  0.00  0.00     0.000 C
ATOM     93   O  BDP B   6      14.951  15.548  12.7730  0.00  0.00     0.000 OA
ATOM     94   O  BDP B   6      13.626  13.801  12.3610  0.00  0.00     0.000 OA
ENDBRANCH 86 92
BRANCH 82 95
ATOM     95  O3  NAG B   7      11.766  19.026  13.4750  0.00  0.00     0.000 O
BRANCH 95 98
ATOM     96  C1  NAG B   7       9.508  20.491  15.9440  0.00  0.00     0.000 C
ATOM     97  C2  NAG B   7      10.581  20.493  14.8630  0.00  0.00     0.000 C
ATOM     98  C3  NAG B   7      10.807  19.020  14.5320  0.00  0.00     0.000 C
ATOM     99  C4  NAG B   7      11.272  18.272  15.7790  0.00  0.00     0.000 C
ATOM    100  C5  NAG B   7      10.299  18.487  16.9390  0.00  0.00     0.000 C
ATOM    101  O5  NAG B   7      10.081  19.880  17.1050  0.00  0.00     0.000 O
BRANCH 97 104
ATOM    102   N  NAG B   7      10.229  21.104  13.5740  0.00  0.00     0.000 N
ATOM    104  HD  NAG B   7      10.080  21.221  12.7290  0.00  0.00     0.000 HD
ATOM    104   O  NAG B   7      10.418  22.535  11.8290  0.00  0.00     0.000 OA
ATOM    105   C  NAG B   7      10.787  22.164  12.9600  0.00  0.00     0.000 C
ATOM    106   C  NAG B   7      11.885  22.903  13.6470  0.00  0.00     0.000 C
ENDBRANCH 97 104
ATOM    107   O  NAG B   7       9.791  17.819  19.1300  0.00  0.00     0.000 O
ATOM    109  HD  NAG B   7       9.458  18.033  18.3590  0.00  0.00     0.000 HD
ATOM    109   O  NAG B   7       9.791  17.819  19.1300  0.00  0.00     0.000 O
ATOM    111  HD  NAG B   7       9.458  18.033  18.3590  0.00  0.00     0.000 HD
ENDBRANCH 95 98
ENDBRANCH 82 95
ENDBRANCH 81 85
ENDBRANCH 65 81
ENDBRANCH 64 67
ENDBRANCH 51 64
ENDBRANCH 50 54
ENDBRANCH 34 50
ENDBRANCH 33 36
ENDBRANCH 20 33
ENDBRANCH 19 23
ENDBRANCH 1 19
TORSDOF 19
ENDMDL
MODEL 77
REMARK VINA RESULT:      -3.5     10.911     19.403
ROOT
ATOM      1  C1  NAG B   1      34.697   9.907  16.9660  0.00  0.00     0.000 C
ATOM      2  C2  NAG B   1      34.480  10.115  18.4630  0.00  0.00     0.000 C
ATOM      3  C3  NAG B   1      35.580   9.477  19.2870  0.00  0.00     0.000 C
ATOM      4  C4  NAG B   1      35.576   8.002  18.8990  0.00  0.00     0.000 C
ATOM      5  C5  NAG B   1      35.932   7.872  17.4120  0.00  0.00     0.000 C
ATOM      6  O5  NAG B   1      34.962   8.548  16.5840  0.00  0.00     0.000 O
ATOM      7   O  NAG B   1      35.360   9.637  20.7070  0.00  0.00     0.000 O
ATOM      9  HD  NAG B   1      35.047  10.377  20.3850  0.00  0.00     0.000 HD
ATOM      9   O  NAG B   1      36.518   7.289  19.6820  0.00  0.00     0.000 O
ATOM     11  HD  NAG B   1      36.205   8.029  19.3600  0.00  0.00     0.000 HD
ATOM     11   C  NAG B   1      36.068   6.392  17.0340  0.00  0.00     0.000 C
ATOM     12   O  NAG B   1      35.745   6.176  15.6610  0.00  0.00     0.000 O
ATOM     14  HD  NAG B   1      35.432   6.917  15.3400  0.00  0.00     0.000 HD
ENDROOT
BRANCH 2 16
ATOM     14   N  NAG B   1      33.257  10.784  18.9390  0.00  0.00     0.000 N
ATOM     16  HD  NAG B   1      32.868  11.084  19.6530  0.00  0.00     0.000 HD
ATOM     16   C  NAG B   1      33.197  12.099  19.2140  0.00  0.00     0.000 C
ATOM     17   C  NAG B   1      34.427  12.954  19.0640  0.00  0.00     0.000 C
ATOM     18   O  NAG B   1      32.144  12.631  19.5630  0.00  0.00     0.000 OA
ENDBRANCH 2 16
BRANCH 1 19
ATOM     19  O4  BDP B   2      33.432  10.231  16.4070  0.00  0.00     0.000 O
BRANCH 19 23
ATOM     20  C1  BDP B   2      30.771   8.398  13.8570  0.00  0.00     0.000 C
ATOM     21  C2  BDP B   2      30.900   7.797  15.2420  0.00  0.00     0.000 C
ATOM     22  C3  BDP B   2      31.555   8.765  16.2010  0.00  0.00     0.000 C
ATOM     23  C4  BDP B   2      32.877   9.227  15.5930  0.00  0.00     0.000 C
ATOM     24  C5  BDP B   2      32.621   9.818  14.2200  0.00  0.00     0.000 C
ATOM     25  O5  BDP B   2      32.037   8.838  13.3840  0.00  0.00     0.000 O
ATOM     26   O  BDP B   2      29.631   7.425  15.7340  0.00  0.00     0.000 O
ATOM     28  HD  BDP B   2      29.438   7.583  14.9050  0.00  0.00     0.000 HD
ATOM     28   O  BDP B   2      31.741   8.120  17.4700  0.00  0.00     0.000 O
ATOM     30  HD  BDP B   2      31.548   8.278  16.6410  0.00  0.00     0.000 HD
BRANCH 24 30
ATOM     30   C  BDP B   2      33.874  10.279  13.5650  0.00  0.00     0.000 C
ATOM     31   O  BDP B   2      33.973  11.502  13.3130  0.00  0.00     0.000 OA
ATOM     32   O  BDP B   2      34.761   9.421  13.2920  0.00  0.00     0.000 OA
ENDBRANCH 24 30
BRANCH 20 33
ATOM     33  O3  NAG B   3      30.327   7.327  13.0610  0.00  0.00     0.000 O
BRANCH 33 36
ATOM     34  C1  NAG B   3      28.044   7.874  10.1220  0.00  0.00     0.000 C
ATOM     35  C2  NAG B   3      28.449   7.631  11.5630  0.00  0.00     0.000 C
ATOM     36  C3  NAG B   3      29.969   7.758  11.7460  0.00  0.00     0.000 C
ATOM     37  C4  NAG B   3      30.677   6.870  10.7250  0.00  0.00     0.000 C
ATOM     38  C5  NAG B   3      30.133   7.137   9.3240  0.00  0.00     0.000 C
ATOM     39  O5  NAG B   3      28.730   6.937   9.3040  0.00  0.00     0.000 O
ATOM     40   O  NAG B   3      32.089   7.127  10.7460  0.00  0.00     0.000 O
ATOM     42  HD  NAG B   3      31.954   7.253   9.9000  0.00  0.00     0.000 HD
ATOM     42   C  NAG B   3      30.692   6.201   8.2560  0.00  0.00     0.000 C
ATOM     43   O  NAG B   3      30.254   4.862   8.5160  0.00  0.00     0.000 O
ATOM     45  HD  NAG B   3      30.118   4.987   7.6700  0.00  0.00     0.000 HD
BRANCH 35 47
ATOM     45   N  NAG B   3      27.658   8.527  12.3980  0.00  0.00     0.000 N
ATOM     47  HD  NAG B   3      27.523   8.653  11.5520  0.00  0.00     0.000 HD
ATOM     47   C  NAG B   3      27.112   8.151  13.5370  0.00  0.00     0.000 C
ATOM     48   C  NAG B   3      26.313   9.192  14.2620  0.00  0.00     0.000 C
ATOM     49   O  NAG B   3      27.229   7.006  13.9680  0.00  0.00     0.000 OA
ENDBRANCH 35 47
BRANCH 34 50
ATOM     50  O4  BDP B   4      26.657   7.610  10.1160  0.00  0.00     0.000 O
BRANCH 50 54
ATOM     51  C1  BDP B   4      23.142   8.453   8.2490  0.00  0.00     0.000 C
ATOM     52  C2  BDP B   4      24.009   7.427   7.5280  0.00  0.00     0.000 C
ATOM     53  C3  BDP B   4      25.059   6.937   8.4770  0.00  0.00     0.000 C
ATOM     54  C4  BDP B   4      25.858   8.145   9.0470  0.00  0.00     0.000 C
ATOM     55  C5  BDP B   4      24.946   9.242   9.5790  0.00  0.00     0.000 C
ATOM     56  O5  BDP B   4      23.940   9.561   8.6220  0.00  0.00     0.000 O
ATOM     57   O  BDP B   4      23.223   6.337   7.0970  0.00  0.00     0.000 O
ATOM     59  HD  BDP B   4      23.119   6.467   6.2470  0.00  0.00     0.000 HD
ATOM     59   O  BDP B   4      25.971   6.123   7.7110  0.00  0.00     0.000 O
ATOM     61  HD  BDP B   4      25.867   6.253   6.8610  0.00  0.00     0.000 HD
BRANCH 55 61
ATOM     61   C  BDP B   4      25.772  10.483   9.8670  0.00  0.00     0.000 C
ATOM     62   O  BDP B   4      26.012  10.767  11.0700  0.00  0.00     0.000 OA
ATOM     63   O  BDP B   4      26.183  11.173   8.8840  0.00  0.00     0.000 OA
ENDBRANCH 55 61
BRANCH 51 64
ATOM     64  O3  NAG B   5      22.106   8.855   7.3320  0.00  0.00     0.000 O
BRANCH 64 67
ATOM     65  C1  NAG B   5      18.630   9.276   8.4870  0.00  0.00     0.000 C
ATOM     66  C2  NAG B   5      19.889   8.564   8.0240  0.00  0.00     0.000 C
ATOM     67  C3  NAG B   5      21.051   9.547   7.9720  0.00  0.00     0.000 C
ATOM     68  C4  NAG B   5      20.684  10.791   7.1510  0.00  0.00     0.000 C
ATOM     69  C5  NAG B   5      19.365  11.379   7.6270  0.00  0.00     0.000 C
ATOM     70  O5  NAG B   5      18.351  10.363   7.6340  0.00  0.00     0.000 O
ATOM     71   O  NAG B   5      21.732  11.730   7.2600  0.00  0.00     0.000 O
ATOM     73  HD  NAG B   5      21.576  11.822   6.4130  0.00  0.00     0.000 HD
ATOM     73   C  NAG B   5      18.853  12.553   6.7800  0.00  0.00     0.000 C
ATOM     74   O  NAG B   5      18.564  12.094   5.4430  0.00  0.00     0.000 O
ATOM     76  HD  NAG B   5      18.408  12.186   4.5960  0.00  0.00     0.000 HD
BRANCH 66 78
ATOM     76   N  NAG B   5      20.186   7.468   8.9670  0.00  0.00     0.000 N
ATOM     78  HD  NAG B   5      19.921   7.548   8.1470  0.00  0.00     0.000 HD
ATOM     78   C  NAG B   5      20.298   6.167   8.6560  0.00  0.00     0.000 C
ATOM     79   C  NAG B   5      20.627   5.294   9.8360  0.00  0.00     0.000 C
ATOM     80   O  NAG B   5      20.131   5.712   7.4690  0.00  0.00     0.000 OA
ENDBRANCH 66 78
BRANCH 65 81
ATOM     81  O4  BDP B   6      17.523   8.366   8.4940  0.00  0.00     0.000 O
BRANCH 81 85
ATOM     82  C1  BDP B   6      13.842   7.662  10.5720  0.00  0.00     0.000 C
ATOM     83  C2  BDP B   6      14.021   9.018   9.8950  0.00  0.00     0.000 C
ATOM     84  C3  BDP B   6      15.152   9.022   8.8620  0.00  0.00     0.000 C
ATOM     85  C4  BDP B   6      16.457   8.471   9.4410  0.00  0.00     0.000 C
ATOM     86  C5  BDP B   6      16.141   7.121  10.1270  0.00  0.00     0.000 C
ATOM     87  O5  BDP B   6      15.083   7.253  11.1300  0.00  0.00     0.000 O
ATOM     88   O  BDP B   6      12.781   9.285   9.2450  0.00  0.00     0.000 O
ATOM     90  HD  BDP B   6      12.473   9.600   8.5000  0.00  0.00     0.000 HD
ATOM     90   O  BDP B   6      15.334  10.346   8.3560  0.00  0.00     0.000 O
ATOM     92  HD  BDP B   6      15.025  10.661   7.6100  0.00  0.00     0.000 HD
BRANCH 86 92
ATOM     92   C  BDP B   6      17.331   6.639  10.9210  0.00  0.00     0.000 C
ATOM     93   O  BDP B   6      17.519   5.394  11.0720  0.00  0.00     0.000 OA
ATOM     94   O  BDP B   6      18.116   7.520  11.3920  0.00  0.00     0.000 OA
ENDBRANCH 86 92
BRANCH 82 95
ATOM     95  O3  NAG B   7      12.901   7.816  11.6530  0.00  0.00     0.000 O
BRANCH 95 98
ATOM     96  C1  NAG B   7       9.560   6.614  12.5100  0.00  0.00     0.000 C
ATOM     97  C2  NAG B   7      10.689   7.630  12.3990  0.00  0.00     0.000 C
ATOM     98  C3  NAG B   7      11.865   6.849  11.8160  0.00  0.00     0.000 C
ATOM     99  C4  NAG B   7      12.238   5.699  12.7480  0.00  0.00     0.000 C
ATOM    100  C5  NAG B   7      11.021   4.823  13.0490  0.00  0.00     0.000 C
ATOM    101  O5  NAG B   7       9.957   5.650  13.4930  0.00  0.00     0.000 O
BRANCH 97 104
ATOM    102   N  NAG B   7      10.529   8.746  11.4560  0.00  0.00     0.000 N
ATOM    104  HD  NAG B   7      10.666   9.311  10.8140  0.00  0.00     0.000 HD
ATOM    104   O  NAG B   7      10.337  10.905  10.8020  0.00  0.00     0.000 OA
ATOM    105   C  NAG B   7      10.407  10.061  11.7160  0.00  0.00     0.000 C
ATOM    106   C  NAG B   7      10.370  10.519  13.1350  0.00  0.00     0.000 C
ENDBRANCH 97 104
ATOM    107   O  NAG B   7      10.333   2.833  14.0820  0.00  0.00     0.000 O
ATOM    109  HD  NAG B   7      10.221   3.350  13.3960  0.00  0.00     0.000 HD
ATOM    109   O  NAG B   7      10.333   2.833  14.0820  0.00  0.00     0.000 O
ATOM    111  HD  NAG B   7      10.221   3.350  13.3960  0.00  0.00     0.000 HD
ENDBRANCH 95 98
ENDBRANCH 82 95
ENDBRANCH 81 85
ENDBRANCH 65 81
ENDBRANCH 64 67
ENDBRANCH 51 64
ENDBRANCH 50 54
ENDBRANCH 34 50
ENDBRANCH 33 36
ENDBRANCH 20 33
ENDBRANCH 19 23
ENDBRANCH 1 19
TORSDOF 19
ENDMDL
MODEL 78
REMARK VINA RESULT:      -3.4     10.011     18.620
ROOT
ATOM      1  C1  NAG B   1      32.228   9.808  16.2570  0.00  0.00     0.000 C
ATOM      2  C2  NAG B   1      32.864   9.905  17.6410  0.00  0.00     0.000 C
ATOM      3  C3  NAG B   1      32.112  10.863  18.5410  0.00  0.00     0.000 C
ATOM      4  C4  NAG B   1      32.113  12.200  17.8060  0.00  0.00     0.000 C
ATOM      5  C5  NAG B   1      31.342  12.050  16.4890  0.00  0.00     0.000 C
ATOM      6  O5  NAG B   1      31.966  11.072  15.6290  0.00  0.00     0.000 O
ATOM      7   O  NAG B   1      32.732  10.990  19.8420  0.00  0.00     0.000 O
ATOM      9  HD  NAG B   1      32.877  10.159  19.6460  0.00  0.00     0.000 HD
ATOM      9   O  NAG B   1      31.505  13.198  18.6080  0.00  0.00     0.000 O
ATOM     11  HD  NAG B   1      31.650  12.367  18.4120  0.00  0.00     0.000 HD
ATOM     11   C  NAG B   1      31.213  13.413  15.7990  0.00  0.00     0.000 C
ATOM     12   O  NAG B   1      31.130  13.271  14.3820  0.00  0.00     0.000 O
ATOM     14  HD  NAG B   1      31.275  12.440  14.1860  0.00  0.00     0.000 HD
ENDROOT
BRANCH 2 16
ATOM     14   N  NAG B   1      33.030   8.703  18.4770  0.00  0.00     0.000 N
ATOM     16  HD  NAG B   1      33.011   7.837  18.4520  0.00  0.00     0.000 HD
ATOM     16   C  NAG B   1      34.157   7.970  18.4950  0.00  0.00     0.000 C
ATOM     17   C  NAG B   1      35.315   8.350  17.6110  0.00  0.00     0.000 C
ATOM     18   O  NAG B   1      34.276   7.001  19.2440  0.00  0.00     0.000 OA
ENDBRANCH 2 16
BRANCH 1 19
ATOM     19  O4  BDP B   2      33.242   9.186  15.4780  0.00  0.00     0.000 O
BRANCH 19 23
ATOM     20  C1  BDP B   2      30.678   7.538  12.7120  0.00  0.00     0.000 C
ATOM     21  C2  BDP B   2      30.951   6.712  13.9520  0.00  0.00     0.000 C
ATOM     22  C3  BDP B   2      31.540   7.561  15.0560  0.00  0.00     0.000 C
ATOM     23  C4  BDP B   2      32.764   8.288  14.5060  0.00  0.00     0.000 C
ATOM     24  C5  BDP B   2      32.368   9.085  13.2790  0.00  0.00     0.000 C
ATOM     25  O5  BDP B   2      31.856   8.211  12.2910  0.00  0.00     0.000 O
ATOM     26   O  BDP B   2      29.762   6.102  14.4050  0.00  0.00     0.000 O
ATOM     28  HD  BDP B   2      29.507   6.385  13.6270  0.00  0.00     0.000 HD
ATOM     28   O  BDP B   2      31.868   6.722  16.1740  0.00  0.00     0.000 O
ATOM     30  HD  BDP B   2      31.614   7.005  15.3970  0.00  0.00     0.000 HD
BRANCH 24 30
ATOM     30   C  BDP B   2      33.520   9.811  12.6840  0.00  0.00     0.000 C
ATOM     31   O  BDP B   2      34.496   9.125  12.3020  0.00  0.00     0.000 OA
ATOM     32   O  BDP B   2      33.460  11.071  12.6030  0.00  0.00     0.000 OA
ENDBRANCH 24 30
BRANCH 20 33
ATOM     33  O3  NAG B   3      30.319   6.585  11.7410  0.00  0.00     0.000 O
BRANCH 33 36
ATOM     34  C1  NAG B   3      27.987   7.497   8.9340  0.00  0.00     0.000 C
ATOM     35  C2  NAG B   3      28.415   7.048  10.3180  0.00  0.00     0.000 C
ATOM     36  C3  NAG B   3      29.932   7.202  10.5110  0.00  0.00     0.000 C
ATOM     37  C4  NAG B   3      30.660   6.512   9.3610  0.00  0.00     0.000 C
ATOM     38  C5  NAG B   3      30.092   6.973   8.0220  0.00  0.00     0.000 C
ATOM     39  O5  NAG B   3      28.697   6.726   7.9770  0.00  0.00     0.000 O
ATOM     40   O  NAG B   3      32.063   6.815   9.4150  0.00  0.00     0.000 O
ATOM     42  HD  NAG B   3      31.914   7.066   8.6000  0.00  0.00     0.000 HD
ATOM     42   C  NAG B   3      30.674   6.237   6.8180  0.00  0.00     0.000 C
ATOM     43   O  NAG B   3      30.288   4.858   6.8680  0.00  0.00     0.000 O
ATOM     45  HD  NAG B   3      30.139   5.108   6.0520  0.00  0.00     0.000 HD
BRANCH 35 47
ATOM     45   N  NAG B   3      27.561   6.487  11.3570  0.00  0.00     0.000 N
ATOM     47  HD  NAG B   3      28.186   5.942  11.1090  0.00  0.00     0.000 HD
ATOM     47   C  NAG B   3      27.081   7.203  12.3550  0.00  0.00     0.000 C
ATOM     48   C  NAG B   3      26.235   6.465  13.3500  0.00  0.00     0.000 C
ATOM     49   O  NAG B   3      27.334   8.399  12.4790  0.00  0.00     0.000 OA
ENDBRANCH 35 47
BRANCH 34 50
ATOM     50  O4  BDP B   4      26.610   7.185   8.8940  0.00  0.00     0.000 O
BRANCH 50 54
ATOM     51  C1  BDP B   4      23.053   8.196   7.1960  0.00  0.00     0.000 C
ATOM     52  C2  BDP B   4      23.915   7.264   6.3510  0.00  0.00     0.000 C
ATOM     53  C3  BDP B   4      24.986   6.682   7.2200  0.00  0.00     0.000 C
ATOM     54  C4  BDP B   4      25.787   7.827   7.9050  0.00  0.00     0.000 C
ATOM     55  C5  BDP B   4      24.878   8.851   8.5720  0.00  0.00     0.000 C
ATOM     56  O5  BDP B   4      23.850   9.264   7.6750  0.00  0.00     0.000 O
ATOM     57   O  BDP B   4      23.129   6.221   5.8160  0.00  0.00     0.000 O
ATOM     59  HD  BDP B   4      23.007   6.442   4.9870  0.00  0.00     0.000 HD
ATOM     59   O  BDP B   4      25.889   5.967   6.3520  0.00  0.00     0.000 O
ATOM     61  HD  BDP B   4      25.767   6.188   5.5230  0.00  0.00     0.000 HD
BRANCH 55 61
ATOM     61   C  BDP B   4      25.700  10.060   8.9800  0.00  0.00     0.000 C
ATOM     62   O  BDP B   4      26.304  10.696   8.0770  0.00  0.00     0.000 OA
ATOM     63   O  BDP B   4      25.737  10.374  10.2090  0.00  0.00     0.000 OA
ENDBRANCH 55 61
BRANCH 51 64
ATOM     64  O3  NAG B   5      21.997   8.687   6.3480  0.00  0.00     0.000 O
BRANCH 64 67
ATOM     65  C1  NAG B   5      18.606   9.324   7.6480  0.00  0.00     0.000 C
ATOM     66  C2  NAG B   5      19.786   8.538   7.1020  0.00  0.00     0.000 C
ATOM     67  C3  NAG B   5      21.025   9.424   7.0630  0.00  0.00     0.000 C
ATOM     68  C4  NAG B   5      20.738  10.740   6.3260  0.00  0.00     0.000 C
ATOM     69  C5  NAG B   5      19.488  11.405   6.8800  0.00  0.00     0.000 C
ATOM     70  O5  NAG B   5      18.393  10.477   6.8670  0.00  0.00     0.000 O
ATOM     71   O  NAG B   5      21.864  11.582   6.4500  0.00  0.00     0.000 O
ATOM     73  HD  NAG B   5      21.690  11.735   5.6160  0.00  0.00     0.000 HD
ATOM     73   C  NAG B   5      19.051  12.665   6.1190  0.00  0.00     0.000 C
ATOM     74   O  NAG B   5      18.683  12.310   4.7690  0.00  0.00     0.000 O
ATOM     76  HD  NAG B   5      18.510  12.464   3.9350  0.00  0.00     0.000 HD
BRANCH 66 78
ATOM     76   N  NAG B   5      19.589   7.103   6.8200  0.00  0.00     0.000 N
ATOM     78  HD  NAG B   5      20.053   7.587   7.3690  0.00  0.00     0.000 HD
ATOM     78   C  NAG B   5      20.012   6.084   7.5840  0.00  0.00     0.000 C
ATOM     79   C  NAG B   5      19.640   4.732   7.0390  0.00  0.00     0.000 C
ATOM     80   O  NAG B   5      20.675   6.247   8.6700  0.00  0.00     0.000 OA
ENDBRANCH 66 78
BRANCH 65 81
ATOM     81  O4  BDP B   6      17.427   8.508   7.6440  0.00  0.00     0.000 O
BRANCH 81 85
ATOM     82  C1  BDP B   6      13.919   7.778   9.9950  0.00  0.00     0.000 C
ATOM     83  C2  BDP B   6      13.973   9.075   9.1920  0.00  0.00     0.000 C
ATOM     84  C3  BDP B   6      15.042   9.053   8.0960  0.00  0.00     0.000 C
ATOM     85  C4  BDP B   6      16.410   8.636   8.6410  0.00  0.00     0.000 C
ATOM     86  C5  BDP B   6      16.221   7.337   9.4600  0.00  0.00     0.000 C
ATOM     87  O5  BDP B   6      15.213   7.496  10.5090  0.00  0.00     0.000 O
ATOM     88   O  BDP B   6      12.685   9.208   8.5980  0.00  0.00     0.000 O
ATOM     90  HD  BDP B   6      12.316   9.436   7.8480  0.00  0.00     0.000 HD
ATOM     90   O  BDP B   6      15.111  10.335   7.4660  0.00  0.00     0.000 O
ATOM     92  HD  BDP B   6      14.742  10.562   6.7170  0.00  0.00     0.000 HD
BRANCH 86 92
ATOM     92   C  BDP B   6      17.481   7.001  10.2190  0.00  0.00     0.000 C
ATOM     93   O  BDP B   6      18.132   7.928  10.7900  0.00  0.00     0.000 OA
ATOM     94   O  BDP B   6      17.826   5.779  10.2720  0.00  0.00     0.000 OA
ENDBRANCH 86 92
BRANCH 82 95
ATOM     95  O3  NAG B   7      13.031   7.974  11.1130  0.00  0.00     0.000 O
BRANCH 95 98
ATOM     96  C1  NAG B   7       9.899   6.668  12.4630  0.00  0.00     0.000 C
ATOM     97  C2  NAG B   7      10.980   7.711  12.2110  0.00  0.00     0.000 C
ATOM     98  C3  NAG B   7      12.050   6.980  11.4030  0.00  0.00     0.000 C
ATOM     99  C4  NAG B   7      12.589   5.798  12.2050  0.00  0.00     0.000 C
ATOM    100  C5  NAG B   7      11.452   4.885  12.6650  0.00  0.00     0.000 C
ATOM    101  O5  NAG B   7      10.467   5.671  13.3190  0.00  0.00     0.000 O
BRANCH 97 104
ATOM    102   N  NAG B   7      10.481   8.868  11.4550  0.00  0.00     0.000 N
ATOM    104  HD  NAG B   7      10.297   9.417  10.8110  0.00  0.00     0.000 HD
ATOM    104   O  NAG B   7      10.322  11.045  10.8480  0.00  0.00     0.000 OA
ATOM    105   C  NAG B   7      10.782  10.172  11.6100  0.00  0.00     0.000 C
ATOM    106   C  NAG B   7      11.700  10.577  12.7120  0.00  0.00     0.000 C
ENDBRANCH 97 104
ATOM    107   O  NAG B   7      10.972   2.839  13.7070  0.00  0.00     0.000 O
ATOM    109  HD  NAG B   7      10.741   3.383  13.0740  0.00  0.00     0.000 HD
ATOM    109   O  NAG B   7      10.972   2.839  13.7070  0.00  0.00     0.000 O
ATOM    111  HD  NAG B   7      10.741   3.383  13.0740  0.00  0.00     0.000 HD
ENDBRANCH 95 98
ENDBRANCH 82 95
ENDBRANCH 81 85
ENDBRANCH 65 81
ENDBRANCH 64 67
ENDBRANCH 51 64
ENDBRANCH 50 54
ENDBRANCH 34 50
ENDBRANCH 33 36
ENDBRANCH 20 33
ENDBRANCH 19 23
ENDBRANCH 1 19
TORSDOF 19
ENDMDL
MODEL 79
REMARK VINA RESULT:      -3.3      4.922      9.303
ROOT
ATOM      1  C1  NAG B   1      20.001  22.069   8.2050  0.00  0.00     0.000 C
ATOM      2  C2  NAG B   1      21.106  23.092   7.9600  0.00  0.00     0.000 C
ATOM      3  C3  NAG B   1      22.464  22.567   8.3790  0.00  0.00     0.000 C
ATOM      4  C4  NAG B   1      22.324  22.206   9.8540  0.00  0.00     0.000 C
ATOM      5  C5  NAG B   1      21.292  21.081  10.0010  0.00  0.00     0.000 C
ATOM      6  O5  NAG B   1      19.995  21.500   9.5240  0.00  0.00     0.000 O
ATOM      7   O  NAG B   1      23.511  23.546   8.1850  0.00  0.00     0.000 O
ATOM      9  HD  NAG B   1      22.981  23.704   7.5180  0.00  0.00     0.000 HD
ATOM      9   O  NAG B   1      23.574  21.781  10.3730  0.00  0.00     0.000 O
ATOM     11  HD  NAG B   1      23.044  21.940   9.7070  0.00  0.00     0.000 HD
ATOM     11   C  NAG B   1      21.236  20.608  11.4590  0.00  0.00     0.000 C
ATOM     12   O  NAG B   1      19.944  20.102  11.7890  0.00  0.00     0.000 O
ATOM     14  HD  NAG B   1      19.414  20.260  11.1230  0.00  0.00     0.000 HD
ENDROOT
BRANCH 2 16
ATOM     14   N  NAG B   1      20.593  24.368   7.4300  0.00  0.00     0.000 N
ATOM     16  HD  NAG B   1      20.826  25.181   7.2430  0.00  0.00     0.000 HD
ATOM     16   C  NAG B   1      20.795  24.772   6.1640  0.00  0.00     0.000 C
ATOM     17   C  NAG B   1      21.603  23.919   5.2220  0.00  0.00     0.000 C
ATOM     18   O  NAG B   1      20.308  25.821   5.7430  0.00  0.00     0.000 OA
ENDBRANCH 2 16
BRANCH 1 19
ATOM     19  O4  BDP B   2      18.814  22.845   8.1090  0.00  0.00     0.000 O
BRANCH 19 23
ATOM     20  C1  BDP B   2      16.369  19.698   7.0820  0.00  0.00     0.000 C
ATOM     21  C2  BDP B   2      17.046  20.425   5.9390  0.00  0.00     0.000 C
ATOM     22  C3  BDP B   2      18.210  21.254   6.4300  0.00  0.00     0.000 C
ATOM     23  C4  BDP B   2      17.716  22.168   7.5480  0.00  0.00     0.000 C
ATOM     24  C5  BDP B   2      17.071  21.330   8.6350  0.00  0.00     0.000 C
ATOM     25  O5  BDP B   2      15.977  20.613   8.0950  0.00  0.00     0.000 O
ATOM     26   O  BDP B   2      17.493  19.503   4.9690  0.00  0.00     0.000 O
ATOM     28  HD  BDP B   2      16.994  18.989   5.4560  0.00  0.00     0.000 HD
ATOM     28   O  BDP B   2      18.760  21.997   5.3300  0.00  0.00     0.000 O
ATOM     30  HD  BDP B   2      18.261  21.483   5.8170  0.00  0.00     0.000 HD
BRANCH 24 30
ATOM     30   C  BDP B   2      16.555  22.163   9.7540  0.00  0.00     0.000 C
ATOM     31   O  BDP B   2      16.978  21.904  10.9040  0.00  0.00     0.000 OA
ATOM     32   O  BDP B   2      15.720  23.074   9.4900  0.00  0.00     0.000 OA
ENDBRANCH 24 30
BRANCH 20 33
ATOM     33  O3  NAG B   3      15.219  19.137   6.4970  0.00  0.00     0.000 O
BRANCH 33 36
ATOM     34  C1  NAG B   3      13.863  15.904   7.8590  0.00  0.00     0.000 C
ATOM     35  C2  NAG B   3      14.756  16.826   7.0510  0.00  0.00     0.000 C
ATOM     36  C3  NAG B   3      14.513  18.299   7.4140  0.00  0.00     0.000 C
ATOM     37  C4  NAG B   3      13.020  18.605   7.3150  0.00  0.00     0.000 C
ATOM     38  C5  NAG B   3      12.214  17.568   8.0930  0.00  0.00     0.000 C
ATOM     39  O5  NAG B   3      12.512  16.267   7.6150  0.00  0.00     0.000 O
ATOM     40   O  NAG B   3      12.751  19.913   7.8420  0.00  0.00     0.000 O
ATOM     42  HD  NAG B   3      12.187  19.467   8.3250  0.00  0.00     0.000 HD
ATOM     42   C  NAG B   3      10.703  17.720   7.9410  0.00  0.00     0.000 C
ATOM     43   O  NAG B   3      10.329  17.459   6.5820  0.00  0.00     0.000 O
ATOM     45  HD  NAG B   3       9.766  17.013   7.0660  0.00  0.00     0.000 HD
BRANCH 35 47
ATOM     45   N  NAG B   3      16.127  16.364   7.2270  0.00  0.00     0.000 N
ATOM     47  HD  NAG B   3      15.560  15.915   7.7030  0.00  0.00     0.000 HD
ATOM     47   C  NAG B   3      16.996  16.306   6.2380  0.00  0.00     0.000 C
ATOM     48   C  NAG B   3      18.360  15.787   6.5860  0.00  0.00     0.000 C
ATOM     49   O  NAG B   3      16.700  16.631   5.0900  0.00  0.00     0.000 OA
ENDBRANCH 35 47
BRANCH 34 50
ATOM     50  O4  BDP B   4      14.133  14.625   7.3250  0.00  0.00     0.000 O
BRANCH 50 54
ATOM     51  C1  BDP B   4      14.850  10.831   8.6070  0.00  0.00     0.000 C
ATOM     52  C2  BDP B   4      13.522  11.012   7.8810  0.00  0.00     0.000 C
ATOM     53  C3  BDP B   4      13.550  12.319   7.1500  0.00  0.00     0.000 C
ATOM     54  C4  BDP B   4      13.884  13.469   8.1430  0.00  0.00     0.000 C
ATOM     55  C5  BDP B   4      15.108  13.162   8.9940  0.00  0.00     0.000 C
ATOM     56  O5  BDP B   4      15.003  11.862   9.5670  0.00  0.00     0.000 O
ATOM     57   O  BDP B   4      13.322   9.963   6.9580  0.00  0.00     0.000 O
ATOM     59  HD  BDP B   4      12.748   9.441   7.3420  0.00  0.00     0.000 HD
ATOM     59   O  BDP B   4      12.219  12.543   6.6410  0.00  0.00     0.000 O
ATOM     61  HD  BDP B   4      11.645  12.021   7.0250  0.00  0.00     0.000 HD
BRANCH 55 61
ATOM     61   C  BDP B   4      15.214  14.190  10.1070  0.00  0.00     0.000 C
ATOM     62   O  BDP B   4      14.299  14.222  10.9710  0.00  0.00     0.000 OA
ATOM     63   O  BDP B   4      16.219  14.965  10.1150  0.00  0.00     0.000 OA
ENDBRANCH 55 61
BRANCH 51 64
ATOM     64  O3  NAG B   5      14.816   9.540   9.2460  0.00  0.00     0.000 O
BRANCH 64 67
ATOM     65  C1  NAG B   5      17.843   7.572   9.9930  0.00  0.00     0.000 C
ATOM     66  C2  NAG B   5      16.673   8.116   9.1920  0.00  0.00     0.000 C
ATOM     67  C3  NAG B   5      16.005   9.252   9.9550  0.00  0.00     0.000 C
ATOM     68  C4  NAG B   5      15.654   8.823  11.3870  0.00  0.00     0.000 C
ATOM     69  C5  NAG B   5      16.862   8.208  12.0750  0.00  0.00     0.000 C
ATOM     70  O5  NAG B   5      17.403   7.154  11.2650  0.00  0.00     0.000 O
ATOM     71   O  NAG B   5      15.181   9.950  12.0930  0.00  0.00     0.000 O
ATOM     73  HD  NAG B   5      14.603   9.374  12.3840  0.00  0.00     0.000 HD
ATOM     73   C  NAG B   5      16.572   7.633  13.4680  0.00  0.00     0.000 C
ATOM     74   O  NAG B   5      15.644   6.534  13.3540  0.00  0.00     0.000 O
ATOM     76  HD  NAG B   5      15.066   5.958  13.6450  0.00  0.00     0.000 HD
BRANCH 66 78
ATOM     76   N  NAG B   5      17.320   8.367   7.8900  0.00  0.00     0.000 N
ATOM     78  HD  NAG B   5      16.604   7.976   8.1800  0.00  0.00     0.000 HD
ATOM     78   C  NAG B   5      16.767   8.172   6.6830  0.00  0.00     0.000 C
ATOM     79   C  NAG B   5      17.676   8.540   5.5410  0.00  0.00     0.000 C
ATOM     80   O  NAG B   5      15.583   7.709   6.5180  0.00  0.00     0.000 OA
ENDBRANCH 66 78
BRANCH 65 81
ATOM     81  O4  BDP B   6      18.447   6.472   9.3000  0.00  0.00     0.000 O
BRANCH 81 85
ATOM     82  C1  BDP B   6      22.185   4.387   9.1120  0.00  0.00     0.000 C
ATOM     83  C2  BDP B   6      21.209   3.987  10.2160  0.00  0.00     0.000 C
ATOM     84  C3  BDP B   6      19.783   4.479   9.9550  0.00  0.00     0.000 C
ATOM     85  C4  BDP B   6      19.743   5.977   9.6420  0.00  0.00     0.000 C
ATOM     86  C5  BDP B   6      20.793   6.261   8.5420  0.00  0.00     0.000 C
ATOM     87  O5  BDP B   6      22.126   5.793   8.9260  0.00  0.00     0.000 O
ATOM     88   O  BDP B   6      21.225   2.562  10.2400  0.00  0.00     0.000 O
ATOM     90  HD  BDP B   6      20.684   1.890  10.3120  0.00  0.00     0.000 HD
ATOM     90   O  BDP B   6      18.956   4.168  11.0790  0.00  0.00     0.000 O
ATOM     92  HD  BDP B   6      18.415   3.496  11.1520  0.00  0.00     0.000 HD
BRANCH 86 92
ATOM     92   C  BDP B   6      20.974   7.748   8.3540  0.00  0.00     0.000 C
ATOM     93   O  BDP B   6      20.460   8.316   7.3430  0.00  0.00     0.000 OA
ATOM     94   O  BDP B   6      21.625   8.376   9.2450  0.00  0.00     0.000 OA
ENDBRANCH 86 92
BRANCH 82 95
ATOM     95  O3  NAG B   7      23.519   4.054   9.5440  0.00  0.00     0.000 O
BRANCH 95 98
ATOM     96  C1  NAG B   7      26.349   1.958   8.5740  0.00  0.00     0.000 C
ATOM     97  C2  NAG B   7      25.453   2.732   9.5310  0.00  0.00     0.000 C
ATOM     98  C3  NAG B   7      24.395   3.381   8.6400  0.00  0.00     0.000 C
ATOM     99  C4  NAG B   7      25.065   4.308   7.6290  0.00  0.00     0.000 C
ATOM    100  C5  NAG B   7      26.145   3.566   6.8410  0.00  0.00     0.000 C
ATOM    101  O5  NAG B   7      27.020   2.921   7.7530  0.00  0.00     0.000 O
BRANCH 97 104
ATOM    102   N  NAG B   7      24.582   2.074  10.5150  0.00  0.00     0.000 N
ATOM    104  HD  NAG B   7      23.913   1.890  11.0330  0.00  0.00     0.000 HD
ATOM    104   O  NAG B   7      23.959   1.290  12.5460  0.00  0.00     0.000 OA
ATOM    105   C  NAG B   7      24.824   1.806  11.8120  0.00  0.00     0.000 C
ATOM    106   C  NAG B   7      26.157   2.147  12.3850  0.00  0.00     0.000 C
ENDBRANCH 97 104
ATOM    107   O  NAG B   7      27.640   3.755   5.0430  0.00  0.00     0.000 O
ATOM    109  HD  NAG B   7      27.094   3.226   5.4570  0.00  0.00     0.000 HD
ATOM    109   O  NAG B   7      27.640   3.755   5.0430  0.00  0.00     0.000 O
ATOM    111  HD  NAG B   7      27.094   3.226   5.4570  0.00  0.00     0.000 HD
ENDBRANCH 95 98
ENDBRANCH 82 95
ENDBRANCH 81 85
ENDBRANCH 65 81
ENDBRANCH 64 67
ENDBRANCH 51 64
ENDBRANCH 50 54
ENDBRANCH 34 50
ENDBRANCH 33 36
ENDBRANCH 20 33
ENDBRANCH 19 23
ENDBRANCH 1 19
TORSDOF 19
ENDMDL
MODEL 80
REMARK VINA RESULT:      -3.3      8.506     15.112
ROOT
ATOM      1  C1  NAG B   1      10.930  19.840  23.0070  0.00  0.00     0.000 C
ATOM      2  C2  NAG B   1      11.517  19.729  24.4110  0.00  0.00     0.000 C
ATOM      3  C3  NAG B   1      12.458  18.549  24.5380  0.00  0.00     0.000 C
ATOM      4  C4  NAG B   1      11.632  17.325  24.1550  0.00  0.00     0.000 C
ATOM      5  C5  NAG B   1      11.192  17.453  22.6910  0.00  0.00     0.000 C
ATOM      6  O5  NAG B   1      10.367  18.621  22.4960  0.00  0.00     0.000 O
ATOM      7   O  NAG B   1      12.988  18.415  25.8770  0.00  0.00     0.000 O
ATOM      9  HD  NAG B   1      12.929  19.274  25.7840  0.00  0.00     0.000 HD
ATOM      9   O  NAG B   1      12.399  16.145  24.3250  0.00  0.00     0.000 O
ATOM     11  HD  NAG B   1      12.340  17.004  24.2330  0.00  0.00     0.000 HD
ATOM     11   C  NAG B   1      10.476  16.172  22.2460  0.00  0.00     0.000 C
ATOM     12   O  NAG B   1       9.519  16.442  21.2230  0.00  0.00     0.000 O
ATOM     14  HD  NAG B   1       9.459  17.301  21.1310  0.00  0.00     0.000 HD
ENDROOT
BRANCH 2 16
ATOM     14   N  NAG B   1      12.238  20.925  24.8820  0.00  0.00     0.000 N
ATOM     16  HD  NAG B   1      12.296  21.782  24.7750  0.00  0.00     0.000 HD
ATOM     16   C  NAG B   1      11.727  21.786  25.7790  0.00  0.00     0.000 C
ATOM     17   C  NAG B   1      10.343  21.564  26.3290  0.00  0.00     0.000 C
ATOM     18   O  NAG B   1      12.379  22.747  26.1860  0.00  0.00     0.000 OA
ENDBRANCH 2 16
BRANCH 1 19
ATOM     19  O4  BDP B   2       9.838  20.733  23.1820  0.00  0.00     0.000 O
BRANCH 19 23
ATOM     20  C1  BDP B   2       9.774  22.016  19.2720  0.00  0.00     0.000 C
ATOM     21  C2  BDP B   2      10.643  22.809  20.2260  0.00  0.00     0.000 C
ATOM     22  C3  BDP B   2      10.922  22.028  21.4900  0.00  0.00     0.000 C
ATOM     23  C4  BDP B   2       9.590  21.577  22.0830  0.00  0.00     0.000 C
ATOM     24  C5  BDP B   2       8.817  20.787  21.0450  0.00  0.00     0.000 C
ATOM     25  O5  BDP B   2       8.576  21.601  19.9140  0.00  0.00     0.000 O
ATOM     26   O  BDP B   2      11.860  23.158  19.6040  0.00  0.00     0.000 O
ATOM     28  HD  BDP B   2      11.410  22.875  18.9200  0.00  0.00     0.000 HD
ATOM     28   O  BDP B   2      11.668  22.851  22.4000  0.00  0.00     0.000 O
ATOM     30  HD  BDP B   2      11.217  22.568  21.7170  0.00  0.00     0.000 HD
BRANCH 24 30
ATOM     30   C  BDP B   2       7.500  20.326  21.5570  0.00  0.00     0.000 C
ATOM     31   O  BDP B   2       6.728  21.196  22.0230  0.00  0.00     0.000 OA
ATOM     32   O  BDP B   2       7.233  19.092  21.5030  0.00  0.00     0.000 OA
ENDBRANCH 24 30
BRANCH 20 33
ATOM     33  O3  NAG B   3       9.458  22.936  18.2550  0.00  0.00     0.000 O
BRANCH 33 36
ATOM     34  C1  NAG B   3       8.829  21.685  14.7630  0.00  0.00     0.000 C
ATOM     35  C2  NAG B   3       9.622  22.135  15.9760  0.00  0.00     0.000 C
ATOM     36  C3  NAG B   3       8.713  22.323  17.2000  0.00  0.00     0.000 C
ATOM     37  C4  NAG B   3       7.545  23.233  16.8270  0.00  0.00     0.000 C
ATOM     38  C5  NAG B   3       6.874  22.736  15.5490  0.00  0.00     0.000 C
ATOM     39  O5  NAG B   3       7.827  22.658  14.5020  0.00  0.00     0.000 O
ATOM     40   O  NAG B   3       6.582  23.258  17.8930  0.00  0.00     0.000 O
ATOM     42  HD  NAG B   3       6.049  23.030  17.2500  0.00  0.00     0.000 HD
ATOM     42   C  NAG B   3       5.776  23.660  15.0290  0.00  0.00     0.000 C
ATOM     43   O  NAG B   3       6.352  24.907  14.6220  0.00  0.00     0.000 O
ATOM     45  HD  NAG B   3       5.818  24.680  13.9790  0.00  0.00     0.000 HD
BRANCH 35 47
ATOM     45   N  NAG B   3      11.057  22.391  15.9670  0.00  0.00     0.000 N
ATOM     47  HD  NAG B   3      10.591  23.106  16.1120  0.00  0.00     0.000 HD
ATOM     47   C  NAG B   3      11.938  21.551  16.4730  0.00  0.00     0.000 C
ATOM     48   C  NAG B   3      13.374  21.977  16.4010  0.00  0.00     0.000 C
ATOM     49   O  NAG B   3      11.601  20.492  16.9990  0.00  0.00     0.000 OA
ENDBRANCH 35 47
BRANCH 34 50
ATOM     50  O4  BDP B   4       9.785  21.674  13.7240  0.00  0.00     0.000 O
BRANCH 50 54
ATOM     51  C1  BDP B   4      10.873  19.841  10.2580  0.00  0.00     0.000 C
ATOM     52  C2  BDP B   4       9.434  20.345  10.2820  0.00  0.00     0.000 C
ATOM     53  C3  BDP B   4       9.281  21.304  11.4220  0.00  0.00     0.000 C
ATOM     54  C4  BDP B   4       9.728  20.621  12.7470  0.00  0.00     0.000 C
ATOM     55  C5  BDP B   4      11.091  19.953  12.6230  0.00  0.00     0.000 C
ATOM     56  O5  BDP B   4      11.141  19.136  11.4570  0.00  0.00     0.000 O
ATOM     57   O  BDP B   4       9.127  21.005   9.0720  0.00  0.00     0.000 O
ATOM     59  HD  BDP B   4       8.649  20.435   8.6280  0.00  0.00     0.000 HD
ATOM     59   O  BDP B   4       7.875  21.607  11.5310  0.00  0.00     0.000 O
ATOM     61  HD  BDP B   4       7.398  21.037  11.0870  0.00  0.00     0.000 HD
BRANCH 55 61
ATOM     61   C  BDP B   4      11.339  19.091  13.8480  0.00  0.00     0.000 C
ATOM     62   O  BDP B   4      12.530  18.915  14.2150  0.00  0.00     0.000 OA
ATOM     63   O  BDP B   4      10.337  18.590  14.4430  0.00  0.00     0.000 OA
ENDBRANCH 55 61
BRANCH 51 64
ATOM     64  O3  NAG B   5      11.003  18.974   9.1150  0.00  0.00     0.000 O
BRANCH 64 67
ATOM     65  C1  NAG B   5      14.062  18.860   7.0610  0.00  0.00     0.000 C
ATOM     66  C2  NAG B   5      12.714  19.348   7.5630  0.00  0.00     0.000 C
ATOM     67  C3  NAG B   5      12.346  18.621   8.8500  0.00  0.00     0.000 C
ATOM     68  C4  NAG B   5      12.449  17.100   8.6730  0.00  0.00     0.000 C
ATOM     69  C5  NAG B   5      13.796  16.717   8.0810  0.00  0.00     0.000 C
ATOM     70  O5  NAG B   5      14.031  17.463   6.8770  0.00  0.00     0.000 O
ATOM     71   O  NAG B   5      12.248  16.484   9.9270  0.00  0.00     0.000 O
ATOM     73  HD  NAG B   5      11.776  15.938   9.4480  0.00  0.00     0.000 HD
ATOM     73   C  NAG B   5      13.941  15.225   7.7490  0.00  0.00     0.000 C
ATOM     74   O  NAG B   5      12.997  14.865   6.7190  0.00  0.00     0.000 O
ATOM     76  HD  NAG B   5      12.525  14.319   6.2400  0.00  0.00     0.000 HD
BRANCH 66 78
ATOM     76   N  NAG B   5      12.944  20.804   7.5070  0.00  0.00     0.000 N
ATOM     78  HD  NAG B   5      12.316  20.249   7.2870  0.00  0.00     0.000 HD
ATOM     78   C  NAG B   5      12.022  21.739   7.2280  0.00  0.00     0.000 C
ATOM     79   C  NAG B   5      12.561  23.143   7.2660  0.00  0.00     0.000 C
ATOM     80   O  NAG B   5      10.802  21.461   6.9470  0.00  0.00     0.000 OA
ENDBRANCH 66 78
BRANCH 65 81
ATOM     81  O4  BDP B   6      14.392  19.507   5.8250  0.00  0.00     0.000 O
BRANCH 81 85
ATOM     82  C1  BDP B   6      17.750  20.132   3.2370  0.00  0.00     0.000 C
ATOM     83  C2  BDP B   6      17.069  18.767   3.1920  0.00  0.00     0.000 C
ATOM     84  C3  BDP B   6      15.674  18.777   3.8230  0.00  0.00     0.000 C
ATOM     85  C4  BDP B   6      15.684  19.388   5.2260  0.00  0.00     0.000 C
ATOM     86  C5  BDP B   6      16.426  20.743   5.1490  0.00  0.00     0.000 C
ATOM     87  O5  BDP B   6      17.767  20.600   4.5780  0.00  0.00     0.000 O
ATOM     88   O  BDP B   6      16.965  18.439   1.8090  0.00  0.00     0.000 O
ATOM     90  HD  BDP B   6      16.405  18.094   1.2460  0.00  0.00     0.000 HD
ATOM     90   O  BDP B   6      15.149  17.447   3.8470  0.00  0.00     0.000 O
ATOM     92  HD  BDP B   6      14.589  17.102   3.2830  0.00  0.00     0.000 HD
BRANCH 86 92
ATOM     92   C  BDP B   6      16.681  21.287   6.5330  0.00  0.00     0.000 C
ATOM     93   O  BDP B   6      15.922  22.191   6.9990  0.00  0.00     0.000 OA
ATOM     94   O  BDP B   6      17.648  20.790   7.1900  0.00  0.00     0.000 OA
ENDBRANCH 86 92
BRANCH 82 95
ATOM     95  O3  NAG B   7      19.116  19.973   2.8070  0.00  0.00     0.000 O
BRANCH 95 98
ATOM     96  C1  NAG B   7      21.213  21.258   0.1070  0.00  0.00     0.000 C
ATOM     97  C2  NAG B   7      20.637  20.202   1.0410  0.00  0.00     0.000 C
ATOM     98  C3  NAG B   7      19.703  20.971   1.9740  0.00  0.00     0.000 C
ATOM     99  C4  NAG B   7      20.493  22.027   2.7440  0.00  0.00     0.000 C
ATOM    100  C5  NAG B   7      21.270  22.933   1.7880  0.00  0.00     0.000 C
ATOM    101  O5  NAG B   7      22.031  22.124   0.9030  0.00  0.00     0.000 O
BRANCH 97 104
ATOM    102   N  NAG B   7      19.811  19.175   0.3920  0.00  0.00     0.000 N
ATOM    104  HD  NAG B   7      19.136  18.688   0.1510  0.00  0.00     0.000 HD
ATOM    104   O  NAG B   7      19.106  17.080  -0.1050  0.00  0.00     0.000 OA
ATOM    105   C  NAG B   7      19.924  17.834   0.4570  0.00  0.00     0.000 C
ATOM    106   C  NAG B   7      21.049  17.240   1.2340  0.00  0.00     0.000 C
ENDBRANCH 97 104
ATOM    107   O  NAG B   7      22.593  24.867   1.6700  0.00  0.00     0.000 O
ATOM    109  HD  NAG B   7      21.970  24.410   1.2790  0.00  0.00     0.000 HD
ATOM    109   O  NAG B   7      22.593  24.867   1.6700  0.00  0.00     0.000 O
ATOM    111  HD  NAG B   7      21.970  24.410   1.2790  0.00  0.00     0.000 HD
ENDBRANCH 95 98
ENDBRANCH 82 95
ENDBRANCH 81 85
ENDBRANCH 65 81
ENDBRANCH 64 67
ENDBRANCH 51 64
ENDBRANCH 50 54
ENDBRANCH 34 50
ENDBRANCH 33 36
ENDBRANCH 20 33
ENDBRANCH 19 23
ENDBRANCH 1 19
TORSDOF 19
ENDMDL
MODEL 81
REMARK VINA RESULT:      -3.3     10.880     17.387
ROOT
ATOM      1  C1  NAG B   1      14.684   4.724  23.4970  0.00  0.00     0.000 C
ATOM      2  C2  NAG B   1      14.838   4.546  25.0050  0.00  0.00     0.000 C
ATOM      3  C3  NAG B   1      16.092   5.216  25.5280  0.00  0.00     0.000 C
ATOM      4  C4  NAG B   1      17.244   4.591  24.7480  0.00  0.00     0.000 C
ATOM      5  C5  NAG B   1      17.086   4.927  23.2600  0.00  0.00     0.000 C
ATOM      6  O5  NAG B   1      15.854   4.390  22.7330  0.00  0.00     0.000 O
ATOM      7   O  NAG B   1      16.264   5.018  26.9500  0.00  0.00     0.000 O
ATOM      9  HD  NAG B   1      15.403   5.075  26.8720  0.00  0.00     0.000 HD
ATOM      9   O  NAG B   1      18.483   5.089  25.2250  0.00  0.00     0.000 O
ATOM     11  HD  NAG B   1      17.622   5.146  25.1470  0.00  0.00     0.000 HD
ATOM     11   C  NAG B   1      18.305   4.425  22.4770  0.00  0.00     0.000 C
ATOM     12   O  NAG B   1      17.961   4.107  21.1300  0.00  0.00     0.000 O
ATOM     14  HD  NAG B   1      17.100   4.164  21.0520  0.00  0.00     0.000 HD
ENDROOT
BRANCH 2 16
ATOM     14   N  NAG B   1      13.577   5.005  25.6140  0.00  0.00     0.000 N
ATOM     16  HD  NAG B   1      12.716   4.982  25.5170  0.00  0.00     0.000 HD
ATOM     16   C  NAG B   1      12.800   4.218  26.3780  0.00  0.00     0.000 C
ATOM     17   C  NAG B   1      13.193   2.785  26.6230  0.00  0.00     0.000 C
ATOM     18   O  NAG B   1      11.779   4.652  26.9100  0.00  0.00     0.000 OA
ENDBRANCH 2 16
BRANCH 1 19
ATOM     19  O4  BDP B   2      13.703   3.754  23.1550  0.00  0.00     0.000 O
BRANCH 19 23
ATOM     20  C1  BDP B   2      12.778   5.384  19.4900  0.00  0.00     0.000 C
ATOM     21  C2  BDP B   2      12.012   5.924  20.6790  0.00  0.00     0.000 C
ATOM     22  C3  BDP B   2      12.703   5.580  21.9790  0.00  0.00     0.000 C
ATOM     23  C4  BDP B   2      12.938   4.073  22.0170  0.00  0.00     0.000 C
ATOM     24  C5  BDP B   2      13.721   3.653  20.7880  0.00  0.00     0.000 C
ATOM     25  O5  BDP B   2      12.989   3.986  19.6240  0.00  0.00     0.000 O
ATOM     26   O  BDP B   2      11.866   7.324  20.5740  0.00  0.00     0.000 O
ATOM     28  HD  BDP B   2      12.154   7.135  19.7790  0.00  0.00     0.000 HD
ATOM     28   O  BDP B   2      11.895   6.028  23.0780  0.00  0.00     0.000 O
ATOM     30  HD  BDP B   2      12.183   5.839  22.2840  0.00  0.00     0.000 HD
BRANCH 24 30
ATOM     30   C  BDP B   2      13.975   2.189  20.7570  0.00  0.00     0.000 C
ATOM     31   O  BDP B   2      12.978   1.434  20.6900  0.00  0.00     0.000 OA
ATOM     32   O  BDP B   2      15.172   1.785  20.8070  0.00  0.00     0.000 OA
ENDBRANCH 24 30
BRANCH 20 33
ATOM     33  O3  NAG B   3      11.923   5.620  18.3980  0.00  0.00     0.000 O
BRANCH 33 36
ATOM     34  C1  NAG B   3      13.183   5.781  14.8570  0.00  0.00     0.000 C
ATOM     35  C2  NAG B   3      12.802   6.276  16.2390  0.00  0.00     0.000 C
ATOM     36  C3  NAG B   3      12.467   5.108  17.1790  0.00  0.00     0.000 C
ATOM     37  C4  NAG B   3      11.430   4.206  16.5150  0.00  0.00     0.000 C
ATOM     38  C5  NAG B   3      11.874   3.839  15.1020  0.00  0.00     0.000 C
ATOM     39  O5  NAG B   3      12.100   5.017  14.3460  0.00  0.00     0.000 O
ATOM     40   O  NAG B   3      11.255   3.008  17.2870  0.00  0.00     0.000 O
ATOM     42  HD  NAG B   3      11.432   2.638  16.5240  0.00  0.00     0.000 HD
ATOM     42   C  NAG B   3      10.835   3.045  14.3150  0.00  0.00     0.000 C
ATOM     43   O  NAG B   3       9.682   3.862  14.0830  0.00  0.00     0.000 O
ATOM     45  HD  NAG B   3       9.859   3.493  13.3200  0.00  0.00     0.000 HD
BRANCH 35 47
ATOM     45   N  NAG B   3      12.681   7.650  16.7120  0.00  0.00     0.000 N
ATOM     47  HD  NAG B   3      11.950   7.196  16.8130  0.00  0.00     0.000 HD
ATOM     47   C  NAG B   3      13.656   8.284  17.3310  0.00  0.00     0.000 C
ATOM     48   C  NAG B   3      13.358   9.687  17.7690  0.00  0.00     0.000 C
ATOM     49   O  NAG B   3      14.739   7.749  17.5600  0.00  0.00     0.000 OA
ENDBRANCH 35 47
BRANCH 34 50
ATOM     50  O4  BDP B   4      13.343   6.968  14.1100  0.00  0.00     0.000 O
BRANCH 50 54
ATOM     51  C1  BDP B   4      14.012   8.486  10.3940  0.00  0.00     0.000 C
ATOM     52  C2  BDP B   4      12.632   7.866  10.5840  0.00  0.00     0.000 C
ATOM     53  C3  BDP B   4      12.381   7.695  12.0510  0.00  0.00     0.000 C
ATOM     54  C4  BDP B   4      13.535   6.867  12.6880  0.00  0.00     0.000 C
ATOM     55  C5  BDP B   4      14.909   7.403  12.3110  0.00  0.00     0.000 C
ATOM     56  O5  BDP B   4      14.996   7.604  10.9030  0.00  0.00     0.000 O
ATOM     57   O  BDP B   4      11.638   8.704  10.0350  0.00  0.00     0.000 O
ATOM     59  HD  BDP B   4      11.423   8.325   9.2860  0.00  0.00     0.000 HD
ATOM     59   O  BDP B   4      11.163   6.934  12.1830  0.00  0.00     0.000 O
ATOM     61  HD  BDP B   4      10.948   6.556  11.4340  0.00  0.00     0.000 HD
BRANCH 55 61
ATOM     61   C  BDP B   4      15.970   6.405  12.7380  0.00  0.00     0.000 C
ATOM     62   O  BDP B   4      15.875   5.223  12.3150  0.00  0.00     0.000 OA
ATOM     63   O  BDP B   4      16.902   6.808  13.4990  0.00  0.00     0.000 OA
ENDBRANCH 55 61
BRANCH 51 64
ATOM     64  O3  NAG B   5      14.195   8.696   8.9810  0.00  0.00     0.000 O
BRANCH 64 67
ATOM     65  C1  NAG B   5      16.638  11.094   7.6120  0.00  0.00     0.000 C
ATOM     66  C2  NAG B   5      15.331  10.586   8.1960  0.00  0.00     0.000 C
ATOM     67  C3  NAG B   5      15.497   9.145   8.6620  0.00  0.00     0.000 C
ATOM     68  C4  NAG B   5      16.080   8.269   7.5440  0.00  0.00     0.000 C
ATOM     69  C5  NAG B   5      17.331   8.904   6.9600  0.00  0.00     0.000 C
ATOM     70  O5  NAG B   5      17.053  10.254   6.5590  0.00  0.00     0.000 O
ATOM     71   O  NAG B   5      16.354   6.988   8.0710  0.00  0.00     0.000 O
ATOM     73  HD  NAG B   5      16.014   6.737   7.3150  0.00  0.00     0.000 HD
ATOM     73   C  NAG B   5      17.912   8.160   5.7490  0.00  0.00     0.000 C
ATOM     74   O  NAG B   5      16.966   8.197   4.6600  0.00  0.00     0.000 O
ATOM     76  HD  NAG B   5      16.626   7.946   3.9040  0.00  0.00     0.000 HD
BRANCH 66 78
ATOM     76   N  NAG B   5      14.199  11.523   8.3220  0.00  0.00     0.000 N
ATOM     78  HD  NAG B   5      14.732  11.094   8.8520  0.00  0.00     0.000 HD
ATOM     78   C  NAG B   5      13.808  12.143   9.4470  0.00  0.00     0.000 C
ATOM     79   C  NAG B   5      12.628  13.056   9.2500  0.00  0.00     0.000 C
ATOM     80   O  NAG B   5      14.380  11.967  10.5810  0.00  0.00     0.000 OA
ENDBRANCH 66 78
BRANCH 65 81
ATOM     81  O4  BDP B   6      16.474  12.434   7.1300  0.00  0.00     0.000 O
BRANCH 81 85
ATOM     82  C1  BDP B   6      18.677  16.086   6.7130  0.00  0.00     0.000 C
ATOM     83  C2  BDP B   6      19.187  14.864   5.9540  0.00  0.00     0.000 C
ATOM     84  C3  BDP B   6      18.137  13.756   5.8360  0.00  0.00     0.000 C
ATOM     85  C4  BDP B   6      17.527  13.399   7.1930  0.00  0.00     0.000 C
ATOM     86  C5  BDP B   6      17.082  14.714   7.8760  0.00  0.00     0.000 C
ATOM     87  O5  BDP B   6      18.182  15.675   7.9790  0.00  0.00     0.000 O
ATOM     88   O  BDP B   6      19.528  15.338   4.6540  0.00  0.00     0.000 O
ATOM     90  HD  BDP B   6      19.462  15.109   3.8220  0.00  0.00     0.000 HD
ATOM     90   O  BDP B   6      18.721  12.606   5.2180  0.00  0.00     0.000 O
ATOM     92  HD  BDP B   6      18.654  12.377   4.3860  0.00  0.00     0.000 HD
BRANCH 86 92
ATOM     92   C  BDP B   6      16.691  14.460   9.3110  0.00  0.00     0.000 C
ATOM     93   O  BDP B   6      15.649  15.011   9.7810  0.00  0.00     0.000 OA
ATOM     94   O  BDP B   6      17.424  13.675   9.9880  0.00  0.00     0.000 OA
ENDBRANCH 86 92
BRANCH 82 95
ATOM     95  O3  NAG B   7      19.788  16.976   6.9390  0.00  0.00     0.000 O
BRANCH 95 98
ATOM     96  C1  NAG B   7      20.800  20.414   6.2380  0.00  0.00     0.000 C
ATOM     97  C2  NAG B   7      21.004  18.928   6.4980  0.00  0.00     0.000 C
ATOM     98  C3  NAG B   7      19.603  18.379   6.7590  0.00  0.00     0.000 C
ATOM     99  C4  NAG B   7      18.989  19.078   7.9690  0.00  0.00     0.000 C
ATOM    100  C5  NAG B   7      19.019  20.598   7.7950  0.00  0.00     0.000 C
ATOM    101  O5  NAG B   7      20.340  20.997   7.4630  0.00  0.00     0.000 O
BRANCH 97 104
ATOM    102   N  NAG B   7      21.857  17.877   5.9260  0.00  0.00     0.000 N
ATOM    104  HD  NAG B   7      22.542  17.383   5.7330  0.00  0.00     0.000 HD
ATOM    104   O  NAG B   7      22.917  16.714   4.2970  0.00  0.00     0.000 OA
ATOM    105   C  NAG B   7      22.117  17.610   4.6320  0.00  0.00     0.000 C
ATOM    106   C  NAG B   7      21.442  18.417   3.5770  0.00  0.00     0.000 C
ENDBRANCH 97 104
ATOM    107   O  NAG B   7      18.299  22.623   8.7340  0.00  0.00     0.000 O
ATOM    109  HD  NAG B   7      18.426  22.191   7.9950  0.00  0.00     0.000 HD
ATOM    109   O  NAG B   7      18.299  22.623   8.7340  0.00  0.00     0.000 O
ATOM    111  HD  NAG B   7      18.426  22.191   7.9950  0.00  0.00     0.000 HD
ENDBRANCH 95 98
ENDBRANCH 82 95
ENDBRANCH 81 85
ENDBRANCH 65 81
ENDBRANCH 64 67
ENDBRANCH 51 64
ENDBRANCH 50 54
ENDBRANCH 34 50
ENDBRANCH 33 36
ENDBRANCH 20 33
ENDBRANCH 19 23
ENDBRANCH 1 19
TORSDOF 19
ENDMDL
MODEL 82
REMARK VINA RESULT:      -3.3     10.149     18.727
ROOT
ATOM      1  C1  NAG B   1      22.628  21.299  24.8590  0.00  0.00     0.000 C
ATOM      2  C2  NAG B   1      23.974  22.019  24.8620  0.00  0.00     0.000 C
ATOM      3  C3  NAG B   1      24.588  22.062  26.2460  0.00  0.00     0.000 C
ATOM      4  C4  NAG B   1      23.556  22.757  27.1280  0.00  0.00     0.000 C
ATOM      5  C5  NAG B   1      22.282  21.904  27.1780  0.00  0.00     0.000 C
ATOM      6  O5  NAG B   1      21.706  21.751  25.8630  0.00  0.00     0.000 O
ATOM      7   O  NAG B   1      25.845  22.777  26.2630  0.00  0.00     0.000 O
ATOM      9  HD  NAG B   1      25.859  22.392  25.4870  0.00  0.00     0.000 HD
ATOM      9   O  NAG B   1      24.071  22.928  28.4380  0.00  0.00     0.000 O
ATOM     11  HD  NAG B   1      24.085  22.544  27.6620  0.00  0.00     0.000 HD
ATOM     11   C  NAG B   1      21.282  22.514  28.1680  0.00  0.00     0.000 C
ATOM     12   O  NAG B   1      19.938  22.211  27.8000  0.00  0.00     0.000 O
ATOM     14  HD  NAG B   1      19.952  21.827  27.0240  0.00  0.00     0.000 HD
ENDROOT
BRANCH 2 16
ATOM     14   N  NAG B   1      24.344  22.561  23.5420  0.00  0.00     0.000 N
ATOM     16  HD  NAG B   1      24.926  23.060  23.1400  0.00  0.00     0.000 HD
ATOM     16   C  NAG B   1      25.317  22.037  22.7780  0.00  0.00     0.000 C
ATOM     17   C  NAG B   1      26.107  20.855  23.2740  0.00  0.00     0.000 C
ATOM     18   O  NAG B   1      25.564  22.487  21.6600  0.00  0.00     0.000 OA
ENDBRANCH 2 16
BRANCH 1 19
ATOM     19  O4  BDP B   2      22.062  21.675  23.6110  0.00  0.00     0.000 O
BRANCH 19 23
ATOM     20  C1  BDP B   2      19.118  20.166  21.1620  0.00  0.00     0.000 C
ATOM     21  C2  BDP B   2      18.655  21.017  22.3260  0.00  0.00     0.000 C
ATOM     22  C3  BDP B   2      19.790  21.843  22.8870  0.00  0.00     0.000 C
ATOM     23  C4  BDP B   2      20.950  20.907  23.2180  0.00  0.00     0.000 C
ATOM     24  C5  BDP B   2      21.332  20.120  21.9800  0.00  0.00     0.000 C
ATOM     25  O5  BDP B   2      20.223  19.358  21.5420  0.00  0.00     0.000 O
ATOM     26   O  BDP B   2      17.603  21.867  21.9220  0.00  0.00     0.000 O
ATOM     28  HD  BDP B   2      17.649  21.338  21.2380  0.00  0.00     0.000 HD
ATOM     28   O  BDP B   2      19.328  22.559  24.0430  0.00  0.00     0.000 O
ATOM     30  HD  BDP B   2      19.374  22.030  23.3590  0.00  0.00     0.000 HD
BRANCH 24 30
ATOM     30   C  BDP B   2      22.452  19.178  22.2370  0.00  0.00     0.000 C
ATOM     31   O  BDP B   2      23.498  19.331  21.5630  0.00  0.00     0.000 OA
ATOM     32   O  BDP B   2      22.291  18.275  23.1060  0.00  0.00     0.000 OA
ENDBRANCH 24 30
BRANCH 20 33
ATOM     33  O3  NAG B   3      18.015  19.339  20.8840  0.00  0.00     0.000 O
BRANCH 33 36
ATOM     34  C1  NAG B   3      17.289  18.058  17.4220  0.00  0.00     0.000 C
ATOM     35  C2  NAG B   3      17.252  18.999  18.6110  0.00  0.00     0.000 C
ATOM     36  C3  NAG B   3      18.226  18.550  19.7110  0.00  0.00     0.000 C
ATOM     37  C4  NAG B   3      17.968  17.084  20.0470  0.00  0.00     0.000 C
ATOM     38  C5  NAG B   3      17.942  16.244  18.7730  0.00  0.00     0.000 C
ATOM     39  O5  NAG B   3      16.967  16.753  17.8790  0.00  0.00     0.000 O
ATOM     40   O  NAG B   3      18.994  16.592  20.9230  0.00  0.00     0.000 O
ATOM     42  HD  NAG B   3      19.062  15.991  20.3040  0.00  0.00     0.000 HD
ATOM     42   C  NAG B   3      17.560  14.784  19.0030  0.00  0.00     0.000 C
ATOM     43   O  NAG B   3      16.204  14.710  19.4580  0.00  0.00     0.000 O
ATOM     45  HD  NAG B   3      16.271  14.109  18.8390  0.00  0.00     0.000 HD
BRANCH 35 47
ATOM     45   N  NAG B   3      16.384  20.162  18.7480  0.00  0.00     0.000 N
ATOM     47  HD  NAG B   3      16.230  19.558  19.3500  0.00  0.00     0.000 HD
ATOM     47   C  NAG B   3      16.797  21.395  18.5330  0.00  0.00     0.000 C
ATOM     48   C  NAG B   3      15.780  22.478  18.7380  0.00  0.00     0.000 C
ATOM     49   O  NAG B   3      17.955  21.646  18.2080  0.00  0.00     0.000 OA
ENDBRANCH 35 47
BRANCH 34 50
ATOM     50  O4  BDP B   4      16.270  18.549  16.5760  0.00  0.00     0.000 O
BRANCH 50 54
ATOM     51  C1  BDP B   4      15.055  18.575  12.6930  0.00  0.00     0.000 C
ATOM     52  C2  BDP B   4      15.709  17.273  13.1420  0.00  0.00     0.000 C
ATOM     53  C3  BDP B   4      15.762  17.254  14.6380  0.00  0.00     0.000 C
ATOM     54  C4  BDP B   4      16.487  18.531  15.1550  0.00  0.00     0.000 C
ATOM     55  C5  BDP B   4      15.934  19.804  14.5290  0.00  0.00     0.000 C
ATOM     56  O5  BDP B   4      15.852  19.668  13.1130  0.00  0.00     0.000 O
ATOM     57   O  BDP B   4      14.961  16.166  12.6860  0.00  0.00     0.000 O
ATOM     59  HD  BDP B   4      15.411  15.861  12.0120  0.00  0.00     0.000 HD
ATOM     59   O  BDP B   4      16.555  16.110  15.0160  0.00  0.00     0.000 O
ATOM     61  HD  BDP B   4      17.005  15.805  14.3420  0.00  0.00     0.000 HD
BRANCH 55 61
ATOM     61   C  BDP B   4      16.849  20.966  14.8670  0.00  0.00     0.000 C
ATOM     62   O  BDP B   4      16.322  22.088  15.0900  0.00  0.00     0.000 OA
ATOM     63   O  BDP B   4      18.099  20.754  14.9100  0.00  0.00     0.000 OA
ENDBRANCH 55 61
BRANCH 51 64
ATOM     64  O3  NAG B   5      14.961  18.533  11.2560  0.00  0.00     0.000 O
BRANCH 64 67
ATOM     65  C1  NAG B   5      11.789  19.842   9.9090  0.00  0.00     0.000 C
ATOM     66  C2  NAG B   5      12.730  18.921  10.6660  0.00  0.00     0.000 C
ATOM     67  C3  NAG B   5      14.119  19.543  10.7360  0.00  0.00     0.000 C
ATOM     68  C4  NAG B   5      14.611  19.950   9.3410  0.00  0.00     0.000 C
ATOM     69  C5  NAG B   5      13.565  20.791   8.6260  0.00  0.00     0.000 C
ATOM     70  O5  NAG B   5      12.304  20.105   8.6240  0.00  0.00     0.000 O
ATOM     71   O  NAG B   5      15.827  20.654   9.4780  0.00  0.00     0.000 O
ATOM     73  HD  NAG B   5      16.044  20.172   8.7930  0.00  0.00     0.000 HD
ATOM     73   C  NAG B   5      13.918  21.139   7.1730  0.00  0.00     0.000 C
ATOM     74   O  NAG B   5      13.983  19.930   6.3890  0.00  0.00     0.000 O
ATOM     76  HD  NAG B   5      14.200  19.447   5.7030  0.00  0.00     0.000 HD
BRANCH 66 78
ATOM     76   N  NAG B   5      12.051  18.706  11.9590  0.00  0.00     0.000 N
ATOM     78  HD  NAG B   5      12.346  18.220  11.3050  0.00  0.00     0.000 HD
ATOM     78   C  NAG B   5      11.880  17.526  12.5740  0.00  0.00     0.000 C
ATOM     79   C  NAG B   5      11.163  17.634  13.8920  0.00  0.00     0.000 C
ATOM     80   O  NAG B   5      12.280  16.411  12.0800  0.00  0.00     0.000 OA
ENDBRANCH 66 78
BRANCH 65 81
ATOM     81  O4  BDP B   6      10.492  19.241   9.8000  0.00  0.00     0.000 O
BRANCH 81 85
ATOM     82  C1  BDP B   6       6.441  20.378   8.9890  0.00  0.00     0.000 C
ATOM     83  C2  BDP B   6       7.334  20.049   7.7960  0.00  0.00     0.000 C
ATOM     84  C3  BDP B   6       8.595  19.277   8.1910  0.00  0.00     0.000 C
ATOM     85  C4  BDP B   6       9.355  19.966   9.3270  0.00  0.00     0.000 C
ATOM     86  C5  BDP B   6       8.343  20.278  10.4550  0.00  0.00     0.000 C
ATOM     87  O5  BDP B   6       7.208  21.064   9.9680  0.00  0.00     0.000 O
ATOM     88   O  BDP B   6       6.534  19.245   6.9330  0.00  0.00     0.000 O
ATOM     90  HD  BDP B   6       6.591  18.538   6.4360  0.00  0.00     0.000 HD
ATOM     90   O  BDP B   6       9.432  19.106   7.0450  0.00  0.00     0.000 O
ATOM     92  HD  BDP B   6       9.490  18.399   6.5480  0.00  0.00     0.000 HD
BRANCH 86 92
ATOM     92   C  BDP B   6       8.973  21.166  11.5010  0.00  0.00     0.000 C
ATOM     93   O  BDP B   6       9.028  22.418  11.3060  0.00  0.00     0.000 OA
ATOM     94   O  BDP B   6       9.406  20.611  12.5580  0.00  0.00     0.000 OA
ENDBRANCH 86 92
BRANCH 82 95
ATOM     95  O3  NAG B   7       5.397  21.266   8.5430  0.00  0.00     0.000 O
BRANCH 95 98
ATOM     96  C1  NAG B   7       1.760  21.343   8.2160  0.00  0.00     0.000 C
ATOM     97  C2  NAG B   7       3.199  21.687   7.8540  0.00  0.00     0.000 C
ATOM     98  C3  NAG B   7       4.047  20.996   8.9200  0.00  0.00     0.000 C
ATOM     99  C4  NAG B   7       3.677  21.526  10.3030  0.00  0.00     0.000 C
ATOM    100  C5  NAG B   7       2.174  21.398  10.5520  0.00  0.00     0.000 C
ATOM    101  O5  NAG B   7       1.475  21.984   9.4650  0.00  0.00     0.000 O
BRANCH 97 104
ATOM    102   N  NAG B   7       4.066  21.410   6.7010  0.00  0.00     0.000 N
ATOM    104  HD  NAG B   7       4.712  21.448   6.1250  0.00  0.00     0.000 HD
ATOM    104   O  NAG B   7       4.626  21.241   4.5130  0.00  0.00     0.000 OA
ATOM    105   C  NAG B   7       3.762  21.443   5.3890  0.00  0.00     0.000 C
ATOM    106   C  NAG B   7       2.362  21.743   4.9770  0.00  0.00     0.000 C
ENDBRANCH 97 104
ATOM    107   O  NAG B   7       0.499  21.639  12.1770  0.00  0.00     0.000 O
ATOM    109  HD  NAG B   7       0.779  21.157  11.5150  0.00  0.00     0.000 HD
ATOM    109   O  NAG B   7       0.499  21.639  12.1770  0.00  0.00     0.000 O
ATOM    111  HD  NAG B   7       0.779  21.157  11.5150  0.00  0.00     0.000 HD
ENDBRANCH 95 98
ENDBRANCH 82 95
ENDBRANCH 81 85
ENDBRANCH 65 81
ENDBRANCH 64 67
ENDBRANCH 51 64
ENDBRANCH 50 54
ENDBRANCH 34 50
ENDBRANCH 33 36
ENDBRANCH 20 33
ENDBRANCH 19 23
ENDBRANCH 1 19
TORSDOF 19
ENDMDL
MODEL 83
REMARK VINA RESULT:      -3.2     11.628     18.150
ROOT
ATOM      1  C1  NAG B   1      23.108  22.815  24.9170  0.00  0.00     0.000 C
ATOM      2  C2  NAG B   1      24.552  22.685  25.3930  0.00  0.00     0.000 C
ATOM      3  C3  NAG B   1      24.725  21.537  26.3660  0.00  0.00     0.000 C
ATOM      4  C4  NAG B   1      23.759  21.825  27.5120  0.00  0.00     0.000 C
ATOM      5  C5  NAG B   1      22.322  21.808  26.9740  0.00  0.00     0.000 C
ATOM      6  O5  NAG B   1      22.130  22.826  25.9690  0.00  0.00     0.000 O
ATOM      7   O  NAG B   1      26.083  21.432  26.8510  0.00  0.00     0.000 O
ATOM      9  HD  NAG B   1      26.196  21.700  26.0350  0.00  0.00     0.000 HD
ATOM      9   O  NAG B   1      23.903  20.848  28.5290  0.00  0.00     0.000 O
ATOM     11  HD  NAG B   1      24.016  21.115  27.7130  0.00  0.00     0.000 HD
ATOM     11   C  NAG B   1      21.328  21.959  28.1330  0.00  0.00     0.000 C
ATOM     12   O  NAG B   1      20.123  22.588  27.7020  0.00  0.00     0.000 O
ATOM     14  HD  NAG B   1      20.236  22.855  26.8860  0.00  0.00     0.000 HD
ENDROOT
BRANCH 2 16
ATOM     14   N  NAG B   1      25.432  23.735  24.8490  0.00  0.00     0.000 N
ATOM     16  HD  NAG B   1      26.231  24.065  24.9100  0.00  0.00     0.000 HD
ATOM     16   C  NAG B   1      26.369  23.497  23.9150  0.00  0.00     0.000 C
ATOM     17   C  NAG B   1      26.575  22.099  23.3960  0.00  0.00     0.000 C
ATOM     18   O  NAG B   1      27.052  24.409  23.4490  0.00  0.00     0.000 OA
ENDBRANCH 2 16
BRANCH 1 19
ATOM     19  O4  BDP B   2      23.073  24.112  24.3380  0.00  0.00     0.000 O
BRANCH 19 23
ATOM     20  C1  BDP B   2      19.887  23.362  21.8420  0.00  0.00     0.000 C
ATOM     21  C2  BDP B   2      21.261  23.019  21.3020  0.00  0.00     0.000 C
ATOM     22  C3  BDP B   2      22.281  22.934  22.4140  0.00  0.00     0.000 C
ATOM     23  C4  BDP B   2      22.229  24.231  23.2170  0.00  0.00     0.000 C
ATOM     24  C5  BDP B   2      20.815  24.461  23.7130  0.00  0.00     0.000 C
ATOM     25  O5  BDP B   2      19.936  24.557  22.6090  0.00  0.00     0.000 O
ATOM     26   O  BDP B   2      21.219  21.796  20.6000  0.00  0.00     0.000 O
ATOM     28  HD  BDP B   2      20.372  21.950  20.6970  0.00  0.00     0.000 HD
ATOM     28   O  BDP B   2      23.580  22.701  21.8480  0.00  0.00     0.000 O
ATOM     30  HD  BDP B   2      22.734  22.855  21.9460  0.00  0.00     0.000 HD
BRANCH 24 30
ATOM     30   C  BDP B   2      20.692  25.719  24.4960  0.00  0.00     0.000 C
ATOM     31   O  BDP B   2      20.320  25.619  25.6880  0.00  0.00     0.000 OA
ATOM     32   O  BDP B   2      20.960  26.813  23.9230  0.00  0.00     0.000 OA
ENDBRANCH 24 30
BRANCH 20 33
ATOM     33  O3  NAG B   3      19.114  23.584  20.6880  0.00  0.00     0.000 O
BRANCH 33 36
ATOM     34  C1  NAG B   3      15.535  22.467  20.3780  0.00  0.00     0.000 C
ATOM     35  C2  NAG B   3      17.047  22.394  20.2740  0.00  0.00     0.000 C
ATOM     36  C3  NAG B   3      17.715  23.583  20.9810  0.00  0.00     0.000 C
ATOM     37  C4  NAG B   3      17.101  24.884  20.4690  0.00  0.00     0.000 C
ATOM     38  C5  NAG B   3      15.578  24.815  20.5400  0.00  0.00     0.000 C
ATOM     39  O5  NAG B   3      15.110  23.696  19.8070  0.00  0.00     0.000 O
ATOM     40   O  NAG B   3      17.567  25.990  21.2580  0.00  0.00     0.000 O
ATOM     42  HD  NAG B   3      16.716  26.127  21.3430  0.00  0.00     0.000 HD
ATOM     42   C  NAG B   3      14.876  26.024  19.9260  0.00  0.00     0.000 C
ATOM     43   O  NAG B   3      15.127  26.059  18.5160  0.00  0.00     0.000 O
ATOM     45  HD  NAG B   3      14.276  26.196  18.6010  0.00  0.00     0.000 HD
BRANCH 35 47
ATOM     45   N  NAG B   3      17.713  21.310  19.5620  0.00  0.00     0.000 N
ATOM     47  HD  NAG B   3      17.774  22.068  19.1480  0.00  0.00     0.000 HD
ATOM     47   C  NAG B   3      18.381  20.354  20.1750  0.00  0.00     0.000 C
ATOM     48   C  NAG B   3      19.024  19.326  19.2910  0.00  0.00     0.000 C
ATOM     49   O  NAG B   3      18.495  20.319  21.3980  0.00  0.00     0.000 OA
ENDBRANCH 35 47
BRANCH 34 50
ATOM     50  O4  BDP B   4      15.093  21.380  19.5920  0.00  0.00     0.000 O
BRANCH 50 54
ATOM     51  C1  BDP B   4      12.229  18.517  19.2040  0.00  0.00     0.000 C
ATOM     52  C2  BDP B   4      11.705  19.947  19.1450  0.00  0.00     0.000 C
ATOM     53  C3  BDP B   4      12.861  20.873  18.9220  0.00  0.00     0.000 C
ATOM     54  C4  BDP B   4      13.936  20.644  20.0230  0.00  0.00     0.000 C
ATOM     55  C5  BDP B   4      14.290  19.172  20.1900  0.00  0.00     0.000 C
ATOM     56  O5  BDP B   4      13.107  18.386  20.3070  0.00  0.00     0.000 O
ATOM     57   O  BDP B   4      10.783  20.088  18.0850  0.00  0.00     0.000 O
ATOM     59  HD  BDP B   4      10.007  20.092  18.4690  0.00  0.00     0.000 HD
ATOM     59   O  BDP B   4      12.357  22.217  19.0660  0.00  0.00     0.000 O
ATOM     61  HD  BDP B   4      11.581  22.220  19.4510  0.00  0.00     0.000 HD
BRANCH 55 61
ATOM     61   C  BDP B   4      15.130  18.998  21.4430  0.00  0.00     0.000 C
ATOM     62   O  BDP B   4      16.019  18.108  21.4390  0.00  0.00     0.000 OA
ATOM     63   O  BDP B   4      14.898  19.758  22.4320  0.00  0.00     0.000 OA
ENDBRANCH 55 61
BRANCH 51 64
ATOM     64  O3  NAG B   5      11.088  17.650  19.3530  0.00  0.00     0.000 O
BRANCH 64 67
ATOM     65  C1  NAG B   5      11.026  14.323  17.7650  0.00  0.00     0.000 C
ATOM     66  C2  NAG B   5      10.917  15.833  17.8870  0.00  0.00     0.000 C
ATOM     67  C3  NAG B   5      11.428  16.281  19.2500  0.00  0.00     0.000 C
ATOM     68  C4  NAG B   5      10.744  15.499  20.3800  0.00  0.00     0.000 C
ATOM     69  C5  NAG B   5      10.824  14.002  20.1220  0.00  0.00     0.000 C
ATOM     70  O5  NAG B   5      10.317  13.704  18.8140  0.00  0.00     0.000 O
ATOM     71   O  NAG B   5      11.359  15.841  21.6030  0.00  0.00     0.000 O
ATOM     73  HD  NAG B   5      10.537  15.846  21.8760  0.00  0.00     0.000 HD
ATOM     73   C  NAG B   5      10.055  13.144  21.1360  0.00  0.00     0.000 C
ATOM     74   O  NAG B   5       8.645  13.434  21.0440  0.00  0.00     0.000 O
ATOM     76  HD  NAG B   5       7.823  13.439  21.3170  0.00  0.00     0.000 HD
BRANCH 66 78
ATOM     76   N  NAG B   5      11.610  16.269  16.6590  0.00  0.00     0.000 N
ATOM     78  HD  NAG B   5      10.860  16.432  17.0590  0.00  0.00     0.000 HD
ATOM     78   C  NAG B   5      11.254  17.298  15.8750  0.00  0.00     0.000 C
ATOM     79   C  NAG B   5      12.173  17.505  14.7020  0.00  0.00     0.000 C
ATOM     80   O  NAG B   5      10.224  18.029  16.0990  0.00  0.00     0.000 OA
ENDBRANCH 66 78
BRANCH 65 81
ATOM     81  O4  BDP B   6      10.503  13.892  16.5020  0.00  0.00     0.000 O
BRANCH 81 85
ATOM     82  C1  BDP B   6      11.246  10.749  13.6850  0.00  0.00     0.000 C
ATOM     83  C2  BDP B   6      10.045  10.595  14.6130  0.00  0.00     0.000 C
ATOM     84  C3  BDP B   6       9.630  11.912  15.2740  0.00  0.00     0.000 C
ATOM     85  C4  BDP B   6      10.813  12.611  15.9480  0.00  0.00     0.000 C
ATOM     86  C5  BDP B   6      11.973  12.676  14.9250  0.00  0.00     0.000 C
ATOM     87  O5  BDP B   6      12.314  11.352  14.4020  0.00  0.00     0.000 O
ATOM     88   O  BDP B   6       8.984  10.122  13.7870  0.00  0.00     0.000 O
ATOM     90  HD  BDP B   6       8.137  10.242  13.6550  0.00  0.00     0.000 HD
ATOM     90   O  BDP B   6       8.578  11.669  16.2110  0.00  0.00     0.000 O
ATOM     92  HD  BDP B   6       7.731  11.789  16.0790  0.00  0.00     0.000 HD
BRANCH 86 92
ATOM     92   C  BDP B   6      13.245  13.137  15.5950  0.00  0.00     0.000 C
ATOM     93   O  BDP B   6      13.879  12.337  16.3470  0.00  0.00     0.000 OA
ATOM     94   O  BDP B   6      13.640  14.319  15.3510  0.00  0.00     0.000 OA
ENDBRANCH 86 92
BRANCH 82 95
ATOM     95  O3  NAG B   7      11.674   9.435  13.2750  0.00  0.00     0.000 O
BRANCH 95 98
ATOM     96  C1  NAG B   7      12.022   7.693  10.0840  0.00  0.00     0.000 C
ATOM     97  C2  NAG B   7      11.588   7.873  11.5330  0.00  0.00     0.000 C
ATOM     98  C3  NAG B   7      12.135   9.240  11.9390  0.00  0.00     0.000 C
ATOM     99  C4  NAG B   7      13.656   9.250  11.8060  0.00  0.00     0.000 C
ATOM    100  C5  NAG B   7      14.084   8.822  10.4010  0.00  0.00     0.000 C
ATOM    101  O5  NAG B   7      13.450   7.593  10.0810  0.00  0.00     0.000 O
BRANCH 97 104
ATOM    102   N  NAG B   7      10.138   7.944  11.7610  0.00  0.00     0.000 N
ATOM    104  HD  NAG B   7       9.348   8.230  11.9710  0.00  0.00     0.000 HD
ATOM    104   O  NAG B   7       8.152   7.407  12.7080  0.00  0.00     0.000 OA
ATOM    105   C  NAG B   7       9.372   7.190  12.5720  0.00  0.00     0.000 C
ATOM    106   C  NAG B   7      10.004   6.077  13.3360  0.00  0.00     0.000 C
ENDBRANCH 97 104
ATOM    107   O  NAG B   7      15.929   8.613   8.9680  0.00  0.00     0.000 O
ATOM    109  HD  NAG B   7      15.094   8.835   9.0190  0.00  0.00     0.000 HD
ATOM    109   O  NAG B   7      15.929   8.613   8.9680  0.00  0.00     0.000 O
ATOM    111  HD  NAG B   7      15.094   8.835   9.0190  0.00  0.00     0.000 HD
ENDBRANCH 95 98
ENDBRANCH 82 95
ENDBRANCH 81 85
ENDBRANCH 65 81
ENDBRANCH 64 67
ENDBRANCH 51 64
ENDBRANCH 50 54
ENDBRANCH 34 50
ENDBRANCH 33 36
ENDBRANCH 20 33
ENDBRANCH 19 23
ENDBRANCH 1 19
TORSDOF 19
ENDMDL
MODEL 84
REMARK VINA RESULT:      -3.2     13.251     21.875
ROOT
ATOM      1  C1  NAG B   1      20.545   4.964  23.3520  0.00  0.00     0.000 C
ATOM      2  C2  NAG B   1      21.147   4.812  24.7460  0.00  0.00     0.000 C
ATOM      3  C3  NAG B   1      21.222   6.138  25.4760  0.00  0.00     0.000 C
ATOM      4  C4  NAG B   1      22.053   7.050  24.5800  0.00  0.00     0.000 C
ATOM      5  C5  NAG B   1      21.316   7.258  23.2510  0.00  0.00     0.000 C
ATOM      6  O5  NAG B   1      21.132   6.005  22.5560  0.00  0.00     0.000 O
ATOM      7   O  NAG B   1      21.828   6.007  26.7820  0.00  0.00     0.000 O
ATOM      9  HD  NAG B   1      21.397   5.260  26.7010  0.00  0.00     0.000 HD
ATOM      9   O  NAG B   1      22.260   8.301  25.2150  0.00  0.00     0.000 O
ATOM     11  HD  NAG B   1      21.829   7.554  25.1330  0.00  0.00     0.000 HD
ATOM     11   C  NAG B   1      22.067   8.280  22.3890  0.00  0.00     0.000 C
ATOM     12   O  NAG B   1      21.857   8.040  20.9990  0.00  0.00     0.000 O
ATOM     14  HD  NAG B   1      21.426   7.293  20.9170  0.00  0.00     0.000 HD
ENDROOT
BRANCH 2 16
ATOM     14   N  NAG B   1      21.577   3.435  25.0470  0.00  0.00     0.000 N
ATOM     16  HD  NAG B   1      21.999   2.957  25.6330  0.00  0.00     0.000 HD
ATOM     16   C  NAG B   1      20.926   2.633  25.9070  0.00  0.00     0.000 C
ATOM     17   C  NAG B   1      19.710   3.142  26.6360  0.00  0.00     0.000 C
ATOM     18   O  NAG B   1      21.286   1.471  26.0950  0.00  0.00     0.000 OA
ENDBRANCH 2 16
BRANCH 1 19
ATOM     19  O4  BDP B   2      20.891   3.742  22.7150  0.00  0.00     0.000 O
BRANCH 19 23
ATOM     20  C1  BDP B   2      17.817   3.860  19.9790  0.00  0.00     0.000 C
ATOM     21  C2  BDP B   2      17.525   3.161  21.2910  0.00  0.00     0.000 C
ATOM     22  C3  BDP B   2      18.537   3.535  22.3490  0.00  0.00     0.000 C
ATOM     23  C4  BDP B   2      19.935   3.270  21.7960  0.00  0.00     0.000 C
ATOM     24  C5  BDP B   2      20.114   4.027  20.4950  0.00  0.00     0.000 C
ATOM     25  O5  BDP B   2      19.148   3.594  19.5570  0.00  0.00     0.000 O
ATOM     26   O  BDP B   2      16.226   3.485  21.7390  0.00  0.00     0.000 O
ATOM     28  HD  BDP B   2      16.196   3.796  20.9310  0.00  0.00     0.000 HD
ATOM     28   O  BDP B   2      18.276   2.779  23.5420  0.00  0.00     0.000 O
ATOM     30  HD  BDP B   2      18.246   3.091  22.7350  0.00  0.00     0.000 HD
BRANCH 24 30
ATOM     30   C  BDP B   2      21.456   3.802  19.8950  0.00  0.00     0.000 C
ATOM     31   O  BDP B   2      21.788   2.618  19.6590  0.00  0.00     0.000 OA
ATOM     32   O  BDP B   2      22.187   4.807  19.6630  0.00  0.00     0.000 OA
ENDBRANCH 24 30
BRANCH 20 33
ATOM     33  O3  NAG B   3      16.918   3.271  19.0720  0.00  0.00     0.000 O
BRANCH 33 36
ATOM     34  C1  NAG B   3      15.476   5.399  16.3250  0.00  0.00     0.000 C
ATOM     35  C2  NAG B   3      15.641   4.819  17.7170  0.00  0.00     0.000 C
ATOM     36  C3  NAG B   3      16.908   3.956  17.8170  0.00  0.00     0.000 C
ATOM     37  C4  NAG B   3      16.908   2.926  16.6910  0.00  0.00     0.000 C
ATOM     38  C5  NAG B   3      16.650   3.607  15.3500  0.00  0.00     0.000 C
ATOM     39  O5  NAG B   3      15.428   4.324  15.3990  0.00  0.00     0.000 O
ATOM     40   O  NAG B   3      18.173   2.247  16.6460  0.00  0.00     0.000 O
ATOM     42  HD  NAG B   3      18.146   2.511  15.8220  0.00  0.00     0.000 HD
ATOM     42   C  NAG B   3      16.504   2.635  14.1820  0.00  0.00     0.000 C
ATOM     43   O  NAG B   3      15.326   1.840  14.3650  0.00  0.00     0.000 O
ATOM     45  HD  NAG B   3      15.299   2.104  13.5410  0.00  0.00     0.000 HD
BRANCH 35 47
ATOM     45   N  NAG B   3      15.633   5.900  18.6940  0.00  0.00     0.000 N
ATOM     47  HD  NAG B   3      15.664   6.188  17.8780  0.00  0.00     0.000 HD
ATOM     47   C  NAG B   3      14.919   5.861  19.8010  0.00  0.00     0.000 C
ATOM     48   C  NAG B   3      15.009   7.067  20.6890  0.00  0.00     0.000 C
ATOM     49   O  NAG B   3      14.200   4.904  20.0790  0.00  0.00     0.000 OA
ENDBRANCH 35 47
BRANCH 34 50
ATOM     50  O4  BDP B   4      14.227   6.055  16.3830  0.00  0.00     0.000 O
BRANCH 50 54
ATOM     51  C1  BDP B   4      12.403   9.561  15.4160  0.00  0.00     0.000 C
ATOM     52  C2  BDP B   4      12.165   8.430  14.4220  0.00  0.00     0.000 C
ATOM     53  C3  BDP B   4      12.558   7.136  15.0650  0.00  0.00     0.000 C
ATOM     54  C4  BDP B   4      14.026   7.226  15.5730  0.00  0.00     0.000 C
ATOM     55  C5  BDP B   4      14.276   8.479  16.4010  0.00  0.00     0.000 C
ATOM     56  O5  BDP B   4      13.784   9.631  15.7220  0.00  0.00     0.000 O
ATOM     57   O  BDP B   4      10.802   8.376  14.0580  0.00  0.00     0.000 O
ATOM     59  HD  BDP B   4      10.773   8.732  13.2690  0.00  0.00     0.000 HD
ATOM     59   O  BDP B   4      12.504   6.123  14.0390  0.00  0.00     0.000 O
ATOM     61  HD  BDP B   4      12.475   6.479  13.2500  0.00  0.00     0.000 HD
BRANCH 55 61
ATOM     61   C  BDP B   4      15.768   8.636  16.6330  0.00  0.00     0.000 C
ATOM     62   O  BDP B   4      16.176   8.722  17.8210  0.00  0.00     0.000 OA
ATOM     63   O  BDP B   4      16.533   8.672  15.6210  0.00  0.00     0.000 OA
ENDBRANCH 55 61
BRANCH 51 64
ATOM     64  O3  NAG B   5      11.956  10.780  14.7910  0.00  0.00     0.000 O
BRANCH 64 67
ATOM     65  C1  NAG B   5      10.105  13.375  16.6440  0.00  0.00     0.000 C
ATOM     66  C2  NAG B   5      10.341  12.097  15.8570  0.00  0.00     0.000 C
ATOM     67  C3  NAG B   5      11.837  11.850  15.7080  0.00  0.00     0.000 C
ATOM     68  C4  NAG B   5      12.547  13.088  15.1430  0.00  0.00     0.000 C
ATOM     69  C5  NAG B   5      12.177  14.329  15.9390  0.00  0.00     0.000 C
ATOM     70  O5  NAG B   5      10.749  14.456  16.0100  0.00  0.00     0.000 O
ATOM     71   O  NAG B   5      13.940  12.860  15.1690  0.00  0.00     0.000 O
ATOM     73  HD  NAG B   5      13.893  13.231  14.3880  0.00  0.00     0.000 HD
ATOM     73   C  NAG B   5      12.741  15.638  15.3680  0.00  0.00     0.000 C
ATOM     74   O  NAG B   5      12.172  15.882  14.0650  0.00  0.00     0.000 O
ATOM     76  HD  NAG B   5      12.125  16.252  13.2830  0.00  0.00     0.000 HD
BRANCH 66 78
ATOM     76   N  NAG B   5       9.607  11.058  16.6040  0.00  0.00     0.000 N
ATOM     78  HD  NAG B   5       9.597  11.397  15.8070  0.00  0.00     0.000 HD
ATOM     78   C  NAG B   5       8.762  10.157  16.0780  0.00  0.00     0.000 C
ATOM     79   C  NAG B   5       8.182   9.214  17.0970  0.00  0.00     0.000 C
ATOM     80   O  NAG B   5       8.470  10.111  14.8300  0.00  0.00     0.000 OA
ENDBRANCH 66 78
BRANCH 65 81
ATOM     81  O4  BDP B   6       8.699  13.637  16.7470  0.00  0.00     0.000 O
BRANCH 81 85
ATOM     82  C1  BDP B   6       5.880  15.566  19.3340  0.00  0.00     0.000 C
ATOM     83  C2  BDP B   6       6.923  16.444  18.6480  0.00  0.00     0.000 C
ATOM     84  C3  BDP B   6       7.597  15.749  17.4620  0.00  0.00     0.000 C
ATOM     85  C4  BDP B   6       8.140  14.370  17.8400  0.00  0.00     0.000 C
ATOM     86  C5  BDP B   6       7.009  13.593  18.5540  0.00  0.00     0.000 C
ATOM     87  O5  BDP B   6       6.479  14.332  19.7010  0.00  0.00     0.000 O
ATOM     88   O  BDP B   6       6.212  17.590  18.1880  0.00  0.00     0.000 O
ATOM     90  HD  BDP B   6       6.160  18.111  17.4980  0.00  0.00     0.000 HD
ATOM     90   O  BDP B   6       8.636  16.585  16.9440  0.00  0.00     0.000 O
ATOM     92  HD  BDP B   6       8.585  17.106  16.2550  0.00  0.00     0.000 HD
BRANCH 86 92
ATOM     92   C  BDP B   6       7.544  12.319  19.1630  0.00  0.00     0.000 C
ATOM     93   O  BDP B   6       8.756  12.264  19.5320  0.00  0.00     0.000 OA
ATOM     94   O  BDP B   6       6.734  11.350  19.3000  0.00  0.00     0.000 OA
ENDBRANCH 86 92
BRANCH 82 95
ATOM     95  O3  NAG B   7       5.454  16.227  20.5410  0.00  0.00     0.000 O
BRANCH 95 98
ATOM     96  C1  NAG B   7       2.125  16.358  22.0400  0.00  0.00     0.000 C
ATOM     97  C2  NAG B   7       3.364  16.911  21.3470  0.00  0.00     0.000 C
ATOM     98  C3  NAG B   7       4.320  15.724  21.2460  0.00  0.00     0.000 C
ATOM     99  C4  NAG B   7       4.647  15.201  22.6430  0.00  0.00     0.000 C
ATOM    100  C5  NAG B   7       3.369  14.882  23.4200  0.00  0.00     0.000 C
ATOM    101  O5  NAG B   7       2.509  16.011  23.3750  0.00  0.00     0.000 O
BRANCH 97 104
ATOM    102   N  NAG B   7       3.200  17.368  19.9600  0.00  0.00     0.000 N
ATOM    104  HD  NAG B   7       3.285  17.451  19.1030  0.00  0.00     0.000 HD
ATOM    104   O  NAG B   7       3.276  18.824  18.2270  0.00  0.00     0.000 OA
ATOM    105   C  NAG B   7       3.400  18.597  19.4460  0.00  0.00     0.000 C
ATOM    106   C  NAG B   7       3.792  19.708  20.3590  0.00  0.00     0.000 C
ENDBRANCH 97 104
ATOM    107   O  NAG B   7       2.547  13.933  25.4010  0.00  0.00     0.000 O
ATOM    109  HD  NAG B   7       2.418  14.014  24.5490  0.00  0.00     0.000 HD
ATOM    109   O  NAG B   7       2.547  13.933  25.4010  0.00  0.00     0.000 O
ATOM    111  HD  NAG B   7       2.418  14.014  24.5490  0.00  0.00     0.000 HD
ENDBRANCH 95 98
ENDBRANCH 82 95
ENDBRANCH 81 85
ENDBRANCH 65 81
ENDBRANCH 64 67
ENDBRANCH 51 64
ENDBRANCH 50 54
ENDBRANCH 34 50
ENDBRANCH 33 36
ENDBRANCH 20 33
ENDBRANCH 19 23
ENDBRANCH 1 19
TORSDOF 19
ENDMDL
MODEL 85
REMARK VINA RESULT:      -3.1     11.004     20.913
ROOT
ATOM      1  C1  NAG B   1      13.387  18.186   7.5930  0.00  0.00     0.000 C
ATOM      2  C2  NAG B   1      13.940  17.024   6.7730  0.00  0.00     0.000 C
ATOM      3  C3  NAG B   1      15.330  17.315   6.2470  0.00  0.00     0.000 C
ATOM      4  C4  NAG B   1      15.196  18.594   5.4260  0.00  0.00     0.000 C
ATOM      5  C5  NAG B   1      14.765  19.741   6.3480  0.00  0.00     0.000 C
ATOM      6  O5  NAG B   1      13.483  19.469   6.9530  0.00  0.00     0.000 O
ATOM      7   O  NAG B   1      15.845  16.234   5.4360  0.00  0.00     0.000 O
ATOM      9  HD  NAG B   1      15.381  15.814   6.0360  0.00  0.00     0.000 HD
ATOM      9   O  NAG B   1      16.434  18.911   4.8110  0.00  0.00     0.000 O
ATOM     11  HD  NAG B   1      15.970  18.491   5.4100  0.00  0.00     0.000 HD
ATOM     11   C  NAG B   1      14.757  21.063   5.5710  0.00  0.00     0.000 C
ATOM     12   O  NAG B   1      13.798  21.973   6.1070  0.00  0.00     0.000 O
ATOM     14  HD  NAG B   1      13.335  21.554   6.7070  0.00  0.00     0.000 HD
ENDROOT
BRANCH 2 16
ATOM     14   N  NAG B   1      12.973  15.919   6.6370  0.00  0.00     0.000 N
ATOM     16  HD  NAG B   1      12.836  15.170   6.2240  0.00  0.00     0.000 HD
ATOM     16   C  NAG B   1      13.122  14.733   7.2540  0.00  0.00     0.000 C
ATOM     17   C  NAG B   1      14.334  14.478   8.1090  0.00  0.00     0.000 C
ATOM     18   O  NAG B   1      12.268  13.852   7.1560  0.00  0.00     0.000 OA
ENDBRANCH 2 16
BRANCH 1 19
ATOM     19  O4  BDP B   2      11.999  17.893   7.6760  0.00  0.00     0.000 O
BRANCH 19 23
ATOM     20  C1  BDP B   2      11.242  20.041  11.1040  0.00  0.00     0.000 C
ATOM     21  C2  BDP B   2      11.831  18.658  11.2920  0.00  0.00     0.000 C
ATOM     22  C3  BDP B   2      12.446  18.145  10.0100  0.00  0.00     0.000 C
ATOM     23  C4  BDP B   2      11.400  18.235   8.9030  0.00  0.00     0.000 C
ATOM     24  C5  BDP B   2      10.895  19.661   8.8000  0.00  0.00     0.000 C
ATOM     25  O5  BDP B   2      10.311  20.046  10.0300  0.00  0.00     0.000 O
ATOM     26   O  BDP B   2      12.804  18.676  12.3140  0.00  0.00     0.000 O
ATOM     28  HD  BDP B   2      12.442  19.454  12.4280  0.00  0.00     0.000 HD
ATOM     28   O  BDP B   2      12.905  16.800  10.2110  0.00  0.00     0.000 O
ATOM     30  HD  BDP B   2      12.544  17.578  10.3250  0.00  0.00     0.000 HD
BRANCH 24 30
ATOM     30   C  BDP B   2       9.861  19.817   7.7440  0.00  0.00     0.000 C
ATOM     31   O  BDP B   2       8.995  18.917   7.6510  0.00  0.00     0.000 OA
ATOM     32   O  BDP B   2       9.914  20.834   6.9960  0.00  0.00     0.000 OA
ENDBRANCH 24 30
BRANCH 20 33
ATOM     33  O3  NAG B   3      10.559  20.287  12.3090  0.00  0.00     0.000 O
BRANCH 33 36
ATOM     34  C1  NAG B   3      10.509  23.665  13.9630  0.00  0.00     0.000 C
ATOM     35  C2  NAG B   3      10.991  22.264  13.6380  0.00  0.00     0.000 C
ATOM     36  C3  NAG B   3      10.218  21.668  12.4510  0.00  0.00     0.000 C
ATOM     37  C4  NAG B   3       8.719  21.783  12.7160  0.00  0.00     0.000 C
ATOM     38  C5  NAG B   3       8.360  23.212  13.1160  0.00  0.00     0.000 C
ATOM     39  O5  NAG B   3       9.119  23.602  14.2480  0.00  0.00     0.000 O
ATOM     40   O  NAG B   3       7.983  21.418  11.5380  0.00  0.00     0.000 O
ATOM     42  HD  NAG B   3       7.628  22.197  11.6680  0.00  0.00     0.000 HD
ATOM     42   C  NAG B   3       6.900  23.390  13.5260  0.00  0.00     0.000 C
ATOM     43   O  NAG B   3       6.646  22.650  14.7270  0.00  0.00     0.000 O
ATOM     45  HD  NAG B   3       6.291  23.429  14.8570  0.00  0.00     0.000 HD
BRANCH 35 47
ATOM     45   N  NAG B   3      12.045  21.614  14.4060  0.00  0.00     0.000 N
ATOM     47  HD  NAG B   3      11.268  21.255  14.5360  0.00  0.00     0.000 HD
ATOM     47   C  NAG B   3      13.261  21.422  13.9350  0.00  0.00     0.000 C
ATOM     48   C  NAG B   3      14.220  20.719  14.8490  0.00  0.00     0.000 C
ATOM     49   O  NAG B   3      13.585  21.775  12.8030  0.00  0.00     0.000 OA
ENDBRANCH 35 47
BRANCH 34 50
ATOM     50  O4  BDP B   4      11.234  24.007  15.1260  0.00  0.00     0.000 O
BRANCH 50 54
ATOM     51  C1  BDP B   4      12.981  27.066  17.1610  0.00  0.00     0.000 C
ATOM     52  C2  BDP B   4      11.493  27.256  16.8910  0.00  0.00     0.000 C
ATOM     53  C3  BDP B   4      10.907  25.937  16.4880  0.00  0.00     0.000 C
ATOM     54  C4  BDP B   4      11.696  25.360  15.2770  0.00  0.00     0.000 C
ATOM     55  C5  BDP B   4      13.201  25.372  15.5080  0.00  0.00     0.000 C
ATOM     56  O5  BDP B   4      13.624  26.652  15.9690  0.00  0.00     0.000 O
ATOM     57   O  BDP B   4      10.839  27.722  18.0520  0.00  0.00     0.000 O
ATOM     59  HD  BDP B   4      10.712  28.566  17.9060  0.00  0.00     0.000 HD
ATOM     59   O  BDP B   4       9.555  26.193  16.0560  0.00  0.00     0.000 O
ATOM     61  HD  BDP B   4       9.427  27.037  15.9100  0.00  0.00     0.000 HD
BRANCH 55 61
ATOM     61   C  BDP B   4      13.910  25.052  14.2040  0.00  0.00     0.000 C
ATOM     62   O  BDP B   4      14.997  24.419  14.2630  0.00  0.00     0.000 OA
ATOM     63   O  BDP B   4      13.375  25.434  13.1200  0.00  0.00     0.000 OA
ENDBRANCH 55 61
BRANCH 51 64
ATOM     64  O3  NAG B   5      13.499  28.334  17.6070  0.00  0.00     0.000 O
BRANCH 64 67
ATOM     65  C1  NAG B   5      16.089  28.579  20.2190  0.00  0.00     0.000 C
ATOM     66  C2  NAG B   5      14.705  28.436  19.6100  0.00  0.00     0.000 C
ATOM     67  C3  NAG B   5      14.819  28.238  18.1040  0.00  0.00     0.000 C
ATOM     68  C4  NAG B   5      15.686  29.334  17.4690  0.00  0.00     0.000 C
ATOM     69  C5  NAG B   5      17.011  29.466  18.2020  0.00  0.00     0.000 C
ATOM     70  O5  NAG B   5      16.776  29.647  19.6070  0.00  0.00     0.000 O
ATOM     71   O  NAG B   5      15.884  29.020  16.1070  0.00  0.00     0.000 O
ATOM     73  HD  NAG B   5      15.742  29.870  16.0150  0.00  0.00     0.000 HD
ATOM     73   C  NAG B   5      17.891  30.625  17.7150  0.00  0.00     0.000 C
ATOM     74   O  NAG B   5      17.227  31.879  17.9760  0.00  0.00     0.000 O
ATOM     76  HD  NAG B   5      17.086  32.728  17.8850  0.00  0.00     0.000 HD
BRANCH 66 78
ATOM     76   N  NAG B   5      14.121  27.350  20.4210  0.00  0.00     0.000 N
ATOM     78  HD  NAG B   5      13.907  28.156  20.1860  0.00  0.00     0.000 HD
ATOM     78   C  NAG B   5      12.865  27.304  20.8910  0.00  0.00     0.000 C
ATOM     79   C  NAG B   5      12.562  26.053  21.6700  0.00  0.00     0.000 C
ATOM     80   O  NAG B   5      12.008  28.240  20.7010  0.00  0.00     0.000 OA
ENDBRANCH 66 78
BRANCH 65 81
ATOM     81  O4  BDP B   6      15.986  28.812  21.6300  0.00  0.00     0.000 O
BRANCH 81 85
ATOM     82  C1  BDP B   6      18.363  28.440  25.1760  0.00  0.00     0.000 C
ATOM     83  C2  BDP B   6      18.511  29.720  24.3590  0.00  0.00     0.000 C
ATOM     84  C3  BDP B   6      17.358  29.935  23.3750  0.00  0.00     0.000 C
ATOM     85  C4  BDP B   6      17.112  28.701  22.5040  0.00  0.00     0.000 C
ATOM     86  C5  BDP B   6      17.015  27.471  23.4370  0.00  0.00     0.000 C
ATOM     87  O5  BDP B   6      18.196  27.340  24.2920  0.00  0.00     0.000 O
ATOM     88   O  BDP B   6      18.528  30.779  25.3120  0.00  0.00     0.000 O
ATOM     90  HD  BDP B   6      18.210  31.576  25.4300  0.00  0.00     0.000 HD
ATOM     90   O  BDP B   6      17.622  31.086  22.5700  0.00  0.00     0.000 O
ATOM     92  HD  BDP B   6      17.304  31.883  22.6870  0.00  0.00     0.000 HD
BRANCH 86 92
ATOM     92   C  BDP B   6      17.010  26.194  22.6320  0.00  0.00     0.000 C
ATOM     93   O  BDP B   6      15.911  25.607  22.3990  0.00  0.00     0.000 OA
ATOM     94   O  BDP B   6      18.127  25.770  22.1990  0.00  0.00     0.000 OA
ENDBRANCH 86 92
BRANCH 82 95
ATOM     95  O3  NAG B   7      19.581  28.231  25.9170  0.00  0.00     0.000 O
BRANCH 95 98
ATOM     96  C1  NAG B   7      20.382  27.321  29.3620  0.00  0.00     0.000 C
ATOM     97  C2  NAG B   7      20.468  28.142  28.0820  0.00  0.00     0.000 C
ATOM     98  C3  NAG B   7      19.549  27.426  27.0950  0.00  0.00     0.000 C
ATOM     99  C4  NAG B   7      20.037  25.996  26.8750  0.00  0.00     0.000 C
ATOM    100  C5  NAG B   7      20.182  25.258  28.2070  0.00  0.00     0.000 C
ATOM    101  O5  NAG B   7      20.972  26.046  29.0850  0.00  0.00     0.000 O
BRANCH 97 104
ATOM    102   N  NAG B   7      19.942  29.513  28.1180  0.00  0.00     0.000 N
ATOM    104  HD  NAG B   7      19.486  30.228  27.9400  0.00  0.00     0.000 HD
ATOM    104   O  NAG B   7      20.004  31.771  27.9490  0.00  0.00     0.000 OA
ATOM    105   C  NAG B   7      20.600  30.676  27.9510  0.00  0.00     0.000 C
ATOM    106   C  NAG B   7      22.077  30.649  27.7490  0.00  0.00     0.000 C
ENDBRANCH 97 104
ATOM    107   O  NAG B   7      20.621  23.165  29.1710  0.00  0.00     0.000 O
ATOM    109  HD  NAG B   7      20.144  23.886  29.2290  0.00  0.00     0.000 HD
ATOM    109   O  NAG B   7      20.621  23.165  29.1710  0.00  0.00     0.000 O
ATOM    111  HD  NAG B   7      20.144  23.886  29.2290  0.00  0.00     0.000 HD
ENDBRANCH 95 98
ENDBRANCH 82 95
ENDBRANCH 81 85
ENDBRANCH 65 81
ENDBRANCH 64 67
ENDBRANCH 51 64
ENDBRANCH 50 54
ENDBRANCH 34 50
ENDBRANCH 33 36
ENDBRANCH 20 33
ENDBRANCH 19 23
ENDBRANCH 1 19
TORSDOF 19
ENDMDL
MODEL 86
REMARK VINA RESULT:      -3.1     13.437     19.004
ROOT
ATOM      1  C1  NAG B   1      20.290  20.785  27.4890  0.00  0.00     0.000 C
ATOM      2  C2  NAG B   1      21.064  20.717  28.8030  0.00  0.00     0.000 C
ATOM      3  C3  NAG B   1      20.150  20.456  29.9830  0.00  0.00     0.000 C
ATOM      4  C4  NAG B   1      19.128  21.588  29.9670  0.00  0.00     0.000 C
ATOM      5  C5  NAG B   1      18.305  21.505  28.6750  0.00  0.00     0.000 C
ATOM      6  O5  NAG B   1      19.147  21.654  27.5110  0.00  0.00     0.000 O
ATOM      7   O  NAG B   1      20.871  20.429  31.2360  0.00  0.00     0.000 O
ATOM      9  HD  NAG B   1      21.442  20.084  30.6840  0.00  0.00     0.000 HD
ATOM      9   O  NAG B   1      18.270  21.487  31.0900  0.00  0.00     0.000 O
ATOM     11  HD  NAG B   1      18.841  21.141  30.5390  0.00  0.00     0.000 HD
ATOM     11   C  NAG B   1      17.183  22.550  28.7010  0.00  0.00     0.000 C
ATOM     12   O  NAG B   1      16.837  22.972  27.3830  0.00  0.00     0.000 O
ATOM     14  HD  NAG B   1      17.409  22.626  26.8310  0.00  0.00     0.000 HD
ENDROOT
BRANCH 2 16
ATOM     14   N  NAG B   1      22.504  20.982  28.6390  0.00  0.00     0.000 N
ATOM     16  HD  NAG B   1      23.236  21.112  29.0830  0.00  0.00     0.000 HD
ATOM     16   C  NAG B   1      23.444  20.027  28.7490  0.00  0.00     0.000 C
ATOM     17   C  NAG B   1      23.044  18.614  29.0820  0.00  0.00     0.000 C
ATOM     18   O  NAG B   1      24.633  20.276  28.5560  0.00  0.00     0.000 OA
ENDBRANCH 2 16
BRANCH 1 19
ATOM     19  O4  BDP B   2      21.220  21.384  26.5970  0.00  0.00     0.000 O
BRANCH 19 23
ATOM     20  C1  BDP B   2      19.552  19.841  23.1650  0.00  0.00     0.000 C
ATOM     21  C2  BDP B   2      20.579  18.974  23.8620  0.00  0.00     0.000 C
ATOM     22  C3  BDP B   2      20.803  19.428  25.2870  0.00  0.00     0.000 C
ATOM     23  C4  BDP B   2      21.145  20.915  25.2710  0.00  0.00     0.000 C
ATOM     24  C5  BDP B   2      20.044  21.679  24.5620  0.00  0.00     0.000 C
ATOM     25  O5  BDP B   2      19.925  21.210  23.2320  0.00  0.00     0.000 O
ATOM     26   O  BDP B   2      20.168  17.624  23.8520  0.00  0.00     0.000 O
ATOM     28  HD  BDP B   2      19.602  17.965  23.2930  0.00  0.00     0.000 HD
ATOM     28   O  BDP B   2      21.849  18.640  25.8760  0.00  0.00     0.000 O
ATOM     30  HD  BDP B   2      21.283  18.981  25.3170  0.00  0.00     0.000 HD
BRANCH 24 30
ATOM     30   C  BDP B   2      20.321  23.138  24.5010  0.00  0.00     0.000 C
ATOM     31   O  BDP B   2      19.439  23.909  24.9440  0.00  0.00     0.000 OA
ATOM     32   O  BDP B   2      21.418  23.522  24.0040  0.00  0.00     0.000 OA
ENDBRANCH 24 30
BRANCH 20 33
ATOM     33  O3  NAG B   3      19.599  19.414  21.8250  0.00  0.00     0.000 O
BRANCH 33 36
ATOM     34  C1  NAG B   3      16.522  19.152  19.6770  0.00  0.00     0.000 C
ATOM     35  C2  NAG B   3      17.600  18.715  20.6500  0.00  0.00     0.000 C
ATOM     36  C3  NAG B   3      18.482  19.899  21.0760  0.00  0.00     0.000 C
ATOM     37  C4  NAG B   3      18.997  20.619  19.8310  0.00  0.00     0.000 C
ATOM     38  C5  NAG B   3      17.842  20.934  18.8850  0.00  0.00     0.000 C
ATOM     39  O5  NAG B   3      17.153  19.741  18.5490  0.00  0.00     0.000 O
ATOM     40   O  NAG B   3      19.654  21.839  20.2060  0.00  0.00     0.000 O
ATOM     42  HD  NAG B   3      19.092  22.172  19.6380  0.00  0.00     0.000 HD
ATOM     42   C  NAG B   3      18.281  21.537  17.5540  0.00  0.00     0.000 C
ATOM     43   O  NAG B   3      19.039  20.571  16.8170  0.00  0.00     0.000 O
ATOM     45  HD  NAG B   3      18.477  20.903  16.2480  0.00  0.00     0.000 HD
BRANCH 35 47
ATOM     45   N  NAG B   3      17.730  17.326  21.0700  0.00  0.00     0.000 N
ATOM     47  HD  NAG B   3      18.374  17.579  20.5490  0.00  0.00     0.000 HD
ATOM     47   C  NAG B   3      17.417  16.910  22.2810  0.00  0.00     0.000 C
ATOM     48   C  NAG B   3      17.630  15.451  22.5540  0.00  0.00     0.000 C
ATOM     49   O  NAG B   3      17.000  17.677  23.1450  0.00  0.00     0.000 OA
ENDBRANCH 35 47
BRANCH 34 50
ATOM     50  O4  BDP B   4      15.891  17.942  19.3120  0.00  0.00     0.000 O
BRANCH 50 54
ATOM     51  C1  BDP B   4      12.397  16.280  18.0570  0.00  0.00     0.000 C
ATOM     52  C2  BDP B   4      13.178  17.005  16.9680  0.00  0.00     0.000 C
ATOM     53  C3  BDP B   4      14.577  17.233  17.4530  0.00  0.00     0.000 C
ATOM     54  C4  BDP B   4      14.545  17.991  18.8110  0.00  0.00     0.000 C
ATOM     55  C5  BDP B   4      13.595  17.346  19.8120  0.00  0.00     0.000 C
ATOM     56  O5  BDP B   4      12.328  17.101  19.2090  0.00  0.00     0.000 O
ATOM     57   O  BDP B   4      13.213  16.227  15.7900  0.00  0.00     0.000 O
ATOM     59  HD  BDP B   4      12.634  16.600  15.2650  0.00  0.00     0.000 HD
ATOM     59   O  BDP B   4      15.223  18.084  16.4840  0.00  0.00     0.000 O
ATOM     61  HD  BDP B   4      14.644  18.457  15.9600  0.00  0.00     0.000 HD
BRANCH 55 61
ATOM     61   C  BDP B   4      13.412  18.274  20.9990  0.00  0.00     0.000 C
ATOM     62   O  BDP B   4      12.749  19.330  20.8260  0.00  0.00     0.000 OA
ATOM     63   O  BDP B   4      13.933  17.942  22.1070  0.00  0.00     0.000 OA
ENDBRANCH 55 61
BRANCH 51 64
ATOM     64  O3  NAG B   5      11.079  16.019  17.5360  0.00  0.00     0.000 O
BRANCH 64 67
ATOM     65  C1  NAG B   5       9.182  12.929  18.2050  0.00  0.00     0.000 C
ATOM     66  C2  NAG B   5      10.159  13.866  17.5170  0.00  0.00     0.000 C
ATOM     67  C3  NAG B   5      10.338  15.130  18.3490  0.00  0.00     0.000 C
ATOM     68  C4  NAG B   5       8.982  15.761  18.6920  0.00  0.00     0.000 C
ATOM     69  C5  NAG B   5       8.043  14.725  19.2890  0.00  0.00     0.000 C
ATOM     70  O5  NAG B   5       7.955  13.586  18.4200  0.00  0.00     0.000 O
ATOM     71   O  NAG B   5       9.195  16.833  19.5850  0.00  0.00     0.000 O
ATOM     73  HD  NAG B   5       8.606  17.214  19.0770  0.00  0.00     0.000 HD
ATOM     73   C  NAG B   5       6.618  15.237  19.5460  0.00  0.00     0.000 C
ATOM     74   O  NAG B   5       5.995  15.584  18.2910  0.00  0.00     0.000 O
ATOM     76  HD  NAG B   5       5.406  15.965  17.7840  0.00  0.00     0.000 HD
BRANCH 66 78
ATOM     76   N  NAG B   5      10.821  13.379  16.2910  0.00  0.00     0.000 N
ATOM     78  HD  NAG B   5      11.054  13.605  17.0940  0.00  0.00     0.000 HD
ATOM     78   C  NAG B   5      12.088  12.947  16.1970  0.00  0.00     0.000 C
ATOM     79   C  NAG B   5      12.466  12.496  14.8120  0.00  0.00     0.000 C
ATOM     80   O  NAG B   5      12.901  12.929  17.1890  0.00  0.00     0.000 OA
ENDBRANCH 66 78
BRANCH 65 81
ATOM     81  O4  BDP B   6       8.975  11.759  17.4030  0.00  0.00     0.000 O
BRANCH 81 85
ATOM     82  C1  BDP B   6       8.391   7.535  17.8320  0.00  0.00     0.000 C
ATOM     83  C2  BDP B   6       7.222   8.448  18.1900  0.00  0.00     0.000 C
ATOM     84  C3  BDP B   6       7.379   9.864  17.6270  0.00  0.00     0.000 C
ATOM     85  C4  BDP B   6       8.737  10.473  17.9820  0.00  0.00     0.000 C
ATOM     86  C5  BDP B   6       9.832   9.446  17.6070  0.00  0.00     0.000 C
ATOM     87  O5  BDP B   6       9.604   8.148  18.2450  0.00  0.00     0.000 O
ATOM     88   O  BDP B   6       6.070   7.833  17.6190  0.00  0.00     0.000 O
ATOM     90  HD  BDP B   6       5.349   8.039  17.1860  0.00  0.00     0.000 HD
ATOM     90   O  BDP B   6       6.309  10.688  18.0970  0.00  0.00     0.000 O
ATOM     92  HD  BDP B   6       5.588  10.894  17.6640  0.00  0.00     0.000 HD
BRANCH 86 92
ATOM     92   C  BDP B   6      11.173   9.881  18.1450  0.00  0.00     0.000 C
ATOM     93   O  BDP B   6      11.246  10.382  19.3080  0.00  0.00     0.000 OA
ATOM     94   O  BDP B   6      12.189   9.701  17.4040  0.00  0.00     0.000 OA
ENDBRANCH 86 92
BRANCH 82 95
ATOM     95  O3  NAG B   7       8.246   6.303  18.5660  0.00  0.00     0.000 O
BRANCH 95 98
ATOM     96  C1  NAG B   7       7.834   2.718  18.0040  0.00  0.00     0.000 C
ATOM     97  C2  NAG B   7       7.715   4.031  18.7660  0.00  0.00     0.000 C
ATOM     98  C3  NAG B   7       8.414   5.062  17.8820  0.00  0.00     0.000 C
ATOM     99  C4  NAG B   7       9.874   4.666  17.6780  0.00  0.00     0.000 C
ATOM    100  C5  NAG B   7       9.982   3.238  17.1400  0.00  0.00     0.000 C
ATOM    101  O5  NAG B   7       9.224   2.374  17.9730  0.00  0.00     0.000 O
BRANCH 97 104
ATOM    102   N  NAG B   7       6.369   4.592  18.9530  0.00  0.00     0.000 N
ATOM    104  HD  NAG B   7       5.690   5.129  18.9450  0.00  0.00     0.000 HD
ATOM    104   O  NAG B   7       4.567   5.335  20.1050  0.00  0.00     0.000 OA
ATOM    105   C  NAG B   7       5.688   4.789  20.0970  0.00  0.00     0.000 C
ATOM    106   C  NAG B   7       6.296   4.355  21.3870  0.00  0.00     0.000 C
ENDBRANCH 97 104
ATOM    107   O  NAG B   7      11.483   1.641  16.3030  0.00  0.00     0.000 O
ATOM    109  HD  NAG B   7      10.690   1.979  16.2210  0.00  0.00     0.000 HD
ATOM    109   O  NAG B   7      11.483   1.641  16.3030  0.00  0.00     0.000 O
ATOM    111  HD  NAG B   7      10.690   1.979  16.2210  0.00  0.00     0.000 HD
ENDBRANCH 95 98
ENDBRANCH 82 95
ENDBRANCH 81 85
ENDBRANCH 65 81
ENDBRANCH 64 67
ENDBRANCH 51 64
ENDBRANCH 50 54
ENDBRANCH 34 50
ENDBRANCH 33 36
ENDBRANCH 20 33
ENDBRANCH 19 23
ENDBRANCH 1 19
TORSDOF 19
ENDMDL
MODEL 87
REMARK VINA RESULT:      -3.1     10.908     21.114
ROOT
ATOM      1  C1  NAG B   1      13.256  18.497   7.5770  0.00  0.00     0.000 C
ATOM      2  C2  NAG B   1      13.844  17.354   6.7540  0.00  0.00     0.000 C
ATOM      3  C3  NAG B   1      15.241  17.671   6.2640  0.00  0.00     0.000 C
ATOM      4  C4  NAG B   1      15.108  18.959   5.4570  0.00  0.00     0.000 C
ATOM      5  C5  NAG B   1      14.640  20.088   6.3850  0.00  0.00     0.000 C
ATOM      6  O5  NAG B   1      13.348  19.789   6.9570  0.00  0.00     0.000 O
ATOM      7   O  NAG B   1      15.789  16.608   5.4510  0.00  0.00     0.000 O
ATOM      9  HD  NAG B   1      15.318  16.174   6.0340  0.00  0.00     0.000 HD
ATOM      9   O  NAG B   1      16.354  19.302   4.8750  0.00  0.00     0.000 O
ATOM     11  HD  NAG B   1      15.883  18.867   5.4580  0.00  0.00     0.000 HD
ATOM     11   C  NAG B   1      14.631  21.420   5.6250  0.00  0.00     0.000 C
ATOM     12   O  NAG B   1      13.648  22.310   6.1520  0.00  0.00     0.000 O
ATOM     14  HD  NAG B   1      13.177  21.875   6.7350  0.00  0.00     0.000 HD
ENDROOT
BRANCH 2 16
ATOM     14   N  NAG B   1      12.896  16.238   6.5820  0.00  0.00     0.000 N
ATOM     16  HD  NAG B   1      12.778  15.493   6.1560  0.00  0.00     0.000 HD
ATOM     16   C  NAG B   1      13.047  15.046   7.1850  0.00  0.00     0.000 C
ATOM     17   C  NAG B   1      14.244  14.795   8.0640  0.00  0.00     0.000 C
ATOM     18   O  NAG B   1      12.208  14.155   7.0570  0.00  0.00     0.000 OA
ENDBRANCH 2 16
BRANCH 1 19
ATOM     19  O4  BDP B   2      11.871  18.184   7.6240  0.00  0.00     0.000 O
BRANCH 19 23
ATOM     20  C1  BDP B   2      11.063  20.264  11.0830  0.00  0.00     0.000 C
ATOM     21  C2  BDP B   2      11.583  18.852  11.2530  0.00  0.00     0.000 C
ATOM     22  C3  BDP B   2      12.230  18.349   9.9820  0.00  0.00     0.000 C
ATOM     23  C4  BDP B   2      11.236  18.517   8.8360  0.00  0.00     0.000 C
ATOM     24  C5  BDP B   2      10.798  19.966   8.7560  0.00  0.00     0.000 C
ATOM     25  O5  BDP B   2      10.180  20.341   9.9720  0.00  0.00     0.000 O
ATOM     26   O  BDP B   2      12.512  18.797  12.3130  0.00  0.00     0.000 O
ATOM     28  HD  BDP B   2      12.180  19.587  12.4360  0.00  0.00     0.000 HD
ATOM     28   O  BDP B   2      12.622  16.979  10.1600  0.00  0.00     0.000 O
ATOM     30  HD  BDP B   2      12.289  17.769  10.2830  0.00  0.00     0.000 HD
BRANCH 24 30
ATOM     30   C  BDP B   2       9.817  20.197   7.6630  0.00  0.00     0.000 C
ATOM     31   O  BDP B   2       9.975  21.220   6.9570  0.00  0.00     0.000 OA
ATOM     32   O  BDP B   2       8.880  19.363   7.5100  0.00  0.00     0.000 OA
ENDBRANCH 24 30
BRANCH 20 33
ATOM     33  O3  NAG B   3      10.341  20.506  12.2650  0.00  0.00     0.000 O
BRANCH 33 36
ATOM     34  C1  NAG B   3      10.186  23.908  13.8630  0.00  0.00     0.000 C
ATOM     35  C2  NAG B   3      10.708  22.516  13.5650  0.00  0.00     0.000 C
ATOM     36  C3  NAG B   3       9.961  21.879  12.3820  0.00  0.00     0.000 C
ATOM     37  C4  NAG B   3       8.458  21.957  12.6340  0.00  0.00     0.000 C
ATOM     38  C5  NAG B   3       8.056  23.382  13.0080  0.00  0.00     0.000 C
ATOM     39  O5  NAG B   3       8.796  23.811  14.1380  0.00  0.00     0.000 O
ATOM     40   O  NAG B   3       7.741  21.553  11.4570  0.00  0.00     0.000 O
ATOM     42  HD  NAG B   3       7.364  22.324  11.5720  0.00  0.00     0.000 HD
ATOM     42   C  NAG B   3       6.589  23.526  13.4040  0.00  0.00     0.000 C
ATOM     43   O  NAG B   3       6.346  22.800  14.6150  0.00  0.00     0.000 O
ATOM     45  HD  NAG B   3       5.969  23.571  14.7300  0.00  0.00     0.000 HD
BRANCH 35 47
ATOM     45   N  NAG B   3      11.750  21.817  14.3080  0.00  0.00     0.000 N
ATOM     47  HD  NAG B   3      10.986  21.411  14.3420  0.00  0.00     0.000 HD
ATOM     47   C  NAG B   3      12.999  21.741  13.8930  0.00  0.00     0.000 C
ATOM     48   C  NAG B   3      13.940  20.967  14.7670  0.00  0.00     0.000 C
ATOM     49   O  NAG B   3      13.366  22.252  12.8370  0.00  0.00     0.000 OA
ENDBRANCH 35 47
BRANCH 34 50
ATOM     50  O4  BDP B   4      10.892  24.288  15.0250  0.00  0.00     0.000 O
BRANCH 50 54
ATOM     51  C1  BDP B   4      12.218  27.458  17.2050  0.00  0.00     0.000 C
ATOM     52  C2  BDP B   4      10.730  27.162  17.3600  0.00  0.00     0.000 C
ATOM     53  C3  BDP B   4      10.456  25.790  16.8260  0.00  0.00     0.000 C
ATOM     54  C4  BDP B   4      10.967  25.684  15.3610  0.00  0.00     0.000 C
ATOM     55  C5  BDP B   4      12.399  26.178  15.2100  0.00  0.00     0.000 C
ATOM     56  O5  BDP B   4      12.555  27.452  15.8290  0.00  0.00     0.000 O
ATOM     57   O  BDP B   4      10.359  27.217  18.7210  0.00  0.00     0.000 O
ATOM     59  HD  BDP B   4       9.955  27.979  18.8060  0.00  0.00     0.000 HD
ATOM     59   O  BDP B   4       9.023  25.623  16.8110  0.00  0.00     0.000 O
ATOM     61  HD  BDP B   4       8.619  26.385  16.8960  0.00  0.00     0.000 HD
BRANCH 55 61
ATOM     61   C  BDP B   4      12.735  26.298  13.7340  0.00  0.00     0.000 C
ATOM     62   O  BDP B   4      13.601  25.516  13.2600  0.00  0.00     0.000 OA
ATOM     63   O  BDP B   4      12.127  27.175  13.0480  0.00  0.00     0.000 OA
ENDBRANCH 55 61
BRANCH 51 64
ATOM     64  O3  NAG B   5      12.458  28.754  17.7850  0.00  0.00     0.000 O
BRANCH 64 67
ATOM     65  C1  NAG B   5      15.544  29.523  19.6500  0.00  0.00     0.000 C
ATOM     66  C2  NAG B   5      14.143  28.996  19.3910  0.00  0.00     0.000 C
ATOM     67  C3  NAG B   5      13.836  29.052  17.9000  0.00  0.00     0.000 C
ATOM     68  C4  NAG B   5      14.105  30.453  17.3340  0.00  0.00     0.000 C
ATOM     69  C5  NAG B   5      15.495  30.931  17.7230  0.00  0.00     0.000 C
ATOM     70  O5  NAG B   5      15.666  30.832  19.1450  0.00  0.00     0.000 O
ATOM     71   O  NAG B   5      13.953  30.410  15.9320  0.00  0.00     0.000 O
ATOM     73  HD  NAG B   5      13.550  31.164  16.0740  0.00  0.00     0.000 HD
ATOM     73   C  NAG B   5      15.805  32.376  17.3080  0.00  0.00     0.000 C
ATOM     74   O  NAG B   5      14.923  33.280  18.0050  0.00  0.00     0.000 O
ATOM     76  HD  NAG B   5      14.520  34.033  18.1470  0.00  0.00     0.000 HD
BRANCH 66 78
ATOM     76   N  NAG B   5      14.185  27.683  20.0630  0.00  0.00     0.000 N
ATOM     78  HD  NAG B   5      13.677  28.384  20.0670  0.00  0.00     0.000 HD
ATOM     78   C  NAG B   5      13.202  27.141  20.7990  0.00  0.00     0.000 C
ATOM     79   C  NAG B   5      13.538  25.777  21.3390  0.00  0.00     0.000 C
ATOM     80   O  NAG B   5      12.087  27.733  21.0280  0.00  0.00     0.000 OA
ENDBRANCH 66 78
BRANCH 65 81
ATOM     81  O4  BDP B   6      15.821  29.515  21.0570  0.00  0.00     0.000 O
BRANCH 81 85
ATOM     82  C1  BDP B   6      19.180  29.544  23.7170  0.00  0.00     0.000 C
ATOM     83  C2  BDP B   6      18.680  30.889  23.1980  0.00  0.00     0.000 C
ATOM     84  C3  BDP B   6      17.269  30.812  22.6080  0.00  0.00     0.000 C
ATOM     85  C4  BDP B   6      17.142  29.693  21.5730  0.00  0.00     0.000 C
ATOM     86  C5  BDP B   6      17.709  28.397  22.2010  0.00  0.00     0.000 C
ATOM     87  O5  BDP B   6      19.080  28.579  22.6800  0.00  0.00     0.000 O
ATOM     88   O  BDP B   6      18.678  31.756  24.3280  0.00  0.00     0.000 O
ATOM     90  HD  BDP B   6      18.191  32.370  24.6980  0.00  0.00     0.000 HD
ATOM     90   O  BDP B   6      16.917  32.077  22.0420  0.00  0.00     0.000 O
ATOM     92  HD  BDP B   6      16.430  32.691  22.4110  0.00  0.00     0.000 HD
BRANCH 86 92
ATOM     92   C  BDP B   6      17.833  27.314  21.1570  0.00  0.00     0.000 C
ATOM     93   O  BDP B   6      16.928  26.431  21.0630  0.00  0.00     0.000 OA
ATOM     94   O  BDP B   6      18.847  27.349  20.3930  0.00  0.00     0.000 OA
ENDBRANCH 86 92
BRANCH 82 95
ATOM     95  O3  NAG B   7      20.573  29.680  24.0630  0.00  0.00     0.000 O
BRANCH 95 98
ATOM     96  C1  NAG B   7      22.727  29.442  27.0020  0.00  0.00     0.000 C
ATOM     97  C2  NAG B   7      22.269  29.973  25.6510  0.00  0.00     0.000 C
ATOM     98  C3  NAG B   7      21.038  29.140  25.2980  0.00  0.00     0.000 C
ATOM     99  C4  NAG B   7      21.417  27.663  25.2190  0.00  0.00     0.000 C
ATOM    100  C5  NAG B   7      22.107  27.206  26.5050  0.00  0.00     0.000 C
ATOM    101  O5  NAG B   7      23.173  28.096  26.7970  0.00  0.00     0.000 O
BRANCH 97 104
ATOM    102   N  NAG B   7      21.783  31.359  25.5990  0.00  0.00     0.000 N
ATOM    104  HD  NAG B   7      21.283  32.055  25.4750  0.00  0.00     0.000 HD
ATOM    104   O  NAG B   7      21.730  33.521  24.9270  0.00  0.00     0.000 OA
ATOM    105   C  NAG B   7      22.290  32.407  24.9220  0.00  0.00     0.000 C
ATOM    106   C  NAG B   7      23.543  32.224  24.1360  0.00  0.00     0.000 C
ENDBRANCH 97 104
ATOM    107   O  NAG B   7      22.936  25.330  27.6430  0.00  0.00     0.000 O
ATOM    109  HD  NAG B   7      22.513  26.080  27.7290  0.00  0.00     0.000 HD
ATOM    109   O  NAG B   7      22.936  25.330  27.6430  0.00  0.00     0.000 O
ATOM    111  HD  NAG B   7      22.513  26.080  27.7290  0.00  0.00     0.000 HD
ENDBRANCH 95 98
ENDBRANCH 82 95
ENDBRANCH 81 85
ENDBRANCH 65 81
ENDBRANCH 64 67
ENDBRANCH 51 64
ENDBRANCH 50 54
ENDBRANCH 34 50
ENDBRANCH 33 36
ENDBRANCH 20 33
ENDBRANCH 19 23
ENDBRANCH 1 19
TORSDOF 19
ENDMDL
MODEL 88
REMARK VINA RESULT:      -3.1     10.515     15.635
ROOT
ATOM      1  C1  NAG B   1      21.480  10.523  25.9560  0.00  0.00     0.000 C
ATOM      2  C2  NAG B   1      21.125   9.352  26.8680  0.00  0.00     0.000 C
ATOM      3  C3  NAG B   1      21.779   9.478  28.2290  0.00  0.00     0.000 C
ATOM      4  C4  NAG B   1      23.277   9.569  27.9550  0.00  0.00     0.000 C
ATOM      5  C5  NAG B   1      23.564  10.841  27.1470  0.00  0.00     0.000 C
ATOM      6  O5  NAG B   1      22.884  10.814  25.8740  0.00  0.00     0.000 O
ATOM      7   O  NAG B   1      21.479   8.352  29.0850  0.00  0.00     0.000 O
ATOM      9  HD  NAG B   1      20.746   8.444  28.6340  0.00  0.00     0.000 HD
ATOM      9   O  NAG B   1      23.995   9.604  29.1770  0.00  0.00     0.000 O
ATOM     11  HD  NAG B   1      23.262   9.696  28.7260  0.00  0.00     0.000 HD
ATOM     11   C  NAG B   1      25.078  11.024  26.9790  0.00  0.00     0.000 C
ATOM     12   O  NAG B   1      25.384  11.725  25.7750  0.00  0.00     0.000 O
ATOM     14  HD  NAG B   1      24.650  11.817  25.3240  0.00  0.00     0.000 HD
ENDROOT
BRANCH 2 16
ATOM     14   N  NAG B   1      19.658   9.295  26.7460  0.00  0.00     0.000 N
ATOM     16  HD  NAG B   1      19.015   9.265  26.1670  0.00  0.00     0.000 HD
ATOM     16   C  NAG B   1      18.985   8.159  26.4950  0.00  0.00     0.000 C
ATOM     17   C  NAG B   1      19.735   6.869  26.2970  0.00  0.00     0.000 C
ATOM     18   O  NAG B   1      17.755   8.142  26.4500  0.00  0.00     0.000 OA
ENDBRANCH 2 16
BRANCH 1 19
ATOM     19  O4  BDP B   2      21.101  10.056  24.6680  0.00  0.00     0.000 O
BRANCH 19 23
ATOM     20  C1  BDP B   2      20.417  11.837  21.0210  0.00  0.00     0.000 C
ATOM     21  C2  BDP B   2      21.850  11.456  21.3250  0.00  0.00     0.000 C
ATOM     22  C3  BDP B   2      21.924  10.460  22.4600  0.00  0.00     0.000 C
ATOM     23  C4  BDP B   2      21.160  11.029  23.6530  0.00  0.00     0.000 C
ATOM     24  C5  BDP B   2      19.742  11.361  23.2320  0.00  0.00     0.000 C
ATOM     25  O5  BDP B   2      19.768  12.318  22.1900  0.00  0.00     0.000 O
ATOM     26   O  BDP B   2      22.467  10.915  20.1770  0.00  0.00     0.000 O
ATOM     28  HD  BDP B   2      21.742  11.237  19.8290  0.00  0.00     0.000 HD
ATOM     28   O  BDP B   2      23.301  10.200  22.7740  0.00  0.00     0.000 O
ATOM     30  HD  BDP B   2      22.576  10.523  22.4270  0.00  0.00     0.000 HD
BRANCH 24 30
ATOM     30   C  BDP B   2      18.944  11.933  24.3490  0.00  0.00     0.000 C
ATOM     31   O  BDP B   2      19.250  13.082  24.7430  0.00  0.00     0.000 OA
ATOM     32   O  BDP B   2      18.014  11.234  24.8420  0.00  0.00     0.000 OA
ENDBRANCH 24 30
BRANCH 20 33
ATOM     33  O3  NAG B   3      20.533  12.888  20.0930  0.00  0.00     0.000 O
BRANCH 33 36
ATOM     34  C1  NAG B   3      18.070  13.399  17.2960  0.00  0.00     0.000 C
ATOM     35  C2  NAG B   3      19.304  12.875  18.0070  0.00  0.00     0.000 C
ATOM     36  C3  NAG B   3      19.272  13.217  19.5050  0.00  0.00     0.000 C
ATOM     37  C4  NAG B   3      19.022  14.713  19.6770  0.00  0.00     0.000 C
ATOM     38  C5  NAG B   3      17.812  15.145  18.8530  0.00  0.00     0.000 C
ATOM     39  O5  NAG B   3      18.008  14.804  17.4910  0.00  0.00     0.000 O
ATOM     40   O  NAG B   3      18.790  15.015  21.0620  0.00  0.00     0.000 O
ATOM     42  HD  NAG B   3      18.071  15.371  20.7350  0.00  0.00     0.000 HD
ATOM     42   C  NAG B   3      17.565  16.652  18.8630  0.00  0.00     0.000 C
ATOM     43   O  NAG B   3      18.651  17.319  18.2070  0.00  0.00     0.000 O
ATOM     45  HD  NAG B   3      17.932  17.675  17.8810  0.00  0.00     0.000 HD
BRANCH 35 47
ATOM     45   N  NAG B   3      19.409  11.457  17.6890  0.00  0.00     0.000 N
ATOM     47  HD  NAG B   3      18.700  11.823  17.3510  0.00  0.00     0.000 HD
ATOM     47   C  NAG B   3      20.556  10.866  17.4180  0.00  0.00     0.000 C
ATOM     48   C  NAG B   3      20.484   9.404  17.0920  0.00  0.00     0.000 C
ATOM     49   O  NAG B   3      21.619  11.482  17.4080  0.00  0.00     0.000 OA
ENDBRANCH 35 47
BRANCH 34 50
ATOM     50  O4  BDP B   4      18.317  13.102  15.9370  0.00  0.00     0.000 O
BRANCH 50 54
ATOM     51  C1  BDP B   4      16.533  12.172  12.4010  0.00  0.00     0.000 C
ATOM     52  C2  BDP B   4      16.616  13.666  12.6930  0.00  0.00     0.000 C
ATOM     53  C3  BDP B   4      17.601  13.884  13.8010  0.00  0.00     0.000 C
ATOM     54  C4  BDP B   4      17.200  13.025  15.0350  0.00  0.00     0.000 C
ATOM     55  C5  BDP B   4      16.930  11.572  14.6660  0.00  0.00     0.000 C
ATOM     56  O5  BDP B   4      16.049  11.498  13.5480  0.00  0.00     0.000 O
ATOM     57   O  BDP B   4      17.043  14.367  11.5440  0.00  0.00     0.000 O
ATOM     59  HD  BDP B   4      16.322  14.729  11.2290  0.00  0.00     0.000 HD
ATOM     59   O  BDP B   4      17.509  15.273  14.1780  0.00  0.00     0.000 O
ATOM     61  HD  BDP B   4      16.788  15.635  13.8630  0.00  0.00     0.000 HD
BRANCH 55 61
ATOM     61   C  BDP B   4      16.294  10.866  15.8500  0.00  0.00     0.000 C
ATOM     62   O  BDP B   4      16.968   9.983  16.4430  0.00  0.00     0.000 OA
ATOM     63   O  BDP B   4      15.116  11.198  16.1870  0.00  0.00     0.000 OA
ENDBRANCH 55 61
BRANCH 51 64
ATOM     64  O3  NAG B   5      15.629  12.004  11.2910  0.00  0.00     0.000 O
BRANCH 64 67
ATOM     65  C1  NAG B   5      16.019   9.004   9.1840  0.00  0.00     0.000 C
ATOM     66  C2  NAG B   5      16.329  10.372   9.7670  0.00  0.00     0.000 C
ATOM     67  C3  NAG B   5      15.422  10.645  10.9590  0.00  0.00     0.000 C
ATOM     68  C4  NAG B   5      13.948  10.428  10.5910  0.00  0.00     0.000 C
ATOM     69  C5  NAG B   5      13.752   9.072   9.9320  0.00  0.00     0.000 C
ATOM     70  O5  NAG B   5      14.658   8.931   8.8270  0.00  0.00     0.000 O
ATOM     71   O  NAG B   5      13.168  10.545  11.7620  0.00  0.00     0.000 O
ATOM     73  HD  NAG B   5      12.649  10.986  11.2280  0.00  0.00     0.000 HD
ATOM     73   C  NAG B   5      12.329   8.820   9.4140  0.00  0.00     0.000 C
ATOM     74   O  NAG B   5      12.023   9.761   8.3640  0.00  0.00     0.000 O
ATOM     76  HD  NAG B   5      11.504  10.202   7.8300  0.00  0.00     0.000 HD
BRANCH 66 78
ATOM     76   N  NAG B   5      17.795  10.260   9.9000  0.00  0.00     0.000 N
ATOM     78  HD  NAG B   5      17.224  10.844   9.6110  0.00  0.00     0.000 HD
ATOM     78   C  NAG B   5      18.679  11.258   9.7460  0.00  0.00     0.000 C
ATOM     79   C  NAG B   5      20.106  10.834   9.9650  0.00  0.00     0.000 C
ATOM     80   O  NAG B   5      18.342  12.455   9.4340  0.00  0.00     0.000 OA
ENDBRANCH 66 78
BRANCH 65 81
ATOM     81  O4  BDP B   6      16.838   8.761   8.0330  0.00  0.00     0.000 O
BRANCH 81 85
ATOM     82  C1  BDP B   6      18.590   5.423   5.9960  0.00  0.00     0.000 C
ATOM     83  C2  BDP B   6      17.248   5.937   5.4830  0.00  0.00     0.000 C
ATOM     84  C3  BDP B   6      16.915   7.342   5.9910  0.00  0.00     0.000 C
ATOM     85  C4  BDP B   6      17.047   7.446   7.5120  0.00  0.00     0.000 C
ATOM     86  C5  BDP B   6      18.425   6.866   7.9110  0.00  0.00     0.000 C
ATOM     87  O5  BDP B   6      18.607   5.501   7.4140  0.00  0.00     0.000 O
ATOM     88   O  BDP B   6      17.367   5.960   4.0630  0.00  0.00     0.000 O
ATOM     90  HD  BDP B   6      17.164   6.458   3.3840  0.00  0.00     0.000 HD
ATOM     90   O  BDP B   6      15.601   7.708   5.5650  0.00  0.00     0.000 O
ATOM     92  HD  BDP B   6      15.398   8.206   4.8860  0.00  0.00     0.000 HD
BRANCH 86 92
ATOM     92   C  BDP B   6      18.524   6.719   9.4100  0.00  0.00     0.000 C
ATOM     93   O  BDP B   6      19.256   7.518  10.0690  0.00  0.00     0.000 OA
ATOM     94   O  BDP B   6      17.840   5.798   9.9550  0.00  0.00     0.000 OA
ENDBRANCH 86 92
BRANCH 82 95
ATOM     95  O3  NAG B   7      18.715   4.035   5.6280  0.00  0.00     0.000 O
BRANCH 95 98
ATOM     96  C1  NAG B   7      20.806   1.918   3.5100  0.00  0.00     0.000 C
ATOM     97  C2  NAG B   7      19.524   2.364   4.2010  0.00  0.00     0.000 C
ATOM     98  C3  NAG B   7      19.929   3.581   5.0310  0.00  0.00     0.000 C
ATOM     99  C4  NAG B   7      21.001   3.186   6.0430  0.00  0.00     0.000 C
ATOM    100  C5  NAG B   7      22.184   2.509   5.3490  0.00  0.00     0.000 C
ATOM    101  O5  NAG B   7      21.697   1.456   4.5320  0.00  0.00     0.000 O
BRANCH 97 104
ATOM    102   N  NAG B   7      18.442   2.848   3.3340  0.00  0.00     0.000 N
ATOM    104  HD  NAG B   7      17.843   3.352   2.9640  0.00  0.00     0.000 HD
ATOM    104   O  NAG B   7      16.354   2.927   2.4590  0.00  0.00     0.000 OA
ATOM    105   C  NAG B   7      17.190   2.371   3.1980  0.00  0.00     0.000 C
ATOM    106   C  NAG B   7      16.792   1.155   3.9620  0.00  0.00     0.000 C
ENDBRANCH 97 104
ATOM    107   O  NAG B   7      24.351   1.676   5.6870  0.00  0.00     0.000 O
ATOM    109  HD  NAG B   7      23.836   2.109   5.1420  0.00  0.00     0.000 HD
ATOM    109   O  NAG B   7      24.351   1.676   5.6870  0.00  0.00     0.000 O
ATOM    111  HD  NAG B   7      23.836   2.109   5.1420  0.00  0.00     0.000 HD
ENDBRANCH 95 98
ENDBRANCH 82 95
ENDBRANCH 81 85
ENDBRANCH 65 81
ENDBRANCH 64 67
ENDBRANCH 51 64
ENDBRANCH 50 54
ENDBRANCH 34 50
ENDBRANCH 33 36
ENDBRANCH 20 33
ENDBRANCH 19 23
ENDBRANCH 1 19
TORSDOF 19
ENDMDL
MODEL 89
REMARK VINA RESULT:      -3.1      5.877     18.314
ROOT
ATOM      1  C1  NAG B   1      25.090  17.805   1.5240  0.00  0.00     0.000 C
ATOM      2  C2  NAG B   1      25.953  19.051   1.6980  0.00  0.00     0.000 C
ATOM      3  C3  NAG B   1      27.432  18.722   1.6690  0.00  0.00     0.000 C
ATOM      4  C4  NAG B   1      27.646  17.706   2.7870  0.00  0.00     0.000 C
ATOM      5  C5  NAG B   1      26.849  16.434   2.4700  0.00  0.00     0.000 C
ATOM      6  O5  NAG B   1      25.435  16.712   2.3910  0.00  0.00     0.000 O
ATOM      7   O  NAG B   1      28.255  19.893   1.8730  0.00  0.00     0.000 O
ATOM      9  HD  NAG B   1      27.585  20.212   1.4250  0.00  0.00     0.000 HD
ATOM      9   O  NAG B   1      29.024  17.393   2.9050  0.00  0.00     0.000 O
ATOM     11  HD  NAG B   1      28.354  17.711   2.4570  0.00  0.00     0.000 HD
ATOM     11   C  NAG B   1      27.158  15.350   3.5090  0.00  0.00     0.000 C
ATOM     12   O  NAG B   1      26.052  14.465   3.6790  0.00  0.00     0.000 O
ATOM     14  HD  NAG B   1      25.382  14.783   3.2320  0.00  0.00     0.000 HD
ENDROOT
BRANCH 2 16
ATOM     14   N  NAG B   1      25.440  19.996   0.6910  0.00  0.00     0.000 N
ATOM     16  HD  NAG B   1      24.708  20.328   0.3670  0.00  0.00     0.000 HD
ATOM     16   C  NAG B   1      25.035  21.242   0.9910  0.00  0.00     0.000 C
ATOM     17   C  NAG B   1      25.069  21.720   2.4190  0.00  0.00     0.000 C
ATOM     18   O  NAG B   1      24.659  22.020   0.1150  0.00  0.00     0.000 OA
ENDBRANCH 2 16
BRANCH 1 19
ATOM     19  O4  BDP B   2      23.803  18.242   1.9380  0.00  0.00     0.000 O
BRANCH 19 23
ATOM     20  C1  BDP B   2      21.110  17.158   4.8560  0.00  0.00     0.000 C
ATOM     21  C2  BDP B   2      22.406  17.779   5.3340  0.00  0.00     0.000 C
ATOM     22  C3  BDP B   2      23.112  18.505   4.2120  0.00  0.00     0.000 C
ATOM     23  C4  BDP B   2      23.273  17.542   3.0390  0.00  0.00     0.000 C
ATOM     24  C5  BDP B   2      21.915  16.997   2.6440  0.00  0.00     0.000 C
ATOM     25  O5  BDP B   2      21.343  16.310   3.7400  0.00  0.00     0.000 O
ATOM     26   O  BDP B   2      22.158  18.673   6.3970  0.00  0.00     0.000 O
ATOM     28  HD  BDP B   2      21.390  18.277   6.3430  0.00  0.00     0.000 HD
ATOM     28   O  BDP B   2      24.376  18.995   4.6860  0.00  0.00     0.000 O
ATOM     30  HD  BDP B   2      23.608  18.599   4.6310  0.00  0.00     0.000 HD
BRANCH 24 30
ATOM     30   C  BDP B   2      22.002  16.039   1.5100  0.00  0.00     0.000 C
ATOM     31   O  BDP B   2      21.432  16.361   0.4420  0.00  0.00     0.000 OA
ATOM     32   O  BDP B   2      22.634  14.958   1.6830  0.00  0.00     0.000 OA
ENDBRANCH 24 30
BRANCH 20 33
ATOM     33  O3  NAG B   3      20.683  16.380   5.9470  0.00  0.00     0.000 O
BRANCH 33 36
ATOM     34  C1  NAG B   3      17.010  15.885   6.5950  0.00  0.00     0.000 C
ATOM     35  C2  NAG B   3      18.367  16.563   6.6300  0.00  0.00     0.000 C
ATOM     36  C3  NAG B   3      19.378  15.835   5.7310  0.00  0.00     0.000 C
ATOM     37  C4  NAG B   3      19.397  14.351   6.0880  0.00  0.00     0.000 C
ATOM     38  C5  NAG B   3      17.976  13.794   6.1070  0.00  0.00     0.000 C
ATOM     39  O5  NAG B   3      17.177  14.537   7.0120  0.00  0.00     0.000 O
ATOM     40   O  NAG B   3      20.182  13.625   5.1300  0.00  0.00     0.000 O
ATOM     42  HD  NAG B   3      19.454  13.160   5.0710  0.00  0.00     0.000 HD
ATOM     42   C  NAG B   3      17.887  12.346   6.5820  0.00  0.00     0.000 C
ATOM     43   O  NAG B   3      18.276  12.269   7.9590  0.00  0.00     0.000 O
ATOM     45  HD  NAG B   3      17.548  11.804   7.9000  0.00  0.00     0.000 HD
BRANCH 35 47
ATOM     45   N  NAG B   3      18.715  17.727   7.4340  0.00  0.00     0.000 N
ATOM     47  HD  NAG B   3      19.174  17.025   7.6490  0.00  0.00     0.000 HD
ATOM     47   C  NAG B   3      18.772  18.948   6.9420  0.00  0.00     0.000 C
ATOM     48   C  NAG B   3      19.166  20.031   7.9020  0.00  0.00     0.000 C
ATOM     49   O  NAG B   3      18.542  19.184   5.7580  0.00  0.00     0.000 OA
ENDBRANCH 35 47
BRANCH 34 50
ATOM     50  O4  BDP B   4      16.253  16.604   7.5460  0.00  0.00     0.000 O
BRANCH 50 54
ATOM     51  C1  BDP B   4      12.477  17.707   8.5810  0.00  0.00     0.000 C
ATOM     52  C2  BDP B   4      12.901  16.339   9.1040  0.00  0.00     0.000 C
ATOM     53  C3  BDP B   4      14.389  16.221   8.9840  0.00  0.00     0.000 C
ATOM     54  C4  BDP B   4      14.821  16.492   7.5140  0.00  0.00     0.000 C
ATOM     55  C5  BDP B   4      14.212  17.772   6.9580  0.00  0.00     0.000 C
ATOM     56  O5  BDP B   4      12.810  17.806   7.2090  0.00  0.00     0.000 O
ATOM     57   O  BDP B   4      12.528  16.195  10.4590  0.00  0.00     0.000 O
ATOM     59  HD  BDP B   4      11.828  15.686  10.4390  0.00  0.00     0.000 HD
ATOM     59   O  BDP B   4      14.729  14.856   9.3030  0.00  0.00     0.000 O
ATOM     61  HD  BDP B   4      14.029  14.347   9.2840  0.00  0.00     0.000 HD
BRANCH 55 61
ATOM     61   C  BDP B   4      14.453  17.832   5.4610  0.00  0.00     0.000 C
ATOM     62   O  BDP B   4      15.336  18.623   5.0360  0.00  0.00     0.000 OA
ATOM     63   O  BDP B   4      13.757  17.083   4.7090  0.00  0.00     0.000 OA
ENDBRANCH 55 61
BRANCH 51 64
ATOM     64  O3  NAG B   5      11.052  17.813   8.7710  0.00  0.00     0.000 O
BRANCH 64 67
ATOM     65  C1  NAG B   5       9.359  21.081   8.9910  0.00  0.00     0.000 C
ATOM     66  C2  NAG B   5      10.150  19.866   9.4430  0.00  0.00     0.000 C
ATOM     67  C3  NAG B   5      10.521  19.011   8.2380  0.00  0.00     0.000 C
ATOM     68  C4  NAG B   5       9.283  18.687   7.3900  0.00  0.00     0.000 C
ATOM     69  C5  NAG B   5       8.507  19.954   7.0660  0.00  0.00     0.000 C
ATOM     70  O5  NAG B   5       8.217  20.672   8.2740  0.00  0.00     0.000 O
ATOM     71   O  NAG B   5       9.700  18.028   6.2140  0.00  0.00     0.000 O
ATOM     73  HD  NAG B   5       9.009  17.536   6.3890  0.00  0.00     0.000 HD
ATOM     73   C  NAG B   5       7.183  19.713   6.3280  0.00  0.00     0.000 C
ATOM     74   O  NAG B   5       6.285  18.968   7.1760  0.00  0.00     0.000 O
ATOM     76  HD  NAG B   5       5.594  18.476   7.3500  0.00  0.00     0.000 HD
BRANCH 66 78
ATOM     76   N  NAG B   5      10.523  19.722  10.8630  0.00  0.00     0.000 N
ATOM     78  HD  NAG B   5      10.924  19.878  10.1120  0.00  0.00     0.000 HD
ATOM     78   C  NAG B   5      11.716  20.024  11.4010  0.00  0.00     0.000 C
ATOM     79   C  NAG B   5      11.783  19.786  12.8850  0.00  0.00     0.000 C
ATOM     80   O  NAG B   5      12.705  20.465  10.7130  0.00  0.00     0.000 OA
ENDBRANCH 66 78
BRANCH 65 81
ATOM     81  O4  BDP B   6       8.968  21.865  10.1250  0.00  0.00     0.000 O
BRANCH 81 85
ATOM     82  C1  BDP B   6       8.299  25.946  11.2490  0.00  0.00     0.000 C
ATOM     83  C2  BDP B   6       7.385  25.349  10.1820  0.00  0.00     0.000 C
ATOM     84  C3  BDP B   6       7.429  23.819  10.1490  0.00  0.00     0.000 C
ATOM     85  C4  BDP B   6       8.862  23.289  10.0660  0.00  0.00     0.000 C
ATOM     86  C5  BDP B   6       9.693  23.990  11.1670  0.00  0.00     0.000 C
ATOM     87  O5  BDP B   6       9.616  25.448  11.0650  0.00  0.00     0.000 O
ATOM     88   O  BDP B   6       6.070  25.781  10.5210  0.00  0.00     0.000 O
ATOM     90  HD  BDP B   6       5.259  25.481  10.5620  0.00  0.00     0.000 HD
ATOM     90   O  BDP B   6       6.642  23.340   9.0560  0.00  0.00     0.000 O
ATOM     92  HD  BDP B   6       5.830  23.040   9.0960  0.00  0.00     0.000 HD
BRANCH 86 92
ATOM     92   C  BDP B   6      11.163  23.694  10.9910  0.00  0.00     0.000 C
ATOM     93   O  BDP B   6      11.877  23.449  12.0110  0.00  0.00     0.000 OA
ATOM     94   O  BDP B   6      11.620  23.681   9.8060  0.00  0.00     0.000 OA
ENDBRANCH 86 92
BRANCH 82 95
ATOM     95  O3  NAG B   7       8.336  27.375  11.0660  0.00  0.00     0.000 O
BRANCH 95 98
ATOM     96  C1  NAG B   7       8.434  30.112  13.4820  0.00  0.00     0.000 C
ATOM     97  C2  NAG B   7       7.861  29.279  12.3430  0.00  0.00     0.000 C
ATOM     98  C3  NAG B   7       8.903  28.192  12.0890  0.00  0.00     0.000 C
ATOM     99  C4  NAG B   7      10.234  28.829  11.7000  0.00  0.00     0.000 C
ATOM    100  C5  NAG B   7      10.675  29.855  12.7450  0.00  0.00     0.000 C
ATOM    101  O5  NAG B   7       9.608  30.761  12.9800  0.00  0.00     0.000 O
BRANCH 97 104
ATOM    102   N  NAG B   7       6.508  28.829  11.9880  0.00  0.00     0.000 N
ATOM    104  HD  NAG B   7       5.679  28.823  11.7390  0.00  0.00     0.000 HD
ATOM    104   O  NAG B   7       4.467  27.907  12.3250  0.00  0.00     0.000 OA
ATOM    105   C  NAG B   7       5.609  28.173  12.7470  0.00  0.00     0.000 C
ATOM    106   C  NAG B   7       5.987  27.769  14.1310  0.00  0.00     0.000 C
ENDBRANCH 97 104
ATOM    107   O  NAG B   7      12.438  31.263  13.3870  0.00  0.00     0.000 O
ATOM    109  HD  NAG B   7      11.820  30.728  13.6720  0.00  0.00     0.000 HD
ATOM    109   O  NAG B   7      12.438  31.263  13.3870  0.00  0.00     0.000 O
ATOM    111  HD  NAG B   7      11.820  30.728  13.6720  0.00  0.00     0.000 HD
ENDBRANCH 95 98
ENDBRANCH 82 95
ENDBRANCH 81 85
ENDBRANCH 65 81
ENDBRANCH 64 67
ENDBRANCH 51 64
ENDBRANCH 50 54
ENDBRANCH 34 50
ENDBRANCH 33 36
ENDBRANCH 20 33
ENDBRANCH 19 23
ENDBRANCH 1 19
TORSDOF 19
ENDMDL
MODEL 90
REMARK VINA RESULT:      -3.0     12.815     19.642
ROOT
ATOM      1  C1  NAG B   1      16.352   2.773  23.2000  0.00  0.00     0.000 C
ATOM      2  C2  NAG B   1      17.417   2.399  24.2260  0.00  0.00     0.000 C
ATOM      3  C3  NAG B   1      18.588   3.361  24.2000  0.00  0.00     0.000 C
ATOM      4  C4  NAG B   1      19.118   3.320  22.7710  0.00  0.00     0.000 C
ATOM      5  C5  NAG B   1      18.033   3.834  21.8170  0.00  0.00     0.000 C
ATOM      6  O5  NAG B   1      16.853   3.004  21.8740  0.00  0.00     0.000 O
ATOM      7   O  NAG B   1      19.619   2.991  25.1440  0.00  0.00     0.000 O
ATOM      9  HD  NAG B   1      18.895   2.758  25.5580  0.00  0.00     0.000 HD
ATOM      9   O  NAG B   1      20.279   4.126  22.6580  0.00  0.00     0.000 O
ATOM     11  HD  NAG B   1      19.555   3.893  23.0720  0.00  0.00     0.000 HD
ATOM     11   C  NAG B   1      18.592   3.930  20.3910  0.00  0.00     0.000 C
ATOM     12   O  NAG B   1      17.563   3.752  19.4190  0.00  0.00     0.000 O
ATOM     14  HD  NAG B   1      16.839   3.520  19.8330  0.00  0.00     0.000 HD
ENDROOT
BRANCH 2 16
ATOM     14   N  NAG B   1      17.091   1.164  24.9600  0.00  0.00     0.000 N
ATOM     16  HD  NAG B   1      17.416   0.587  25.5190  0.00  0.00     0.000 HD
ATOM     16   C  NAG B   1      16.729   1.152  26.2550  0.00  0.00     0.000 C
ATOM     17   C  NAG B   1      16.670   2.441  27.0310  0.00  0.00     0.000 C
ATOM     18   O  NAG B   1      16.416   0.104  26.8200  0.00  0.00     0.000 OA
ENDBRANCH 2 16
BRANCH 1 19
ATOM     19  O4  BDP B   2      15.555   1.599  23.1180  0.00  0.00     0.000 O
BRANCH 19 23
ATOM     20  C1  BDP B   2      12.154   3.526  21.8300  0.00  0.00     0.000 C
ATOM     21  C2  BDP B   2      12.330   3.401  23.3290  0.00  0.00     0.000 C
ATOM     22  C3  BDP B   2      13.762   3.073  23.6870  0.00  0.00     0.000 C
ATOM     23  C4  BDP B   2      14.185   1.835  22.9020  0.00  0.00     0.000 C
ATOM     24  C5  BDP B   2      13.975   2.081  21.4210  0.00  0.00     0.000 C
ATOM     25  O5  BDP B   2      12.608   2.350  21.1740  0.00  0.00     0.000 O
ATOM     26   O  BDP B   2      11.942   4.598  23.9690  0.00  0.00     0.000 O
ATOM     28  HD  BDP B   2      11.637   4.740  23.1710  0.00  0.00     0.000 HD
ATOM     28   O  BDP B   2      13.861   2.873  25.1060  0.00  0.00     0.000 O
ATOM     30  HD  BDP B   2      13.557   3.015  24.3080  0.00  0.00     0.000 HD
BRANCH 24 30
ATOM     30   C  BDP B   2      14.358   0.905  20.5960  0.00  0.00     0.000 C
ATOM     31   O  BDP B   2      13.745  -0.167  20.8050  0.00  0.00     0.000 OA
ATOM     32   O  BDP B   2      15.279   1.045  19.7410  0.00  0.00     0.000 OA
ENDBRANCH 24 30
BRANCH 20 33
ATOM     33  O3  NAG B   3      10.762   3.642  21.6600  0.00  0.00     0.000 O
BRANCH 33 36
ATOM     34  C1  NAG B   3       9.553   4.947  18.3450  0.00  0.00     0.000 C
ATOM     35  C2  NAG B   3      10.153   4.983  19.7380  0.00  0.00     0.000 C
ATOM     36  C3  NAG B   3      10.390   3.565  20.2820  0.00  0.00     0.000 C
ATOM     37  C4  NAG B   3       9.101   2.756  20.1620  0.00  0.00     0.000 C
ATOM     38  C5  NAG B   3       8.540   2.859  18.7460  0.00  0.00     0.000 C
ATOM     39  O5  NAG B   3       8.334   4.220  18.4060  0.00  0.00     0.000 O
ATOM     40   O  NAG B   3       9.355   1.378  20.4760  0.00  0.00     0.000 O
ATOM     42  HD  NAG B   3       8.990   1.263  19.6990  0.00  0.00     0.000 HD
ATOM     42   C  NAG B   3       7.181   2.187  18.5700  0.00  0.00     0.000 C
ATOM     43   O  NAG B   3       6.199   2.878  19.3510  0.00  0.00     0.000 O
ATOM     45  HD  NAG B   3       5.835   2.762  18.5740  0.00  0.00     0.000 HD
BRANCH 35 47
ATOM     45   N  NAG B   3      10.463   6.124  20.5900  0.00  0.00     0.000 N
ATOM     47  HD  NAG B   3       9.944   5.549  20.9780  0.00  0.00     0.000 HD
ATOM     47   C  NAG B   3      11.648   6.701  20.6120  0.00  0.00     0.000 C
ATOM     48   C  NAG B   3      11.804   7.852  21.5620  0.00  0.00     0.000 C
ATOM     49   O  NAG B   3      12.580   6.303  19.9160  0.00  0.00     0.000 OA
ENDBRANCH 35 47
BRANCH 34 50
ATOM     50  O4  BDP B   4       9.301   6.306  18.0550  0.00  0.00     0.000 O
BRANCH 50 54
ATOM     51  C1  BDP B   4       9.920   8.771  14.8770  0.00  0.00     0.000 C
ATOM     52  C2  BDP B   4       8.472   8.702  15.3510  0.00  0.00     0.000 C
ATOM     53  C3  BDP B   4       8.443   8.083  16.7150  0.00  0.00     0.000 C
ATOM     54  C4  BDP B   4       9.159   6.701  16.6800  0.00  0.00     0.000 C
ATOM     55  C5  BDP B   4      10.527   6.774  16.0160  0.00  0.00     0.000 C
ATOM     56  O5  BDP B   4      10.439   7.458  14.7690  0.00  0.00     0.000 O
ATOM     57   O  BDP B   4       7.915   9.997  15.4140  0.00  0.00     0.000 O
ATOM     59  HD  BDP B   4       7.413  10.053  14.7100  0.00  0.00     0.000 HD
ATOM     59   O  BDP B   4       7.057   7.858  17.0450  0.00  0.00     0.000 O
ATOM     61  HD  BDP B   4       6.556   7.914  16.3410  0.00  0.00     0.000 HD
BRANCH 55 61
ATOM     61   C  BDP B   4      11.043   5.366  15.7780  0.00  0.00     0.000 C
ATOM     62   O  BDP B   4      10.337   4.587  15.0860  0.00  0.00     0.000 OA
ATOM     63   O  BDP B   4      12.161   5.043  16.2840  0.00  0.00     0.000 OA
ENDBRANCH 55 61
BRANCH 51 64
ATOM     64  O3  NAG B   5       9.919   9.428  13.5950  0.00  0.00     0.000 O
BRANCH 64 67
ATOM     65  C1  NAG B   5      12.878  11.302  12.4460  0.00  0.00     0.000 C
ATOM     66  C2  NAG B   5      11.597  11.013  13.2090  0.00  0.00     0.000 C
ATOM     67  C3  NAG B   5      11.215   9.547  13.0440  0.00  0.00     0.000 C
ATOM     68  C4  NAG B   5      11.179   9.151  11.5620  0.00  0.00     0.000 C
ATOM     69  C5  NAG B   5      12.465   9.563  10.8630  0.00  0.00     0.000 C
ATOM     70  O5  NAG B   5      12.718  10.958  11.0890  0.00  0.00     0.000 O
ATOM     71   O  NAG B   5      10.972   7.757  11.4720  0.00  0.00     0.000 O
ATOM     73  HD  NAG B   5      10.437   8.000  10.8360  0.00  0.00     0.000 HD
ATOM     73   C  NAG B   5      12.467   9.321   9.3470  0.00  0.00     0.000 C
ATOM     74   O  NAG B   5      11.458  10.143   8.7250  0.00  0.00     0.000 O
ATOM     76  HD  NAG B   5      10.922  10.385   8.0880  0.00  0.00     0.000 HD
BRANCH 66 78
ATOM     76   N  NAG B   5      11.961  11.692  14.4670  0.00  0.00     0.000 N
ATOM     78  HD  NAG B   5      11.249  11.579  13.9870  0.00  0.00     0.000 HD
ATOM     78   C  NAG B   5      11.104  12.205  15.3640  0.00  0.00     0.000 C
ATOM     79   C  NAG B   5      11.782  12.819  16.5590  0.00  0.00     0.000 C
ATOM     80   O  NAG B   5       9.830  12.182  15.2120  0.00  0.00     0.000 OA
ENDBRANCH 66 78
BRANCH 65 81
ATOM     81  O4  BDP B   6      13.217  12.691  12.5600  0.00  0.00     0.000 O
BRANCH 81 85
ATOM     82  C1  BDP B   6      16.573  15.295  12.0030  0.00  0.00     0.000 C
ATOM     83  C2  BDP B   6      15.767  14.910  10.7660  0.00  0.00     0.000 C
ATOM     84  C3  BDP B   6      14.390  14.335  11.1090  0.00  0.00     0.000 C
ATOM     85  C4  BDP B   6      14.481  13.202  12.1330  0.00  0.00     0.000 C
ATOM     86  C5  BDP B   6      15.346  13.699  13.3160  0.00  0.00     0.000 C
ATOM     87  O5  BDP B   6      16.657  14.175  12.8720  0.00  0.00     0.000 O
ATOM     88   O  BDP B   6      15.609  16.116  10.0240  0.00  0.00     0.000 O
ATOM     90  HD  BDP B   6      15.010  16.547   9.5710  0.00  0.00     0.000 HD
ATOM     90   O  BDP B   6      13.743  13.893   9.9130  0.00  0.00     0.000 O
ATOM     92  HD  BDP B   6      13.144  14.325   9.4600  0.00  0.00     0.000 HD
BRANCH 86 92
ATOM     92   C  BDP B   6      15.674  12.558  14.2490  0.00  0.00     0.000 C
ATOM     93   O  BDP B   6      16.643  11.788  13.9750  0.00  0.00     0.000 OA
ATOM     94   O  BDP B   6      14.965  12.435  15.2950  0.00  0.00     0.000 OA
ENDBRANCH 86 92
BRANCH 82 95
ATOM     95  O3  NAG B   7      17.911  15.633  11.5860  0.00  0.00     0.000 O
BRANCH 95 98
ATOM     96  C1  NAG B   7      20.169  18.481  11.9470  0.00  0.00     0.000 C
ATOM     97  C2  NAG B   7      19.463  17.347  11.2150  0.00  0.00     0.000 C
ATOM     98  C3  NAG B   7      18.620  16.655  12.2850  0.00  0.00     0.000 C
ATOM     99  C4  NAG B   7      19.523  16.126  13.3960  0.00  0.00     0.000 C
ATOM    100  C5  NAG B   7      20.411  17.239  13.9550  0.00  0.00     0.000 C
ATOM    101  O5  NAG B   7      21.077  17.881  12.8780  0.00  0.00     0.000 O
BRANCH 97 104
ATOM    102   N  NAG B   7      18.426  17.548  10.1940  0.00  0.00     0.000 N
ATOM    104  HD  NAG B   7      17.731  17.436   9.6890  0.00  0.00     0.000 HD
ATOM    104   O  NAG B   7      17.581  17.783   8.1060  0.00  0.00     0.000 OA
ATOM    105   C  NAG B   7      18.567  17.676   8.8610  0.00  0.00     0.000 C
ATOM    106   C  NAG B   7      19.937  17.676   8.2740  0.00  0.00     0.000 C
ENDBRANCH 97 104
ATOM    107   O  NAG B   7      21.955  17.759  15.6420  0.00  0.00     0.000 O
ATOM    109  HD  NAG B   7      21.285  18.055  15.1790  0.00  0.00     0.000 HD
ATOM    109   O  NAG B   7      21.955  17.759  15.6420  0.00  0.00     0.000 O
ATOM    111  HD  NAG B   7      21.285  18.055  15.1790  0.00  0.00     0.000 HD
ENDBRANCH 95 98
ENDBRANCH 82 95
ENDBRANCH 81 85
ENDBRANCH 65 81
ENDBRANCH 64 67
ENDBRANCH 51 64
ENDBRANCH 50 54
ENDBRANCH 34 50
ENDBRANCH 33 36
ENDBRANCH 20 33
ENDBRANCH 19 23
ENDBRANCH 1 19
TORSDOF 19
ENDMDL
MODEL 91
REMARK VINA RESULT:      -3.0      7.855     17.916
ROOT
ATOM      1  C1  NAG B   1      19.772  20.766   1.4450  0.00  0.00     0.000 C
ATOM      2  C2  NAG B   1      21.072  21.529   1.6870  0.00  0.00     0.000 C
ATOM      3  C3  NAG B   1      22.143  21.150   0.6840  0.00  0.00     0.000 C
ATOM      4  C4  NAG B   1      22.319  19.642   0.8250  0.00  0.00     0.000 C
ATOM      5  C5  NAG B   1      21.009  18.944   0.4370  0.00  0.00     0.000 C
ATOM      6  O5  NAG B   1      19.929  19.345   1.3070  0.00  0.00     0.000 O
ATOM      7   O  NAG B   1      23.390  21.840   0.9310  0.00  0.00     0.000 O
ATOM      9  HD  NAG B   1      22.800  22.433   1.1570  0.00  0.00     0.000 HD
ATOM      9   O  NAG B   1      23.369  19.192  -0.0150  0.00  0.00     0.000 O
ATOM     11  HD  NAG B   1      22.780  19.785   0.2110  0.00  0.00     0.000 HD
ATOM     11   C  NAG B   1      21.205  17.423   0.4400  0.00  0.00     0.000 C
ATOM     12   O  NAG B   1      19.987  16.744   0.7410  0.00  0.00     0.000 O
ATOM     14  HD  NAG B   1      19.398  17.337   0.9670  0.00  0.00     0.000 HD
ENDROOT
BRANCH 2 16
ATOM     14   N  NAG B   1      20.725  22.961   1.7220  0.00  0.00     0.000 N
ATOM     16  HD  NAG B   1      20.132  23.519   2.0170  0.00  0.00     0.000 HD
ATOM     16   C  NAG B   1      20.963  23.748   2.7850  0.00  0.00     0.000 C
ATOM     17   C  NAG B   1      21.589  23.168   4.0250  0.00  0.00     0.000 C
ATOM     18   O  NAG B   1      20.704  24.951   2.7590  0.00  0.00     0.000 OA
ENDBRANCH 2 16
BRANCH 1 19
ATOM     19  O4  BDP B   2      19.051  20.965   2.6530  0.00  0.00     0.000 O
BRANCH 19 23
ATOM     20  C1  BDP B   2      17.395  18.544   5.5400  0.00  0.00     0.000 C
ATOM     21  C2  BDP B   2      18.907  18.556   5.4580  0.00  0.00     0.000 C
ATOM     22  C3  BDP B   2      19.405  19.756   4.6840  0.00  0.00     0.000 C
ATOM     23  C4  BDP B   2      18.703  19.781   3.3290  0.00  0.00     0.000 C
ATOM     24  C5  BDP B   2      17.202  19.779   3.5380  0.00  0.00     0.000 C
ATOM     25  O5  BDP B   2      16.823  18.611   4.2420  0.00  0.00     0.000 O
ATOM     26   O  BDP B   2      19.468  18.560   6.7530  0.00  0.00     0.000 O
ATOM     28  HD  BDP B   2      18.641  18.382   6.9400  0.00  0.00     0.000 HD
ATOM     28   O  BDP B   2      20.833  19.675   4.5520  0.00  0.00     0.000 O
ATOM     30  HD  BDP B   2      20.006  19.498   4.7390  0.00  0.00     0.000 HD
BRANCH 24 30
ATOM     30   C  BDP B   2      16.456  19.791   2.2520  0.00  0.00     0.000 C
ATOM     31   O  BDP B   2      16.708  18.877   1.4330  0.00  0.00     0.000 OA
ATOM     32   O  BDP B   2      15.620  20.718   2.0510  0.00  0.00     0.000 OA
ENDBRANCH 24 30
BRANCH 20 33
ATOM     33  O3  NAG B   3      17.095  17.295   6.1140  0.00  0.00     0.000 O
BRANCH 33 36
ATOM     34  C1  NAG B   3      14.033  17.000   8.2790  0.00  0.00     0.000 C
ATOM     35  C2  NAG B   3      15.462  17.340   7.9010  0.00  0.00     0.000 C
ATOM     36  C3  NAG B   3      15.699  17.163   6.3940  0.00  0.00     0.000 C
ATOM     37  C4  NAG B   3      15.240  15.770   5.9700  0.00  0.00     0.000 C
ATOM     38  C5  NAG B   3      13.824  15.503   6.4740  0.00  0.00     0.000 C
ATOM     39  O5  NAG B   3      13.775  15.661   7.8820  0.00  0.00     0.000 O
ATOM     40   O  NAG B   3      15.266  15.659   4.5380  0.00  0.00     0.000 O
ATOM     42  HD  NAG B   3      14.443  15.420   4.6650  0.00  0.00     0.000 HD
ATOM     42   C  NAG B   3      13.331  14.083   6.2080  0.00  0.00     0.000 C
ATOM     43   O  NAG B   3      14.118  13.154   6.9630  0.00  0.00     0.000 O
ATOM     45  HD  NAG B   3      13.295  12.915   7.0900  0.00  0.00     0.000 HD
BRANCH 35 47
ATOM     45   N  NAG B   3      16.536  17.738   8.8020  0.00  0.00     0.000 N
ATOM     47  HD  NAG B   3      16.716  17.010   8.3700  0.00  0.00     0.000 HD
ATOM     47   C  NAG B   3      16.881  18.996   8.9950  0.00  0.00     0.000 C
ATOM     48   C  NAG B   3      18.022  19.231   9.9410  0.00  0.00     0.000 C
ATOM     49   O  NAG B   3      16.319  19.922   8.4140  0.00  0.00     0.000 OA
ENDBRANCH 35 47
BRANCH 34 50
ATOM     50  O4  BDP B   4      14.025  17.106   9.6870  0.00  0.00     0.000 O
BRANCH 50 54
ATOM     51  C1  BDP B   4      11.767  18.599  12.7240  0.00  0.00     0.000 C
ATOM     52  C2  BDP B   4      11.712  17.082  12.5830  0.00  0.00     0.000 C
ATOM     53  C3  BDP B   4      12.844  16.641  11.7060  0.00  0.00     0.000 C
ATOM     54  C4  BDP B   4      12.784  17.400  10.3500  0.00  0.00     0.000 C
ATOM     55  C5  BDP B   4      12.637  18.905  10.5330  0.00  0.00     0.000 C
ATOM     56  O5  BDP B   4      11.587  19.194  11.4520  0.00  0.00     0.000 O
ATOM     57   O  BDP B   4      11.834  16.468  13.8480  0.00  0.00     0.000 O
ATOM     59  HD  BDP B   4      11.029  16.222  14.0500  0.00  0.00     0.000 HD
ATOM     59   O  BDP B   4      12.646  15.238  11.4400  0.00  0.00     0.000 O
ATOM     61  HD  BDP B   4      11.841  14.992  11.6410  0.00  0.00     0.000 HD
BRANCH 55 61
ATOM     61   C  BDP B   4      12.318  19.544   9.1940  0.00  0.00     0.000 C
ATOM     62   O  BDP B   4      13.105  20.425   8.7580  0.00  0.00     0.000 OA
ATOM     63   O  BDP B   4      11.278  19.160   8.5770  0.00  0.00     0.000 OA
ENDBRANCH 55 61
BRANCH 51 64
ATOM     64  O3  NAG B   5      10.708  18.983  13.6220  0.00  0.00     0.000 O
BRANCH 64 67
ATOM     65  C1  NAG B   5      11.015  21.359  16.4250  0.00  0.00     0.000 C
ATOM     66  C2  NAG B   5      11.021  20.028  15.6940  0.00  0.00     0.000 C
ATOM     67  C3  NAG B   5      10.914  20.261  14.1920  0.00  0.00     0.000 C
ATOM     68  C4  NAG B   5       9.721  21.167  13.8580  0.00  0.00     0.000 C
ATOM     69  C5  NAG B   5       9.752  22.430  14.7050  0.00  0.00     0.000 C
ATOM     70  O5  NAG B   5       9.853  22.085  16.0940  0.00  0.00     0.000 O
ATOM     71   O  NAG B   5       9.759  21.474  12.4810  0.00  0.00     0.000 O
ATOM     73  HD  NAG B   5       8.907  21.335  12.5500  0.00  0.00     0.000 HD
ATOM     73   C  NAG B   5       8.527  23.339  14.5300  0.00  0.00     0.000 C
ATOM     74   O  NAG B   5       7.345  22.648  14.9840  0.00  0.00     0.000 O
ATOM     76  HD  NAG B   5       6.493  22.509  15.0540  0.00  0.00     0.000 HD
BRANCH 66 78
ATOM     76   N  NAG B   5      11.245  18.833  16.5310  0.00  0.00     0.000 N
ATOM     78  HD  NAG B   5      11.639  19.232  15.8700  0.00  0.00     0.000 HD
ATOM     78   C  NAG B   5      12.368  18.100  16.5740  0.00  0.00     0.000 C
ATOM     79   C  NAG B   5      12.298  16.951  17.5430  0.00  0.00     0.000 C
ATOM     80   O  NAG B   5      13.399  18.348  15.8510  0.00  0.00     0.000 OA
ENDBRANCH 66 78
BRANCH 65 81
ATOM     81  O4  BDP B   6      11.068  21.143  17.8410  0.00  0.00     0.000 O
BRANCH 81 85
ATOM     82  C1  BDP B   6      12.745  22.874  21.3850  0.00  0.00     0.000 C
ATOM     83  C2  BDP B   6      11.676  23.675  20.6460  0.00  0.00     0.000 C
ATOM     84  C3  BDP B   6      10.867  22.823  19.6640  0.00  0.00     0.000 C
ATOM     85  C4  BDP B   6      11.769  22.027  18.7190  0.00  0.00     0.000 C
ATOM     86  C5  BDP B   6      12.825  21.291  19.5780  0.00  0.00     0.000 C
ATOM     87  O5  BDP B   6      13.570  22.213  20.4360  0.00  0.00     0.000 O
ATOM     88   O  BDP B   6      10.813  24.183  21.6600  0.00  0.00     0.000 O
ATOM     90  HD  BDP B   6       9.971  24.302  21.8210  0.00  0.00     0.000 HD
ATOM     90   O  BDP B   6       9.969  23.660  18.9310  0.00  0.00     0.000 O
ATOM     92  HD  BDP B   6       9.126  23.780  19.0920  0.00  0.00     0.000 HD
BRANCH 86 92
ATOM     92   C  BDP B   6      13.889  20.679  18.6990  0.00  0.00     0.000 C
ATOM     93   O  BDP B   6      14.306  21.318  17.6860  0.00  0.00     0.000 OA
ATOM     94   O  BDP B   6      14.342  19.540  19.0340  0.00  0.00     0.000 OA
ENDBRANCH 86 92
BRANCH 82 95
ATOM     95  O3  NAG B   7      13.571  23.794  22.1260  0.00  0.00     0.000 O
BRANCH 95 98
ATOM     96  C1  NAG B   7      14.737  24.113  25.5720  0.00  0.00     0.000 C
ATOM     97  C2  NAG B   7      14.155  24.592  24.2480  0.00  0.00     0.000 C
ATOM     98  C3  NAG B   7      14.173  23.361  23.3440  0.00  0.00     0.000 C
ATOM     99  C4  NAG B   7      15.606  22.860  23.1770  0.00  0.00     0.000 C
ATOM    100  C5  NAG B   7      16.262  22.619  24.5380  0.00  0.00     0.000 C
ATOM    101  O5  NAG B   7      16.110  23.783  25.3350  0.00  0.00     0.000 O
BRANCH 97 104
ATOM    102   N  NAG B   7      12.746  25.003  24.2010  0.00  0.00     0.000 N
ATOM    104  HD  NAG B   7      11.914  25.077  23.9710  0.00  0.00     0.000 HD
ATOM    104   O  NAG B   7      11.001  26.425  23.9470  0.00  0.00     0.000 OA
ATOM    105   C  NAG B   7      12.231  26.235  24.0250  0.00  0.00     0.000 C
ATOM    106   C  NAG B   7      13.157  27.397  23.9050  0.00  0.00     0.000 C
ENDBRANCH 97 104
ATOM    107   O  NAG B   7      18.175  21.759  25.5890  0.00  0.00     0.000 O
ATOM    109  HD  NAG B   7      17.312  21.824  25.6310  0.00  0.00     0.000 HD
ATOM    109   O  NAG B   7      18.175  21.759  25.5890  0.00  0.00     0.000 O
ATOM    111  HD  NAG B   7      17.312  21.824  25.6310  0.00  0.00     0.000 HD
ENDBRANCH 95 98
ENDBRANCH 82 95
ENDBRANCH 81 85
ENDBRANCH 65 81
ENDBRANCH 64 67
ENDBRANCH 51 64
ENDBRANCH 50 54
ENDBRANCH 34 50
ENDBRANCH 33 36
ENDBRANCH 20 33
ENDBRANCH 19 23
ENDBRANCH 1 19
TORSDOF 19
ENDMDL
MODEL 92
REMARK VINA RESULT:      -3.0     11.539     18.755
ROOT
ATOM      1  C1  NAG B   1      23.036  33.009  19.1560  0.00  0.00     0.000 C
ATOM      2  C2  NAG B   1      22.179  34.073  19.8360  0.00  0.00     0.000 C
ATOM      3  C3  NAG B   1      22.433  34.134  21.3280  0.00  0.00     0.000 C
ATOM      4  C4  NAG B   1      22.140  32.731  21.8500  0.00  0.00     0.000 C
ATOM      5  C5  NAG B   1      23.129  31.743  21.2190  0.00  0.00     0.000 C
ATOM      6  O5  NAG B   1      22.993  31.716  19.7820  0.00  0.00     0.000 O
ATOM      7   O  NAG B   1      21.596  35.113  21.9850  0.00  0.00     0.000 O
ATOM      9  HD  NAG B   1      21.752  35.485  21.2180  0.00  0.00     0.000 HD
ATOM      9   O  NAG B   1      22.265  32.699  23.2620  0.00  0.00     0.000 O
ATOM     11  HD  NAG B   1      22.420  33.071  22.4950  0.00  0.00     0.000 HD
ATOM     11   C  NAG B   1      22.941  30.350  21.8320  0.00  0.00     0.000 C
ATOM     12   O  NAG B   1      23.301  29.324  20.9090  0.00  0.00     0.000 O
ATOM     14  HD  NAG B   1      23.457  29.695  20.1420  0.00  0.00     0.000 HD
ENDROOT
BRANCH 2 16
ATOM     14   N  NAG B   1      22.417  35.301  19.0560  0.00  0.00     0.000 N
ATOM     16  HD  NAG B   1      22.471  35.604  18.2470  0.00  0.00     0.000 HD
ATOM     16   C  NAG B   1      21.428  36.025  18.5050  0.00  0.00     0.000 C
ATOM     17   C  NAG B   1      19.998  35.575  18.6480  0.00  0.00     0.000 C
ATOM     18   O  NAG B   1      21.662  37.072  17.9030  0.00  0.00     0.000 OA
ENDBRANCH 2 16
BRANCH 1 19
ATOM     19  O4  BDP B   2      22.411  32.851  17.8890  0.00  0.00     0.000 O
BRANCH 19 23
ATOM     20  C1  BDP B   2      20.725  29.736  15.7930  0.00  0.00     0.000 C
ATOM     21  C2  BDP B   2      19.967  30.214  17.0130  0.00  0.00     0.000 C
ATOM     22  C3  BDP B   2      20.432  31.587  17.4440  0.00  0.00     0.000 C
ATOM     23  C4  BDP B   2      21.947  31.549  17.6230  0.00  0.00     0.000 C
ATOM     24  C5  BDP B   2      22.595  31.069  16.3400  0.00  0.00     0.000 C
ATOM     25  O5  BDP B   2      22.126  29.771  16.0290  0.00  0.00     0.000 O
ATOM     26   O  BDP B   2      18.581  30.243  16.7480  0.00  0.00     0.000 O
ATOM     28  HD  BDP B   2      18.864  29.804  16.0570  0.00  0.00     0.000 HD
ATOM     28   O  BDP B   2      19.754  31.958  18.6550  0.00  0.00     0.000 O
ATOM     30  HD  BDP B   2      20.037  31.519  17.9640  0.00  0.00     0.000 HD
BRANCH 24 30
ATOM     30   C  BDP B   2      24.076  30.998  16.4500  0.00  0.00     0.000 C
ATOM     31   O  BDP B   2      24.553  30.152  17.2410  0.00  0.00     0.000 OA
ATOM     32   O  BDP B   2      24.769  31.792  15.7530  0.00  0.00     0.000 OA
ENDBRANCH 24 30
BRANCH 20 33
ATOM     33  O3  NAG B   3      20.316  28.399  15.6400  0.00  0.00     0.000 O
BRANCH 33 36
ATOM     34  C1  NAG B   3      20.062  26.712  12.2870  0.00  0.00     0.000 C
ATOM     35  C2  NAG B   3      19.617  27.506  13.5000  0.00  0.00     0.000 C
ATOM     36  C3  NAG B   3      20.803  27.832  14.4210  0.00  0.00     0.000 C
ATOM     37  C4  NAG B   3      21.562  26.547  14.7420  0.00  0.00     0.000 C
ATOM     38  C5  NAG B   3      21.883  25.788  13.4580  0.00  0.00     0.000 C
ATOM     39  O5  NAG B   3      20.690  25.522  12.7410  0.00  0.00     0.000 O
ATOM     40   O  NAG B   3      22.782  26.857  15.4320  0.00  0.00     0.000 O
ATOM     42  HD  NAG B   3      23.121  26.385  14.7890  0.00  0.00     0.000 HD
ATOM     42   C  NAG B   3      22.528  24.424  13.6920  0.00  0.00     0.000 C
ATOM     43   O  NAG B   3      21.593  23.558  14.3470  0.00  0.00     0.000 O
ATOM     45  HD  NAG B   3      21.931  23.086  13.7050  0.00  0.00     0.000 HD
BRANCH 35 47
ATOM     45   N  NAG B   3      18.866  28.650  12.9990  0.00  0.00     0.000 N
ATOM     47  HD  NAG B   3      19.186  28.157  12.3630  0.00  0.00     0.000 HD
ATOM     47   C  NAG B   3      17.768  29.096  13.5750  0.00  0.00     0.000 C
ATOM     48   C  NAG B   3      17.106  30.271  12.9180  0.00  0.00     0.000 C
ATOM     49   O  NAG B   3      17.296  28.563  14.5780  0.00  0.00     0.000 OA
ENDBRANCH 35 47
BRANCH 34 50
ATOM     50  O4  BDP B   4      18.853  26.409  11.6240  0.00  0.00     0.000 O
BRANCH 50 54
ATOM     51  C1  BDP B   4      17.205  25.244   8.0910  0.00  0.00     0.000 C
ATOM     52  C2  BDP B   4      18.008  24.160   8.8020  0.00  0.00     0.000 C
ATOM     53  C3  BDP B   4      18.232  24.582  10.2210  0.00  0.00     0.000 C
ATOM     54  C4  BDP B   4      18.907  25.984  10.2520  0.00  0.00     0.000 C
ATOM     55  C5  BDP B   4      18.186  26.993   9.3670  0.00  0.00     0.000 C
ATOM     56  O5  BDP B   4      17.955  26.445   8.0730  0.00  0.00     0.000 O
ATOM     57   O  BDP B   4      17.303  22.937   8.7830  0.00  0.00     0.000 O
ATOM     59  HD  BDP B   4      17.696  22.468   8.1710  0.00  0.00     0.000 HD
ATOM     59   O  BDP B   4      19.151  23.634  10.8010  0.00  0.00     0.000 O
ATOM     61  HD  BDP B   4      19.544  23.165  10.1890  0.00  0.00     0.000 HD
BRANCH 55 61
ATOM     61   C  BDP B   4      19.039  28.242   9.2360  0.00  0.00     0.000 C
ATOM     62   O  BDP B   4      19.999  28.219   8.4220  0.00  0.00     0.000 OA
ATOM     63   O  BDP B   4      18.743  29.249   9.9490  0.00  0.00     0.000 OA
ENDBRANCH 55 61
BRANCH 51 64
ATOM     64  O3  NAG B   5      16.952  24.779   6.7510  0.00  0.00     0.000 O
BRANCH 64 67
ATOM     65  C1  NAG B   5      13.728  24.835   4.9640  0.00  0.00     0.000 C
ATOM     66  C2  NAG B   5      14.863  24.292   5.8140  0.00  0.00     0.000 C
ATOM     67  C3  NAG B   5      15.837  25.413   6.1570  0.00  0.00     0.000 C
ATOM     68  C4  NAG B   5      16.286  26.158   4.8930  0.00  0.00     0.000 C
ATOM     69  C5  NAG B   5      15.084  26.581   4.0620  0.00  0.00     0.000 C
ATOM     70  O5  NAG B   5      14.245  25.446   3.8040  0.00  0.00     0.000 O
ATOM     71   O  NAG B   5      17.060  27.274   5.2770  0.00  0.00     0.000 O
ATOM     73  HD  NAG B   5      17.548  27.013   4.6110  0.00  0.00     0.000 HD
ATOM     73   C  NAG B   5      15.442  27.222   2.7140  0.00  0.00     0.000 C
ATOM     74   O  NAG B   5      16.113  26.255   1.8810  0.00  0.00     0.000 O
ATOM     76  HD  NAG B   5      16.601  25.993   1.2150  0.00  0.00     0.000 HD
BRANCH 66 78
ATOM     76   N  NAG B   5      14.729  22.881   6.2250  0.00  0.00     0.000 N
ATOM     78  HD  NAG B   5      14.787  23.654   6.6110  0.00  0.00     0.000 HD
ATOM     78   C  NAG B   5      14.446  22.443   7.4620  0.00  0.00     0.000 C
ATOM     79   C  NAG B   5      14.356  20.944   7.5610  0.00  0.00     0.000 C
ATOM     80   O  NAG B   5      14.277  23.225   8.4640  0.00  0.00     0.000 OA
ENDBRANCH 66 78
BRANCH 65 81
ATOM     81  O4  BDP B   6      12.834  23.775   4.6000  0.00  0.00     0.000 O
BRANCH 81 85
ATOM     82  C1  BDP B   6       8.655  23.046   3.9960  0.00  0.00     0.000 C
ATOM     83  C2  BDP B   6       9.374  23.915   2.9690  0.00  0.00     0.000 C
ATOM     84  C3  BDP B   6      10.898  23.780   3.0380  0.00  0.00     0.000 C
ATOM     85  C4  BDP B   6      11.426  23.982   4.4600  0.00  0.00     0.000 C
ATOM     86  C5  BDP B   6      10.600  23.079   5.4070  0.00  0.00     0.000 C
ATOM     87  O5  BDP B   6       9.164  23.336   5.2900  0.00  0.00     0.000 O
ATOM     88   O  BDP B   6       8.913  23.464   1.6990  0.00  0.00     0.000 O
ATOM     90  HD  BDP B   6       9.210  23.289   0.9050  0.00  0.00     0.000 HD
ATOM     90   O  BDP B   6      11.503  24.704   2.1310  0.00  0.00     0.000 O
ATOM     92  HD  BDP B   6      11.801  24.529   1.3370  0.00  0.00     0.000 HD
BRANCH 86 92
ATOM     92   C  BDP B   6      10.907  23.404   6.8490  0.00  0.00     0.000 C
ATOM     93   O  BDP B   6      11.028  24.615   7.2040  0.00  0.00     0.000 OA
ATOM     94   O  BDP B   6      11.009  22.431   7.6600  0.00  0.00     0.000 OA
ENDBRANCH 86 92
BRANCH 82 95
ATOM     95  O3  NAG B   7       7.256  23.392   3.9830  0.00  0.00     0.000 O
BRANCH 95 98
ATOM     96  C1  NAG B   7       3.900  21.950   3.9620  0.00  0.00     0.000 C
ATOM     97  C2  NAG B   7       4.938  23.065   3.9310  0.00  0.00     0.000 C
ATOM     98  C3  NAG B   7       6.282  22.354   4.0760  0.00  0.00     0.000 C
ATOM     99  C4  NAG B   7       6.324  21.587   5.3950  0.00  0.00     0.000 C
ATOM    100  C5  NAG B   7       5.126  20.644   5.5170  0.00  0.00     0.000 C
ATOM    101  O5  NAG B   7       3.936  21.377   5.2740  0.00  0.00     0.000 O
BRANCH 97 104
ATOM    102   N  NAG B   7       5.126  23.837   2.6950  0.00  0.00     0.000 N
ATOM    104  HD  NAG B   7       5.489  24.234   2.0170  0.00  0.00     0.000 HD
ATOM    104   O  NAG B   7       5.070  25.660   1.3530  0.00  0.00     0.000 OA
ATOM    105   C  NAG B   7       4.792  25.116   2.4390  0.00  0.00     0.000 C
ATOM    106   C  NAG B   7       4.084  25.904   3.4880  0.00  0.00     0.000 C
ENDBRANCH 97 104
ATOM    107   O  NAG B   7       4.188  18.937   6.8260  0.00  0.00     0.000 O
ATOM    109  HD  NAG B   7       4.323  19.217   6.0170  0.00  0.00     0.000 HD
ATOM    109   O  NAG B   7       4.188  18.937   6.8260  0.00  0.00     0.000 O
ATOM    111  HD  NAG B   7       4.323  19.217   6.0170  0.00  0.00     0.000 HD
ENDBRANCH 95 98
ENDBRANCH 82 95
ENDBRANCH 81 85
ENDBRANCH 65 81
ENDBRANCH 64 67
ENDBRANCH 51 64
ENDBRANCH 50 54
ENDBRANCH 34 50
ENDBRANCH 33 36
ENDBRANCH 20 33
ENDBRANCH 19 23
ENDBRANCH 1 19
TORSDOF 19
ENDMDL
MODEL 93
REMARK VINA RESULT:      -3.0     14.340     17.724
ROOT
ATOM      1  C1  NAG B   1       9.467  21.174  27.1510  0.00  0.00     0.000 C
ATOM      2  C2  NAG B   1       8.831  22.088  28.1950  0.00  0.00     0.000 C
ATOM      3  C3  NAG B   1       9.608  23.377  28.3650  0.00  0.00     0.000 C
ATOM      4  C4  NAG B   1      11.022  22.954  28.7480  0.00  0.00     0.000 C
ATOM      5  C5  NAG B   1      11.637  22.154  27.5920  0.00  0.00     0.000 C
ATOM      6  O5  NAG B   1      10.876  20.957  27.3250  0.00  0.00     0.000 O
ATOM      7   O  NAG B   1       9.033  24.231  29.3810  0.00  0.00     0.000 O
ATOM      9  HD  NAG B   1       8.333  23.859  29.0310  0.00  0.00     0.000 HD
ATOM      9   O  NAG B   1      11.817  24.096  29.0170  0.00  0.00     0.000 O
ATOM     11  HD  NAG B   1      11.118  23.725  28.6670  0.00  0.00     0.000 HD
ATOM     11   C  NAG B   1      13.106  21.836  27.8990  0.00  0.00     0.000 C
ATOM     12   O  NAG B   1      13.517  20.625  27.2660  0.00  0.00     0.000 O
ATOM     14  HD  NAG B   1      12.817  20.254  26.9170  0.00  0.00     0.000 HD
ENDROOT
BRANCH 2 16
ATOM     14   N  NAG B   1       7.662  21.731  29.0190  0.00  0.00     0.000 N
ATOM     16  HD  NAG B   1       7.057  22.067  29.5400  0.00  0.00     0.000 HD
ATOM     16   C  NAG B   1       6.393  21.906  28.6090  0.00  0.00     0.000 C
ATOM     17   C  NAG B   1       6.117  22.518  27.2610  0.00  0.00     0.000 C
ATOM     18   O  NAG B   1       5.443  21.550  29.3050  0.00  0.00     0.000 OA
ENDBRANCH 2 16
BRANCH 1 19
ATOM     19  O4  BDP B   2       8.844  19.921  27.3960  0.00  0.00     0.000 O
BRANCH 19 23
ATOM     20  C1  BDP B   2       7.189  17.360  24.6300  0.00  0.00     0.000 C
ATOM     21  C2  BDP B   2       7.940  18.553  24.0780  0.00  0.00     0.000 C
ATOM     22  C3  BDP B   2       8.838  19.169  25.1260  0.00  0.00     0.000 C
ATOM     23  C4  BDP B   2       7.998  19.476  26.3620  0.00  0.00     0.000 C
ATOM     24  C5  BDP B   2       7.307  18.210  26.8290  0.00  0.00     0.000 C
ATOM     25  O5  BDP B   2       6.468  17.721  25.8000  0.00  0.00     0.000 O
ATOM     26   O  BDP B   2       8.709  18.172  22.9570  0.00  0.00     0.000 O
ATOM     28  HD  BDP B   2       8.218  17.465  23.0590  0.00  0.00     0.000 HD
ATOM     28   O  BDP B   2       9.456  20.348  24.5870  0.00  0.00     0.000 O
ATOM     30  HD  BDP B   2       8.965  19.642  24.6890  0.00  0.00     0.000 HD
BRANCH 24 30
ATOM     30   C  BDP B   2       6.459  18.442  28.0280  0.00  0.00     0.000 C
ATOM     31   O  BDP B   2       5.237  18.643  27.8370  0.00  0.00     0.000 OA
ATOM     32   O  BDP B   2       7.010  18.433  29.1650  0.00  0.00     0.000 OA
ENDBRANCH 24 30
BRANCH 20 33
ATOM     33  O3  NAG B   3       6.279  17.028  23.6100  0.00  0.00     0.000 O
BRANCH 33 36
ATOM     34  C1  NAG B   3       5.562  13.485  22.5680  0.00  0.00     0.000 C
ATOM     35  C2  NAG B   3       6.238  14.843  22.5680  0.00  0.00     0.000 C
ATOM     36  C3  NAG B   3       5.779  15.697  23.7600  0.00  0.00     0.000 C
ATOM     37  C4  NAG B   3       4.254  15.742  23.7910  0.00  0.00     0.000 C
ATOM     38  C5  NAG B   3       3.680  14.331  23.7010  0.00  0.00     0.000 C
ATOM     39  O5  NAG B   3       4.157  13.688  22.5310  0.00  0.00     0.000 O
ATOM     40   O  NAG B   3       3.806  16.364  25.0050  0.00  0.00     0.000 O
ATOM     42  HD  NAG B   3       3.355  15.627  25.0700  0.00  0.00     0.000 HD
ATOM     42   C  NAG B   3       2.158  14.289  23.5950  0.00  0.00     0.000 C
ATOM     43   O  NAG B   3       1.748  14.877  22.3540  0.00  0.00     0.000 O
ATOM     45  HD  NAG B   3       1.297  14.141  22.4190  0.00  0.00     0.000 HD
BRANCH 35 47
ATOM     45   N  NAG B   3       7.183  15.214  21.5220  0.00  0.00     0.000 N
ATOM     47  HD  NAG B   3       6.431  15.640  21.4590  0.00  0.00     0.000 HD
ATOM     47   C  NAG B   3       8.479  15.331  21.7340  0.00  0.00     0.000 C
ATOM     48   C  NAG B   3       9.307  15.741  20.5530  0.00  0.00     0.000 C
ATOM     49   O  NAG B   3       8.977  15.140  22.8410  0.00  0.00     0.000 OA
ENDBRANCH 35 47
BRANCH 34 50
ATOM     50  O4  BDP B   4       6.006  12.891  21.3670  0.00  0.00     0.000 O
BRANCH 50 54
ATOM     51  C1  BDP B   4       7.515   9.465  19.7730  0.00  0.00     0.000 C
ATOM     52  C2  BDP B   4       5.993   9.529  19.8060  0.00  0.00     0.000 C
ATOM     53  C3  BDP B   4       5.577  10.947  20.0520  0.00  0.00     0.000 C
ATOM     54  C4  BDP B   4       6.256  11.475  21.3490  0.00  0.00     0.000 C
ATOM     55  C5  BDP B   4       7.755  11.212  21.3670  0.00  0.00     0.000 C
ATOM     56  O5  BDP B   4       8.027   9.854  21.0350  0.00  0.00     0.000 O
ATOM     57   O  BDP B   4       5.457   9.092  18.5750  0.00  0.00     0.000 O
ATOM     59  HD  BDP B   4       5.171   8.290  18.7340  0.00  0.00     0.000 HD
ATOM     59   O  BDP B   4       4.151  10.935  20.2690  0.00  0.00     0.000 O
ATOM     61  HD  BDP B   4       3.866  10.133  20.4280  0.00  0.00     0.000 HD
BRANCH 55 61
ATOM     61   C  BDP B   4       8.299  11.506  22.7530  0.00  0.00     0.000 C
ATOM     62   O  BDP B   4       7.582  11.208  23.7440  0.00  0.00     0.000 OA
ATOM     63   O  BDP B   4       9.448  12.035  22.8490  0.00  0.00     0.000 OA
ENDBRANCH 55 61
BRANCH 51 64
ATOM     64  O3  NAG B   5       7.879   8.104  19.4710  0.00  0.00     0.000 O
BRANCH 64 67
ATOM     65  C1  NAG B   5      10.535   7.457  16.9970  0.00  0.00     0.000 C
ATOM     66  C2  NAG B   5       9.163   7.825  17.5340  0.00  0.00     0.000 C
ATOM     67  C3  NAG B   5       9.223   7.981  19.0480  0.00  0.00     0.000 C
ATOM     68  C4  NAG B   5       9.855   6.746  19.7050  0.00  0.00     0.000 C
ATOM     69  C5  NAG B   5      11.178   6.402  19.0400  0.00  0.00     0.000 C
ATOM     70  O5  NAG B   5      10.996   6.281  17.6220  0.00  0.00     0.000 O
ATOM     71   O  NAG B   5      10.026   7.005  21.0820  0.00  0.00     0.000 O
ATOM     73  HD  NAG B   5       9.738   6.191  21.1470  0.00  0.00     0.000 HD
ATOM     73   C  NAG B   5      11.822   5.104  19.5480  0.00  0.00     0.000 C
ATOM     74   O  NAG B   5      10.972   3.984  19.2240  0.00  0.00     0.000 O
ATOM     76  HD  NAG B   5      10.685   3.170  19.2900  0.00  0.00     0.000 HD
BRANCH 66 78
ATOM     76   N  NAG B   5       8.134   8.074  16.5060  0.00  0.00     0.000 N
ATOM     78  HD  NAG B   5       8.512   8.514  17.1480  0.00  0.00     0.000 HD
ATOM     78   C  NAG B   5       7.614   9.268  16.1820  0.00  0.00     0.000 C
ATOM     79   C  NAG B   5       6.595   9.200  15.0770  0.00  0.00     0.000 C
ATOM     80   O  NAG B   5       7.948  10.361  16.7640  0.00  0.00     0.000 OA
ENDBRANCH 66 78
BRANCH 65 81
ATOM     81  O4  BDP B   6      10.474   7.263  15.5780  0.00  0.00     0.000 O
BRANCH 81 85
ATOM     82  C1  BDP B   6      12.738   8.080  12.0330  0.00  0.00     0.000 C
ATOM     83  C2  BDP B   6      13.317   7.075  13.0240  0.00  0.00     0.000 C
ATOM     84  C3  BDP B   6      12.278   6.554  14.0190  0.00  0.00     0.000 C
ATOM     85  C4  BDP B   6      11.521   7.693  14.7060  0.00  0.00     0.000 C
ATOM     86  C5  BDP B   6      11.015   8.658  13.6070  0.00  0.00     0.000 C
ATOM     87  O5  BDP B   6      12.105   9.130  12.7510  0.00  0.00     0.000 O
ATOM     88   O  BDP B   6      13.801   5.995  12.2300  0.00  0.00     0.000 O
ATOM     90  HD  BDP B   6      13.823   5.129  12.2240  0.00  0.00     0.000 HD
ATOM     90   O  BDP B   6      12.916   5.710  14.9810  0.00  0.00     0.000 O
ATOM     92  HD  BDP B   6      12.938   4.844  14.9750  0.00  0.00     0.000 HD
BRANCH 86 92
ATOM     92   C  BDP B   6      10.468   9.923  14.2230  0.00  0.00     0.000 C
ATOM     93   O  BDP B   6       9.475  10.500  13.6860  0.00  0.00     0.000 OA
ATOM     94   O  BDP B   6      11.025  10.346  15.2840  0.00  0.00     0.000 OA
ENDBRANCH 86 92
BRANCH 82 95
ATOM     95  O3  NAG B   7      13.824   8.653  11.2790  0.00  0.00     0.000 O
BRANCH 95 98
ATOM     96  C1  NAG B   7      14.723   9.402   7.8190  0.00  0.00     0.000 C
ATOM     97  C2  NAG B   7      14.974   9.031   9.2740  0.00  0.00     0.000 C
ATOM     98  C3  NAG B   7      13.596   9.061   9.9310  0.00  0.00     0.000 C
ATOM     99  C4  NAG B   7      12.992  10.458   9.8060  0.00  0.00     0.000 C
ATOM    100  C5  NAG B   7      12.976  10.918   8.3480  0.00  0.00     0.000 C
ATOM    101  O5  NAG B   7      14.277  10.762   7.8020  0.00  0.00     0.000 O
BRANCH 97 104
ATOM    102   N  NAG B   7      15.424   7.689   9.6700  0.00  0.00     0.000 N
ATOM    104  HD  NAG B   7      15.522   6.945  10.1010  0.00  0.00     0.000 HD
ATOM    104   O  NAG B   7      16.894   6.098  10.3320  0.00  0.00     0.000 OA
ATOM    105   C  NAG B   7      16.670   7.264   9.9490  0.00  0.00     0.000 C
ATOM    106   C  NAG B   7      17.809   8.216   9.8100  0.00  0.00     0.000 C
ENDBRANCH 97 104
ATOM    107   O  NAG B   7      12.223  12.608   6.9060  0.00  0.00     0.000 O
ATOM    109  HD  NAG B   7      12.344  11.755   6.9950  0.00  0.00     0.000 HD
ATOM    109   O  NAG B   7      12.223  12.608   6.9060  0.00  0.00     0.000 O
ATOM    111  HD  NAG B   7      12.344  11.755   6.9950  0.00  0.00     0.000 HD
ENDBRANCH 95 98
ENDBRANCH 82 95
ENDBRANCH 81 85
ENDBRANCH 65 81
ENDBRANCH 64 67
ENDBRANCH 51 64
ENDBRANCH 50 54
ENDBRANCH 34 50
ENDBRANCH 33 36
ENDBRANCH 20 33
ENDBRANCH 19 23
ENDBRANCH 1 19
TORSDOF 19
ENDMDL
MODEL 94
REMARK VINA RESULT:      -3.0      7.599     18.584
ROOT
ATOM      1  C1  NAG B   1      20.256  19.979   0.2960  0.00  0.00     0.000 C
ATOM      2  C2  NAG B   1      21.368  21.010   0.4630  0.00  0.00     0.000 C
ATOM      3  C3  NAG B   1      22.668  20.544  -0.1590  0.00  0.00     0.000 C
ATOM      4  C4  NAG B   1      22.996  19.219   0.5230  0.00  0.00     0.000 C
ATOM      5  C5  NAG B   1      21.896  18.200   0.1970  0.00  0.00     0.000 C
ATOM      6  O5  NAG B   1      20.613  18.644   0.6870  0.00  0.00     0.000 O
ATOM      7   O  NAG B   1      23.737  21.499   0.0300  0.00  0.00     0.000 O
ATOM      9  HD  NAG B   1      23.044  22.010  -0.0630  0.00  0.00     0.000 HD
ATOM      9   O  NAG B   1      24.249  18.735   0.0720  0.00  0.00     0.000 O
ATOM     11  HD  NAG B   1      23.556  19.246  -0.0200  0.00  0.00     0.000 HD
ATOM     11   C  NAG B   1      22.274  16.825   0.7600  0.00  0.00     0.000 C
ATOM     12   O  NAG B   1      21.114  16.058   1.0780  0.00  0.00     0.000 O
ATOM     14  HD  NAG B   1      20.421  16.570   0.9850  0.00  0.00     0.000 HD
ENDROOT
BRANCH 2 16
ATOM     14   N  NAG B   1      20.818  22.278  -0.0480  0.00  0.00     0.000 N
ATOM     16  HD  NAG B   1      20.110  22.776  -0.0390  0.00  0.00     0.000 HD
ATOM     16   C  NAG B   1      20.751  23.400   0.6890  0.00  0.00     0.000 C
ATOM     17   C  NAG B   1      21.227  23.391   2.1180  0.00  0.00     0.000 C
ATOM     18   O  NAG B   1      20.331  24.454   0.2110  0.00  0.00     0.000 OA
ENDBRANCH 2 16
BRANCH 1 19
ATOM     19  O4  BDP B   2      19.272  20.410   1.2270  0.00  0.00     0.000 O
BRANCH 19 23
ATOM     20  C1  BDP B   2      17.426  18.800   4.5350  0.00  0.00     0.000 C
ATOM     21  C2  BDP B   2      18.899  19.123   4.6760  0.00  0.00     0.000 C
ATOM     22  C3  BDP B   2      19.359  20.070   3.5910  0.00  0.00     0.000 C
ATOM     23  C4  BDP B   2      18.975  19.478   2.2390  0.00  0.00     0.000 C
ATOM     24  C5  BDP B   2      17.484  19.208   2.2110  0.00  0.00     0.000 C
ATOM     25  O5  BDP B   2      17.148  18.294   3.2370  0.00  0.00     0.000 O
ATOM     26   O  BDP B   2      19.156  19.690   5.9430  0.00  0.00     0.000 O
ATOM     28  HD  BDP B   2      18.347  19.406   6.0600  0.00  0.00     0.000 HD
ATOM     28   O  BDP B   2      20.776  20.273   3.7100  0.00  0.00     0.000 O
ATOM     30  HD  BDP B   2      19.967  19.988   3.8260  0.00  0.00     0.000 HD
BRANCH 24 30
ATOM     30   C  BDP B   2      17.044  18.617   0.9200  0.00  0.00     0.000 C
ATOM     31   O  BDP B   2      16.331  19.330   0.1750  0.00  0.00     0.000 OA
ATOM     32   O  BDP B   2      17.400  17.436   0.6470  0.00  0.00     0.000 OA
ENDBRANCH 24 30
BRANCH 20 33
ATOM     33  O3  NAG B   3      17.208  17.785   5.4840  0.00  0.00     0.000 O
BRANCH 33 36
ATOM     34  C1  NAG B   3      14.084  17.600   7.5710  0.00  0.00     0.000 C
ATOM     35  C2  NAG B   3      15.500  17.987   7.1880  0.00  0.00     0.000 C
ATOM     36  C3  NAG B   3      15.814  17.589   5.7380  0.00  0.00     0.000 C
ATOM     37  C4  NAG B   3      15.477  16.114   5.5340  0.00  0.00     0.000 C
ATOM     38  C5  NAG B   3      14.064  15.820   6.0310  0.00  0.00     0.000 C
ATOM     39  O5  NAG B   3      13.942  16.199   7.3910  0.00  0.00     0.000 O
ATOM     40   O  NAG B   3      15.574  15.776   4.1420  0.00  0.00     0.000 O
ATOM     42  HD  NAG B   3      14.766  15.496   4.2810  0.00  0.00     0.000 HD
ATOM     42   C  NAG B   3      13.689  14.341   5.9860  0.00  0.00     0.000 C
ATOM     43   O  NAG B   3      14.508  13.611   6.9080  0.00  0.00     0.000 O
ATOM     45  HD  NAG B   3      13.700  13.331   7.0470  0.00  0.00     0.000 HD
BRANCH 35 47
ATOM     45   N  NAG B   3      15.674  19.410   7.4500  0.00  0.00     0.000 N
ATOM     47  HD  NAG B   3      14.856  19.147   7.5650  0.00  0.00     0.000 HD
ATOM     47   C  NAG B   3      16.744  19.905   8.0390  0.00  0.00     0.000 C
ATOM     48   C  NAG B   3      16.754  21.390   8.2520  0.00  0.00     0.000 C
ATOM     49   O  NAG B   3      17.670  19.189   8.4160  0.00  0.00     0.000 OA
ENDBRANCH 35 47
BRANCH 34 50
ATOM     50  O4  BDP B   4      14.007  17.931   8.9420  0.00  0.00     0.000 O
BRANCH 50 54
ATOM     51  C1  BDP B   4      11.488  19.347  11.8060  0.00  0.00     0.000 C
ATOM     52  C2  BDP B   4      11.531  17.827  11.6980  0.00  0.00     0.000 C
ATOM     53  C3  BDP B   4      12.737  17.437  10.9000  0.00  0.00     0.000 C
ATOM     54  C4  BDP B   4      12.713  18.163   9.5240  0.00  0.00     0.000 C
ATOM     55  C5  BDP B   4      12.468  19.659   9.6630  0.00  0.00     0.000 C
ATOM     56  O5  BDP B   4      11.350  19.904  10.5110  0.00  0.00     0.000 O
ATOM     57   O  BDP B   4      11.613  17.247  12.9820  0.00  0.00     0.000 O
ATOM     59  HD  BDP B   4      10.813  16.957  13.1420  0.00  0.00     0.000 HD
ATOM     59   O  BDP B   4      12.638  16.019  10.6550  0.00  0.00     0.000 O
ATOM     61  HD  BDP B   4      11.838  15.729  10.8150  0.00  0.00     0.000 HD
BRANCH 55 61
ATOM     61   C  BDP B   4      12.193  20.251   8.2920  0.00  0.00     0.000 C
ATOM     62   O  BDP B   4      13.087  20.965   7.7660  0.00  0.00     0.000 OA
ATOM     63   O  BDP B   4      11.078  19.998   7.7410  0.00  0.00     0.000 OA
ENDBRANCH 55 61
BRANCH 51 64
ATOM     64  O3  NAG B   5      10.357  19.685  12.6310  0.00  0.00     0.000 O
BRANCH 64 67
ATOM     65  C1  NAG B   5      10.383  22.409  15.1150  0.00  0.00     0.000 C
ATOM     66  C2  NAG B   5      10.586  21.018  14.5420  0.00  0.00     0.000 C
ATOM     67  C3  NAG B   5      10.363  21.040  13.0350  0.00  0.00     0.000 C
ATOM     68  C4  NAG B   5       9.013  21.682  12.6870  0.00  0.00     0.000 C
ATOM     69  C5  NAG B   5       8.864  23.028  13.3800  0.00  0.00     0.000 C
ATOM     70  O5  NAG B   5       9.096  22.881  14.7880  0.00  0.00     0.000 O
ATOM     71   O  NAG B   5       8.924  21.816  11.2850  0.00  0.00     0.000 O
ATOM     73  HD  NAG B   5       8.115  21.544  11.4310  0.00  0.00     0.000 HD
ATOM     73   C  NAG B   5       7.490  23.687  13.1920  0.00  0.00     0.000 C
ATOM     74   O  NAG B   5       6.473  22.869  13.8060  0.00  0.00     0.000 O
ATOM     76  HD  NAG B   5       5.664  22.597  13.9520  0.00  0.00     0.000 HD
BRANCH 66 78
ATOM     76   N  NAG B   5      11.932  20.658  15.0270  0.00  0.00     0.000 N
ATOM     78  HD  NAG B   5      11.134  20.322  15.0550  0.00  0.00     0.000 HD
ATOM     78   C  NAG B   5      12.297  19.471  15.5360  0.00  0.00     0.000 C
ATOM     79   C  NAG B   5      13.748  19.406  15.9260  0.00  0.00     0.000 C
ATOM     80   O  NAG B   5      11.484  18.490  15.6830  0.00  0.00     0.000 OA
ENDBRANCH 66 78
BRANCH 65 81
ATOM     81  O4  BDP B   6      10.546  22.385  16.5390  0.00  0.00     0.000 O
BRANCH 81 85
ATOM     82  C1  BDP B   6      11.499  25.027  19.7750  0.00  0.00     0.000 C
ATOM     83  C2  BDP B   6      10.069  25.050  19.2430  0.00  0.00     0.000 C
ATOM     84  C3  BDP B   6       9.728  23.820  18.3990  0.00  0.00     0.000 C
ATOM     85  C4  BDP B   6      10.765  23.575  17.3000  0.00  0.00     0.000 C
ATOM     86  C5  BDP B   6      12.167  23.609  17.9530  0.00  0.00     0.000 C
ATOM     87  O5  BDP B   6      12.397  24.854  18.6880  0.00  0.00     0.000 O
ATOM     88   O  BDP B   6       9.235  25.082  20.3980  0.00  0.00     0.000 O
ATOM     90  HD  BDP B   6       8.503  24.733  20.7020  0.00  0.00     0.000 HD
ATOM     90   O  BDP B   6       8.419  23.966  17.8440  0.00  0.00     0.000 O
ATOM     92  HD  BDP B   6       7.687  23.617  18.1480  0.00  0.00     0.000 HD
BRANCH 86 92
ATOM     92   C  BDP B   6      13.244  23.611  16.8950  0.00  0.00     0.000 C
ATOM     93   O  BDP B   6      14.160  22.736  16.9350  0.00  0.00     0.000 OA
ATOM     94   O  BDP B   6      13.169  24.494  15.9840  0.00  0.00     0.000 OA
ENDBRANCH 86 92
BRANCH 82 95
ATOM     95  O3  NAG B   7      11.779  26.305  20.3800  0.00  0.00     0.000 O
BRANCH 95 98
ATOM     96  C1  NAG B   7      13.077  27.480  23.5850  0.00  0.00     0.000 C
ATOM     97  C2  NAG B   7      12.135  27.455  22.3890  0.00  0.00     0.000 C
ATOM     98  C3  NAG B   7      12.697  26.372  21.4700  0.00  0.00     0.000 C
ATOM     99  C4  NAG B   7      14.121  26.732  21.0530  0.00  0.00     0.000 C
ATOM    100  C5  NAG B   7      14.998  26.998  22.2780  0.00  0.00     0.000 C
ATOM    101  O5  NAG B   7      14.347  27.944  23.1120  0.00  0.00     0.000 O
BRANCH 97 104
ATOM    102   N  NAG B   7      10.749  27.031  22.6300  0.00  0.00     0.000 N
ATOM    104  HD  NAG B   7       9.998  26.602  22.5910  0.00  0.00     0.000 HD
ATOM    104   O  NAG B   7       8.492  27.217  22.6620  0.00  0.00     0.000 OA
ATOM    105   C  NAG B   7       9.611  27.733  22.4720  0.00  0.00     0.000 C
ATOM    106   C  NAG B   7       9.693  29.159  22.0460  0.00  0.00     0.000 C
ENDBRANCH 97 104
ATOM    107   O  NAG B   7      17.198  27.419  22.9730  0.00  0.00     0.000 O
ATOM    109  HD  NAG B   7      16.464  27.002  23.1620  0.00  0.00     0.000 HD
ATOM    109   O  NAG B   7      17.198  27.419  22.9730  0.00  0.00     0.000 O
ATOM    111  HD  NAG B   7      16.464  27.002  23.1620  0.00  0.00     0.000 HD
ENDBRANCH 95 98
ENDBRANCH 82 95
ENDBRANCH 81 85
ENDBRANCH 65 81
ENDBRANCH 64 67
ENDBRANCH 51 64
ENDBRANCH 50 54
ENDBRANCH 34 50
ENDBRANCH 33 36
ENDBRANCH 20 33
ENDBRANCH 19 23
ENDBRANCH 1 19
TORSDOF 19
ENDMDL
MODEL 95
REMARK VINA RESULT:      -3.0     10.991     24.913
ROOT
ATOM      1  C1  NAG B   1      10.808  21.445   7.4950  0.00  0.00     0.000 C
ATOM      2  C2  NAG B   1      12.275  21.058   7.3330  0.00  0.00     0.000 C
ATOM      3  C3  NAG B   1      13.158  22.270   7.1180  0.00  0.00     0.000 C
ATOM      4  C4  NAG B   1      12.601  22.967   5.8810  0.00  0.00     0.000 C
ATOM      5  C5  NAG B   1      11.171  23.441   6.1720  0.00  0.00     0.000 C
ATOM      6  O5  NAG B   1      10.306  22.327   6.4790  0.00  0.00     0.000 O
ATOM      7   O  NAG B   1      14.545  21.908   6.9240  0.00  0.00     0.000 O
ATOM      9  HD  NAG B   1      14.274  21.313   7.4930  0.00  0.00     0.000 HD
ATOM      9   O  NAG B   1      13.414  24.077   5.5380  0.00  0.00     0.000 O
ATOM     11  HD  NAG B   1      13.143  23.482   6.1060  0.00  0.00     0.000 HD
ATOM     11   C  NAG B   1      10.641  24.264   4.9910  0.00  0.00     0.000 C
ATOM     12   O  NAG B   1       9.222  24.167   4.8880  0.00  0.00     0.000 O
ATOM     14  HD  NAG B   1       8.951  23.572   5.4560  0.00  0.00     0.000 HD
ENDROOT
BRANCH 2 16
ATOM     14   N  NAG B   1      12.749  20.264   8.4800  0.00  0.00     0.000 N
ATOM     16  HD  NAG B   1      12.492  19.686   9.0720  0.00  0.00     0.000 HD
ATOM     16   C  NAG B   1      13.077  18.964   8.3880  0.00  0.00     0.000 C
ATOM     17   C  NAG B   1      12.941  18.245   7.0720  0.00  0.00     0.000 C
ATOM     18   O  NAG B   1      13.516  18.346   9.3580  0.00  0.00     0.000 OA
ENDBRANCH 2 16
BRANCH 1 19
ATOM     19  O4  BDP B   2      10.126  20.212   7.3150  0.00  0.00     0.000 O
BRANCH 19 23
ATOM     20  C1  BDP B   2       6.836  21.351   9.5110  0.00  0.00     0.000 C
ATOM     21  C2  BDP B   2       7.890  20.549  10.2450  0.00  0.00     0.000 C
ATOM     22  C3  BDP B   2       9.202  20.551   9.4940  0.00  0.00     0.000 C
ATOM     23  C4  BDP B   2       8.942  20.083   8.0650  0.00  0.00     0.000 C
ATOM     24  C5  BDP B   2       7.882  20.963   7.4310  0.00  0.00     0.000 C
ATOM     25  O5  BDP B   2       6.685  20.877   8.1800  0.00  0.00     0.000 O
ATOM     26   O  BDP B   2       8.084  21.068  11.5430  0.00  0.00     0.000 O
ATOM     28  HD  BDP B   2       7.365  21.490  11.3110  0.00  0.00     0.000 HD
ATOM     28   O  BDP B   2      10.140  19.705  10.1770  0.00  0.00     0.000 O
ATOM     30  HD  BDP B   2       9.421  20.127   9.9440  0.00  0.00     0.000 HD
BRANCH 24 30
ATOM     30   C  BDP B   2       7.572  20.553   6.0370  0.00  0.00     0.000 C
ATOM     31   O  BDP B   2       7.341  19.338   5.8330  0.00  0.00     0.000 OA
ATOM     32   O  BDP B   2       7.564  21.440   5.1360  0.00  0.00     0.000 OA
ENDBRANCH 24 30
BRANCH 20 33
ATOM     33  O3  NAG B   3       5.653  21.096  10.2290  0.00  0.00     0.000 O
BRANCH 33 36
ATOM     34  C1  NAG B   3       2.944  23.705  10.2220  0.00  0.00     0.000 C
ATOM     35  C2  NAG B   3       4.237  23.021  10.6200  0.00  0.00     0.000 C
ATOM     36  C3  NAG B   3       4.545  21.829   9.7010  0.00  0.00     0.000 C
ATOM     37  C4  NAG B   3       3.328  20.909   9.6410  0.00  0.00     0.000 C
ATOM     38  C5  NAG B   3       2.072  21.714   9.3170  0.00  0.00     0.000 C
ATOM     39  O5  NAG B   3       1.898  22.745  10.2750  0.00  0.00     0.000 O
ATOM     40   O  NAG B   3       3.522  19.902   8.6350  0.00  0.00     0.000 O
ATOM     42  HD  NAG B   3       2.763  20.211   8.3550  0.00  0.00     0.000 HD
ATOM     42   C  NAG B   3       0.784  20.895   9.3650  0.00  0.00     0.000 C
ATOM     43   O  NAG B   3       0.544  20.458  10.7080  0.00  0.00     0.000 O
ATOM     45  HD  NAG B   3      -0.215  20.767  10.4280  0.00  0.00     0.000 HD
BRANCH 35 47
ATOM     45   N  NAG B   3       5.272  24.046  10.6680  0.00  0.00     0.000 N
ATOM     47  HD  NAG B   3       4.510  24.354  10.3950  0.00  0.00     0.000 HD
ATOM     47   C  NAG B   3       6.184  24.100  11.6190  0.00  0.00     0.000 C
ATOM     48   C  NAG B   3       7.164  25.232  11.5310  0.00  0.00     0.000 C
ATOM     49   O  NAG B   3       6.214  23.286  12.5400  0.00  0.00     0.000 OA
ENDBRANCH 35 47
BRANCH 34 50
ATOM     50  O4  BDP B   4       2.763  24.685  11.2220  0.00  0.00     0.000 O
BRANCH 50 54
ATOM     51  C1  BDP B   4       1.636  28.556  11.7710  0.00  0.00     0.000 C
ATOM     52  C2  BDP B   4       0.532  27.535  12.0190  0.00  0.00     0.000 C
ATOM     53  C3  BDP B   4       1.153  26.179  12.1530  0.00  0.00     0.000 C
ATOM     54  C4  BDP B   4       2.020  25.872  10.8980  0.00  0.00     0.000 C
ATOM     55  C5  BDP B   4       2.977  27.008  10.5630  0.00  0.00     0.000 C
ATOM     56  O5  BDP B   4       2.286  28.254  10.5490  0.00  0.00     0.000 O
ATOM     57   O  BDP B   4      -0.167  27.849  13.2050  0.00  0.00     0.000 O
ATOM     59  HD  BDP B   4      -0.909  28.204  12.9340  0.00  0.00     0.000 HD
ATOM     59   O  BDP B   4       0.073  25.224  12.1920  0.00  0.00     0.000 O
ATOM     61  HD  BDP B   4      -0.669  25.580  11.9200  0.00  0.00     0.000 HD
BRANCH 55 61
ATOM     61   C  BDP B   4       3.588  26.761   9.1960  0.00  0.00     0.000 C
ATOM     62   O  BDP B   4       4.833  26.587   9.1280  0.00  0.00     0.000 OA
ATOM     63   O  BDP B   4       2.818  26.740   8.1880  0.00  0.00     0.000 OA
ENDBRANCH 55 61
BRANCH 51 64
ATOM     64  O3  NAG B   5       1.014  29.854  11.7110  0.00  0.00     0.000 O
BRANCH 64 67
ATOM     65  C1  NAG B   5       2.598  32.852  13.1570  0.00  0.00     0.000 C
ATOM     66  C2  NAG B   5       1.797  31.563  13.1050  0.00  0.00     0.000 C
ATOM     67  C3  NAG B   5       1.953  30.910  11.7380  0.00  0.00     0.000 C
ATOM     68  C4  NAG B   5       1.637  31.904  10.6120  0.00  0.00     0.000 C
ATOM     69  C5  NAG B   5       2.416  33.196  10.8010  0.00  0.00     0.000 C
ATOM     70  O5  NAG B   5       2.190  33.715  12.1200  0.00  0.00     0.000 O
ATOM     71   O  NAG B   5       1.943  31.298   9.3750  0.00  0.00     0.000 O
ATOM     73  HD  NAG B   5       1.196  31.671   9.1440  0.00  0.00     0.000 HD
ATOM     73   C  NAG B   5       2.066  34.299   9.7910  0.00  0.00     0.000 C
ATOM     74   O  NAG B   5       0.691  34.697   9.9670  0.00  0.00     0.000 O
ATOM     76  HD  NAG B   5      -0.056  35.070   9.7370  0.00  0.00     0.000 HD
BRANCH 66 78
ATOM     76   N  NAG B   5       2.297  30.821  14.2780  0.00  0.00     0.000 N
ATOM     78  HD  NAG B   5       1.532  31.085  13.9700  0.00  0.00     0.000 HD
ATOM     78   C  NAG B   5       1.548  30.138  15.1580  0.00  0.00     0.000 C
ATOM     79   C  NAG B   5       2.352  29.469  16.2390  0.00  0.00     0.000 C
ATOM     80   O  NAG B   5       0.269  30.071  15.0890  0.00  0.00     0.000 OA
ENDBRANCH 66 78
BRANCH 65 81
ATOM     81  O4  BDP B   6       2.417  33.495  14.4250  0.00  0.00     0.000 O
BRANCH 81 85
ATOM     82  C1  BDP B   6       4.396  36.277  17.0150  0.00  0.00     0.000 C
ATOM     83  C2  BDP B   6       3.692  36.838  15.7830  0.00  0.00     0.000 C
ATOM     84  C3  BDP B   6       2.695  35.853  15.1670  0.00  0.00     0.000 C
ATOM     85  C4  BDP B   6       3.327  34.483  14.9140  0.00  0.00     0.000 C
ATOM     86  C5  BDP B   6       4.036  34.039  16.2160  0.00  0.00     0.000 C
ATOM     87  O5  BDP B   6       5.002  35.036  16.6800  0.00  0.00     0.000 O
ATOM     88   O  BDP B   6       2.998  37.997  16.2380  0.00  0.00     0.000 O
ATOM     90  HD  BDP B   6       2.236  38.398  16.1440  0.00  0.00     0.000 HD
ATOM     90   O  BDP B   6       2.163  36.402  13.9590  0.00  0.00     0.000 O
ATOM     92  HD  BDP B   6       1.401  36.803  13.8650  0.00  0.00     0.000 HD
BRANCH 86 92
ATOM     92   C  BDP B   6       4.878  32.811  15.9680  0.00  0.00     0.000 C
ATOM     93   O  BDP B   6       5.639  32.770  14.9550  0.00  0.00     0.000 OA
ATOM     94   O  BDP B   6       4.802  31.867  16.8150  0.00  0.00     0.000 OA
ENDBRANCH 86 92
BRANCH 82 95
ATOM     95  O3  NAG B   7       5.443  37.191  17.3950  0.00  0.00     0.000 O
BRANCH 95 98
ATOM     96  C1  NAG B   7       6.366  39.320  20.2160  0.00  0.00     0.000 C
ATOM     97  C2  NAG B   7       6.266  38.914  18.7520  0.00  0.00     0.000 C
ATOM     98  C3  NAG B   7       5.594  37.543  18.7700  0.00  0.00     0.000 C
ATOM     99  C4  NAG B   7       6.446  36.558  19.5660  0.00  0.00     0.000 C
ATOM    100  C5  NAG B   7       6.746  37.101  20.9640  0.00  0.00     0.000 C
ATOM    101  O5  NAG B   7       7.277  38.412  20.8440  0.00  0.00     0.000 O
BRANCH 97 104
ATOM    102   N  NAG B   7       5.396  39.715  17.8800  0.00  0.00     0.000 N
ATOM    104  HD  NAG B   7       4.774  39.951  17.3250  0.00  0.00     0.000 HD
ATOM    104   O  NAG B   7       4.867  41.053  16.1300  0.00  0.00     0.000 OA
ATOM    105   C  NAG B   7       5.730  40.471  16.8160  0.00  0.00     0.000 C
ATOM    106   C  NAG B   7       7.167  40.601  16.4440  0.00  0.00     0.000 C
ENDBRANCH 97 104
ATOM    107   O  NAG B   7       7.695  36.560  23.0400  0.00  0.00     0.000 O
ATOM    109  HD  NAG B   7       7.044  36.972  22.6450  0.00  0.00     0.000 HD
ATOM    109   O  NAG B   7       7.695  36.560  23.0400  0.00  0.00     0.000 O
ATOM    111  HD  NAG B   7       7.044  36.972  22.6450  0.00  0.00     0.000 HD
ENDBRANCH 95 98
ENDBRANCH 82 95
ENDBRANCH 81 85
ENDBRANCH 65 81
ENDBRANCH 64 67
ENDBRANCH 51 64
ENDBRANCH 50 54
ENDBRANCH 34 50
ENDBRANCH 33 36
ENDBRANCH 20 33
ENDBRANCH 19 23
ENDBRANCH 1 19
TORSDOF 19
ENDMDL
MODEL 96
REMARK VINA RESULT:      -3.0     15.020     19.204
ROOT
ATOM      1  C1  NAG B   1      12.819  23.335  28.3630  0.00  0.00     0.000 C
ATOM      2  C2  NAG B   1      12.864  24.127  29.6670  0.00  0.00     0.000 C
ATOM      3  C3  NAG B   1      13.298  25.561  29.4410  0.00  0.00     0.000 C
ATOM      4  C4  NAG B   1      14.664  25.472  28.7670  0.00  0.00     0.000 C
ATOM      5  C5  NAG B   1      14.509  24.781  27.4060  0.00  0.00     0.000 C
ATOM      6  O5  NAG B   1      14.005  23.437  27.5590  0.00  0.00     0.000 O
ATOM      7   O  NAG B   1      13.381  26.307  30.6770  0.00  0.00     0.000 O
ATOM      9  HD  NAG B   1      12.711  25.778  30.8220  0.00  0.00     0.000 HD
ATOM      9   O  NAG B   1      15.205  26.771  28.5880  0.00  0.00     0.000 O
ATOM     11  HD  NAG B   1      14.534  26.242  28.7330  0.00  0.00     0.000 HD
ATOM     11   C  NAG B   1      15.845  24.804  26.6520  0.00  0.00     0.000 C
ATOM     12   O  NAG B   1      15.961  23.689  25.7710  0.00  0.00     0.000 O
ATOM     14  HD  NAG B   1      15.291  23.160  25.9160  0.00  0.00     0.000 HD
ENDROOT
BRANCH 2 16
ATOM     14   N  NAG B   1      12.614  23.533  30.9920  0.00  0.00     0.000 N
ATOM     16  HD  NAG B   1      12.464  23.735  31.8210  0.00  0.00     0.000 HD
ATOM     16   C  NAG B   1      11.387  23.433  31.5330  0.00  0.00     0.000 C
ATOM     17   C  NAG B   1      10.192  23.967  30.7890  0.00  0.00     0.000 C
ATOM     18   O  NAG B   1      11.212  22.886  32.6210  0.00  0.00     0.000 OA
ENDBRANCH 2 16
BRANCH 1 19
ATOM     19  O4  BDP B   2      12.762  21.986  28.8060  0.00  0.00     0.000 O
BRANCH 19 23
ATOM     20  C1  BDP B   2      10.165  19.327  27.0380  0.00  0.00     0.000 C
ATOM     21  C2  BDP B   2       9.926  20.795  26.7490  0.00  0.00     0.000 C
ATOM     22  C3  BDP B   2      11.145  21.624  27.0840  0.00  0.00     0.000 C
ATOM     23  C4  BDP B   2      11.550  21.328  28.5250  0.00  0.00     0.000 C
ATOM     24  C5  BDP B   2      11.772  19.837  28.6890  0.00  0.00     0.000 C
ATOM     25  O5  BDP B   2      10.577  19.144  28.3850  0.00  0.00     0.000 O
ATOM     26   O  BDP B   2       9.584  20.977  25.3920  0.00  0.00     0.000 O
ATOM     28  HD  BDP B   2       9.523  20.115  25.4550  0.00  0.00     0.000 HD
ATOM     28   O  BDP B   2      10.841  23.014  26.8840  0.00  0.00     0.000 O
ATOM     30  HD  BDP B   2      10.779  22.152  26.9470  0.00  0.00     0.000 HD
BRANCH 24 30
ATOM     30   C  BDP B   2      12.160  19.477  30.0780  0.00  0.00     0.000 C
ATOM     31   O  BDP B   2      11.448  19.922  31.0080  0.00  0.00     0.000 OA
ATOM     32   O  BDP B   2      13.184  18.754  30.2490  0.00  0.00     0.000 OA
ENDBRANCH 24 30
BRANCH 20 33
ATOM     33  O3  NAG B   3       8.902  18.735  26.8570  0.00  0.00     0.000 O
BRANCH 33 36
ATOM     34  C1  NAG B   3       8.653  15.181  25.6470  0.00  0.00     0.000 C
ATOM     35  C2  NAG B   3       8.804  16.688  25.5660  0.00  0.00     0.000 C
ATOM     36  C3  NAG B   3       8.966  17.310  26.9620  0.00  0.00     0.000 C
ATOM     37  C4  NAG B   3       7.832  16.830  27.8640  0.00  0.00     0.000 C
ATOM     38  C5  NAG B   3       7.715  15.309  27.8030  0.00  0.00     0.000 C
ATOM     39  O5  NAG B   3       7.526  14.891  26.4620  0.00  0.00     0.000 O
ATOM     40   O  NAG B   3       8.076  17.237  29.2190  0.00  0.00     0.000 O
ATOM     42  HD  NAG B   3       7.970  16.389  29.3620  0.00  0.00     0.000 HD
ATOM     42   C  NAG B   3       6.523  14.750  28.5750  0.00  0.00     0.000 C
ATOM     43   O  NAG B   3       5.306  15.186  27.9560  0.00  0.00     0.000 O
ATOM     45  HD  NAG B   3       5.200  14.338  28.0990  0.00  0.00     0.000 HD
BRANCH 35 47
ATOM     45   N  NAG B   3       8.761  17.539  24.3840  0.00  0.00     0.000 N
ATOM     47  HD  NAG B   3       8.167  17.758  24.9740  0.00  0.00     0.000 HD
ATOM     47   C  NAG B   3       9.844  17.930  23.7410  0.00  0.00     0.000 C
ATOM     48   C  NAG B   3       9.624  18.821  22.5550  0.00  0.00     0.000 C
ATOM     49   O  NAG B   3      10.971  17.605  24.1080  0.00  0.00     0.000 OA
ENDBRANCH 35 47
BRANCH 34 50
ATOM     50  O4  BDP B   4       8.405  14.798  24.3110  0.00  0.00     0.000 O
BRANCH 50 54
ATOM     51  C1  BDP B   4       8.153  11.602  21.8060  0.00  0.00     0.000 C
ATOM     52  C2  BDP B   4       6.865  11.919  22.5560  0.00  0.00     0.000 C
ATOM     53  C3  BDP B   4       6.973  13.297  23.1330  0.00  0.00     0.000 C
ATOM     54  C4  BDP B   4       8.253  13.400  24.0120  0.00  0.00     0.000 C
ATOM     55  C5  BDP B   4       9.492  12.884  23.2930  0.00  0.00     0.000 C
ATOM     56  O5  BDP B   4       9.238  11.607  22.7160  0.00  0.00     0.000 O
ATOM     57   O  BDP B   4       5.760  11.865  21.6780  0.00  0.00     0.000 O
ATOM     59  HD  BDP B   4       5.376  11.110  21.8570  0.00  0.00     0.000 HD
ATOM     59   O  BDP B   4       5.829  13.485  23.9900  0.00  0.00     0.000 O
ATOM     61  HD  BDP B   4       5.445  12.730  24.1690  0.00  0.00     0.000 HD
BRANCH 55 61
ATOM     61   C  BDP B   4      10.634  12.765  24.2870  0.00  0.00     0.000 C
ATOM     62   O  BDP B   4      11.612  13.548  24.1600  0.00  0.00     0.000 OA
ATOM     63   O  BDP B   4      10.549  11.884  25.1970  0.00  0.00     0.000 OA
ENDBRANCH 55 61
BRANCH 51 64
ATOM     64  O3  NAG B   5       7.991  10.300  21.2110  0.00  0.00     0.000 O
BRANCH 64 67
ATOM     65  C1  NAG B   5       9.687   9.765  17.9810  0.00  0.00     0.000 C
ATOM     66  C2  NAG B   5       8.680  10.319  18.9740  0.00  0.00     0.000 C
ATOM     67  C3  NAG B   5       9.085   9.936  20.3910  0.00  0.00     0.000 C
ATOM     68  C4  NAG B   5       9.328   8.425  20.5050  0.00  0.00     0.000 C
ATOM     69  C5  NAG B   5      10.275   7.949  19.4150  0.00  0.00     0.000 C
ATOM     70  O5  NAG B   5       9.791   8.368  18.1300  0.00  0.00     0.000 O
ATOM     71   O  NAG B   5       9.845   8.146  21.7890  0.00  0.00     0.000 O
ATOM     73  HD  NAG B   5       9.294   7.480  21.7340  0.00  0.00     0.000 HD
ATOM     73   C  NAG B   5      10.477   6.428  19.3730  0.00  0.00     0.000 C
ATOM     74   O  NAG B   5       9.227   5.783  19.0490  0.00  0.00     0.000 O
ATOM     76  HD  NAG B   5       8.676   5.116  18.9940  0.00  0.00     0.000 HD
BRANCH 66 78
ATOM     76   N  NAG B   5       8.639  11.739  18.5750  0.00  0.00     0.000 N
ATOM     78  HD  NAG B   5       8.071  11.106  18.7340  0.00  0.00     0.000 HD
ATOM     78   C  NAG B   5       7.547  12.519  18.5420  0.00  0.00     0.000 C
ATOM     79   C  NAG B   5       7.832  13.932  18.1090  0.00  0.00     0.000 C
ATOM     80   O  NAG B   5       6.373  12.098  18.8410  0.00  0.00     0.000 OA
ENDBRANCH 66 78
BRANCH 65 81
ATOM     81  O4  BDP B   6       9.285  10.083  16.6420  0.00  0.00     0.000 O
BRANCH 81 85
ATOM     82  C1  BDP B   6      10.953  10.361  12.7050  0.00  0.00     0.000 C
ATOM     83  C2  BDP B   6      10.557   8.976  13.2070  0.00  0.00     0.000 C
ATOM     84  C3  BDP B   6       9.618   9.027  14.4150  0.00  0.00     0.000 C
ATOM     85  C4  BDP B   6      10.165   9.925  15.5260  0.00  0.00     0.000 C
ATOM     86  C5  BDP B   6      10.562  11.279  14.8910  0.00  0.00     0.000 C
ATOM     87  O5  BDP B   6      11.501  11.107  13.7820  0.00  0.00     0.000 O
ATOM     88   O  BDP B   6       9.891   8.351  12.1120  0.00  0.00     0.000 O
ATOM     90  HD  BDP B   6       9.201   7.855  11.9460  0.00  0.00     0.000 HD
ATOM     90   O  BDP B   6       9.384   7.701  14.8970  0.00  0.00     0.000 O
ATOM     92  HD  BDP B   6       8.693   7.205  14.7310  0.00  0.00     0.000 HD
BRANCH 86 92
ATOM     92   C  BDP B   6      11.326  12.125  15.8810  0.00  0.00     0.000 C
ATOM     93   O  BDP B   6      12.544  11.865  16.1150  0.00  0.00     0.000 OA
ATOM     94   O  BDP B   6      10.707  13.090  16.4280  0.00  0.00     0.000 OA
ENDBRANCH 86 92
BRANCH 82 95
ATOM     95  O3  NAG B   7      11.981  10.205  11.7070  0.00  0.00     0.000 O
BRANCH 95 98
ATOM     96  C1  NAG B   7      12.595  10.893   8.1730  0.00  0.00     0.000 C
ATOM     97  C2  NAG B   7      12.760  10.163   9.4990  0.00  0.00     0.000 C
ATOM     98  C3  NAG B   7      11.875  10.927  10.4810  0.00  0.00     0.000 C
ATOM     99  C4  NAG B   7      12.342  12.378  10.5790  0.00  0.00     0.000 C
ATOM    100  C5  NAG B   7      12.407  13.026   9.1960  0.00  0.00     0.000 C
ATOM    101  O5  NAG B   7      13.170  12.195   8.3340  0.00  0.00     0.000 O
BRANCH 97 104
ATOM    102   N  NAG B   7      12.261   8.783   9.5840  0.00  0.00     0.000 N
ATOM    104  HD  NAG B   7      11.831   8.075   9.8340  0.00  0.00     0.000 HD
ATOM    104   O  NAG B   7      12.381   6.543   9.8970  0.00  0.00     0.000 OA
ATOM    105   C  NAG B   7      12.953   7.646   9.7890  0.00  0.00     0.000 C
ATOM    106   C  NAG B   7      14.437   7.711   9.9030  0.00  0.00     0.000 C
ENDBRANCH 97 104
ATOM    107   O  NAG B   7      12.754  15.056   8.0730  0.00  0.00     0.000 O
ATOM    109  HD  NAG B   7      12.291  14.325   8.0870  0.00  0.00     0.000 HD
ATOM    109   O  NAG B   7      12.754  15.056   8.0730  0.00  0.00     0.000 O
ATOM    111  HD  NAG B   7      12.291  14.325   8.0870  0.00  0.00     0.000 HD
ENDBRANCH 95 98
ENDBRANCH 82 95
ENDBRANCH 81 85
ENDBRANCH 65 81
ENDBRANCH 64 67
ENDBRANCH 51 64
ENDBRANCH 50 54
ENDBRANCH 34 50
ENDBRANCH 33 36
ENDBRANCH 20 33
ENDBRANCH 19 23
ENDBRANCH 1 19
TORSDOF 19
ENDMDL
MODEL 97
REMARK VINA RESULT:      -3.0     13.451     20.266
ROOT
ATOM      1  C1  NAG B   1      22.791  26.567  26.7170  0.00  0.00     0.000 C
ATOM      2  C2  NAG B   1      24.110  26.593  27.4850  0.00  0.00     0.000 C
ATOM      3  C3  NAG B   1      24.055  25.731  28.7300  0.00  0.00     0.000 C
ATOM      4  C4  NAG B   1      22.892  26.277  29.5530  0.00  0.00     0.000 C
ATOM      5  C5  NAG B   1      21.588  26.092  28.7650  0.00  0.00     0.000 C
ATOM      6  O5  NAG B   1      21.626  26.820  27.5180  0.00  0.00     0.000 O
ATOM      7   O  NAG B   1      25.288  25.782  29.4840  0.00  0.00     0.000 O
ATOM      9  HD  NAG B   1      25.566  25.838  28.6660  0.00  0.00     0.000 HD
ATOM      9   O  NAG B   1      22.805  25.591  30.7900  0.00  0.00     0.000 O
ATOM     11  HD  NAG B   1      23.084  25.647  29.9720  0.00  0.00     0.000 HD
ATOM     11   C  NAG B   1      20.391  26.508  29.6280  0.00  0.00     0.000 C
ATOM     12   O  NAG B   1      19.312  26.981  28.8240  0.00  0.00     0.000 O
ATOM     14  HD  NAG B   1      19.591  27.038  28.0060  0.00  0.00     0.000 HD
ENDROOT
BRANCH 2 16
ATOM     14   N  NAG B   1      25.108  27.491  26.8790  0.00  0.00     0.000 N
ATOM     16  HD  NAG B   1      25.888  27.845  27.0110  0.00  0.00     0.000 HD
ATOM     16   C  NAG B   1      26.204  27.047  26.2390  0.00  0.00     0.000 C
ATOM     17   C  NAG B   1      26.470  25.568  26.1420  0.00  0.00     0.000 C
ATOM     18   O  NAG B   1      26.990  27.828  25.7020  0.00  0.00     0.000 OA
ENDBRANCH 2 16
BRANCH 1 19
ATOM     19  O4  BDP B   2      22.908  27.675  25.8350  0.00  0.00     0.000 O
BRANCH 19 23
ATOM     20  C1  BDP B   2      20.318  26.131  23.0340  0.00  0.00     0.000 C
ATOM     21  C2  BDP B   2      21.793  25.884  22.7950  0.00  0.00     0.000 C
ATOM     22  C3  BDP B   2      22.598  26.110  24.0550  0.00  0.00     0.000 C
ATOM     23  C4  BDP B   2      22.275  27.502  24.5900  0.00  0.00     0.000 C
ATOM     24  C5  BDP B   2      20.778  27.627  24.8000  0.00  0.00     0.000 C
ATOM     25  O5  BDP B   2      20.110  27.430  23.5690  0.00  0.00     0.000 O
ATOM     26   O  BDP B   2      22.000  24.567  22.3290  0.00  0.00     0.000 O
ATOM     28  HD  BDP B   2      21.139  24.626  22.2580  0.00  0.00     0.000 HD
ATOM     28   O  BDP B   2      23.995  25.957  23.7590  0.00  0.00     0.000 O
ATOM     30  HD  BDP B   2      23.133  26.015  23.6880  0.00  0.00     0.000 HD
BRANCH 24 30
ATOM     30   C  BDP B   2      20.393  28.969  25.3120  0.00  0.00     0.000 C
ATOM     31   O  BDP B   2      20.780  29.966  24.6590  0.00  0.00     0.000 OA
ATOM     32   O  BDP B   2      19.708  29.034  26.3720  0.00  0.00     0.000 OA
ENDBRANCH 24 30
BRANCH 20 33
ATOM     33  O3  NAG B   3      19.750  26.064  21.7490  0.00  0.00     0.000 O
BRANCH 33 36
ATOM     34  C1  NAG B   3      16.233  24.830  21.2360  0.00  0.00     0.000 C
ATOM     35  C2  NAG B   3      17.739  24.759  21.4050  0.00  0.00     0.000 C
ATOM     36  C3  NAG B   3      18.322  26.125  21.7980  0.00  0.00     0.000 C
ATOM     37  C4  NAG B   3      17.839  27.184  20.8100  0.00  0.00     0.000 C
ATOM     38  C5  NAG B   3      16.322  27.109  20.6530  0.00  0.00     0.000 C
ATOM     39  O5  NAG B   3      15.942  25.806  20.2460  0.00  0.00     0.000 O
ATOM     40   O  NAG B   3      18.207  28.493  21.2730  0.00  0.00     0.000 O
ATOM     42  HD  NAG B   3      17.358  28.632  21.1730  0.00  0.00     0.000 HD
ATOM     42   C  NAG B   3      15.765  28.046  19.5850  0.00  0.00     0.000 C
ATOM     43   O  NAG B   3      16.238  27.638  18.2950  0.00  0.00     0.000 O
ATOM     45  HD  NAG B   3      15.389  27.777  18.1950  0.00  0.00     0.000 HD
BRANCH 35 47
ATOM     45   N  NAG B   3      18.541  23.563  21.1860  0.00  0.00     0.000 N
ATOM     47  HD  NAG B   3      18.725  24.195  20.6240  0.00  0.00     0.000 HD
ATOM     47   C  NAG B   3      19.008  22.822  22.1710  0.00  0.00     0.000 C
ATOM     48   C  NAG B   3      19.834  21.635  21.7720  0.00  0.00     0.000 C
ATOM     49   O  NAG B   3      18.801  23.100  23.3500  0.00  0.00     0.000 OA
ENDBRANCH 35 47
BRANCH 34 50
ATOM     50  O4  BDP B   4      15.888  23.541  20.7740  0.00  0.00     0.000 O
BRANCH 50 54
ATOM     51  C1  BDP B   4      12.943  20.734  20.7530  0.00  0.00     0.000 C
ATOM     52  C2  BDP B   4      12.482  22.136  20.3720  0.00  0.00     0.000 C
ATOM     53  C3  BDP B   4      13.687  22.967  20.0560  0.00  0.00     0.000 C
ATOM     54  C4  BDP B   4      14.676  22.937  21.2560  0.00  0.00     0.000 C
ATOM     55  C5  BDP B   4      14.958  21.521  21.7390  0.00  0.00     0.000 C
ATOM     56  O5  BDP B   4      13.739  20.805  21.9220  0.00  0.00     0.000 O
ATOM     57   O  BDP B   4      11.640  22.084  19.2400  0.00  0.00     0.000 O
ATOM     59  HD  BDP B   4      10.840  22.185  19.5580  0.00  0.00     0.000 HD
ATOM     59   O  BDP B   4      13.229  24.325  19.8910  0.00  0.00     0.000 O
ATOM     61  HD  BDP B   4      12.430  24.426  20.2090  0.00  0.00     0.000 HD
BRANCH 55 61
ATOM     61   C  BDP B   4      15.704  21.581  23.0600  0.00  0.00     0.000 C
ATOM     62   O  BDP B   4      16.522  20.660  23.3190  0.00  0.00     0.000 OA
ATOM     63   O  BDP B   4      15.471  22.556  23.8380  0.00  0.00     0.000 OA
ENDBRANCH 55 61
BRANCH 51 64
ATOM     64  O3  NAG B   5      11.761  19.944  20.9880  0.00  0.00     0.000 O
BRANCH 64 67
ATOM     65  C1  NAG B   5      11.070  16.551  19.7220  0.00  0.00     0.000 C
ATOM     66  C2  NAG B   5      11.059  18.069  19.7750  0.00  0.00     0.000 C
ATOM     67  C3  NAG B   5      12.001  18.556  20.8690  0.00  0.00     0.000 C
ATOM     68  C4  NAG B   5      11.695  17.868  22.2060  0.00  0.00     0.000 C
ATOM     69  C5  NAG B   5      11.636  16.359  22.0330  0.00  0.00     0.000 C
ATOM     70  O5  NAG B   5      10.720  16.023  20.9800  0.00  0.00     0.000 O
ATOM     71   O  NAG B   5      12.686  18.237  23.1410  0.00  0.00     0.000 O
ATOM     73  HD  NAG B   5      11.999  18.300  23.6640  0.00  0.00     0.000 HD
ATOM     73   C  NAG B   5      11.209  15.594  23.2940  0.00  0.00     0.000 C
ATOM     74   O  NAG B   5       9.856  15.954  23.6440  0.00  0.00     0.000 O
ATOM     76  HD  NAG B   5       9.168  16.017  24.1660  0.00  0.00     0.000 HD
BRANCH 66 78
ATOM     76   N  NAG B   5      11.405  18.479  18.4000  0.00  0.00     0.000 N
ATOM     78  HD  NAG B   5      10.752  18.601  18.9560  0.00  0.00     0.000 HD
ATOM     78   C  NAG B   5      10.774  19.413  17.6730  0.00  0.00     0.000 C
ATOM     79   C  NAG B   5      11.375  19.619  16.3090  0.00  0.00     0.000 C
ATOM     80   O  NAG B   5       9.751  20.061  18.0960  0.00  0.00     0.000 OA
ENDBRANCH 66 78
BRANCH 65 81
ATOM     81  O4  BDP B   6      10.150  16.087  18.7250  0.00  0.00     0.000 O
BRANCH 81 85
ATOM     82  C1  BDP B   6       9.289  12.570  16.4330  0.00  0.00     0.000 C
ATOM     83  C2  BDP B   6       8.842  12.588  17.8920  0.00  0.00     0.000 C
ATOM     84  C3  BDP B   6       8.822  13.997  18.4910  0.00  0.00     0.000 C
ATOM     85  C4  BDP B   6      10.145  14.733  18.2670  0.00  0.00     0.000 C
ATOM     86  C5  BDP B   6      10.506  14.615  16.7680  0.00  0.00     0.000 C
ATOM     87  O5  BDP B   6      10.546  13.221  16.3230  0.00  0.00     0.000 O
ATOM     88   O  BDP B   6       7.522  12.051  17.8920  0.00  0.00     0.000 O
ATOM     90  HD  BDP B   6       6.747  12.185  18.2550  0.00  0.00     0.000 HD
ATOM     90   O  BDP B   6       8.507  13.921  19.8840  0.00  0.00     0.000 O
ATOM     92  HD  BDP B   6       7.732  14.056  20.2460  0.00  0.00     0.000 HD
BRANCH 86 92
ATOM     92   C  BDP B   6      11.911  15.112  16.5210  0.00  0.00     0.000 C
ATOM     93   O  BDP B   6      12.088  16.281  16.0630  0.00  0.00     0.000 OA
ATOM     94   O  BDP B   6      12.868  14.329  16.8100  0.00  0.00     0.000 OA
ENDBRANCH 86 92
BRANCH 82 95
ATOM     95  O3  NAG B   7       9.464  11.198  16.0280  0.00  0.00     0.000 O
BRANCH 95 98
ATOM     96  C1  NAG B   7       8.302   9.119  13.2600  0.00  0.00     0.000 C
ATOM     97  C2  NAG B   7       8.589   9.469  14.7140  0.00  0.00     0.000 C
ATOM     98  C3  NAG B   7       9.252  10.844  14.6630  0.00  0.00     0.000 C
ATOM     99  C4  NAG B   7      10.537  10.770  13.8410  0.00  0.00     0.000 C
ATOM    100  C5  NAG B   7      10.267  10.179  12.4570  0.00  0.00     0.000 C
ATOM    101  O5  NAG B   7       9.566   8.954  12.6080  0.00  0.00     0.000 O
BRANCH 97 104
ATOM    102   N  NAG B   7       7.400   9.609  15.5650  0.00  0.00     0.000 N
ATOM    104  HD  NAG B   7       6.776   9.944  16.0640  0.00  0.00     0.000 HD
ATOM    104   O  NAG B   7       6.097   9.286  17.3900  0.00  0.00     0.000 OA
ATOM    105   C  NAG B   7       7.133   9.023  16.7470  0.00  0.00     0.000 C
ATOM    106   C  NAG B   7       8.108   8.045  17.3080  0.00  0.00     0.000 C
ENDBRANCH 97 104
ATOM    107   O  NAG B   7      11.236   9.737  10.3660  0.00  0.00     0.000 O
ATOM    109  HD  NAG B   7      10.518  10.001  10.7730  0.00  0.00     0.000 HD
ATOM    109   O  NAG B   7      11.236   9.737  10.3660  0.00  0.00     0.000 O
ATOM    111  HD  NAG B   7      10.518  10.001  10.7730  0.00  0.00     0.000 HD
ENDBRANCH 95 98
ENDBRANCH 82 95
ENDBRANCH 81 85
ENDBRANCH 65 81
ENDBRANCH 64 67
ENDBRANCH 51 64
ENDBRANCH 50 54
ENDBRANCH 34 50
ENDBRANCH 33 36
ENDBRANCH 20 33
ENDBRANCH 19 23
ENDBRANCH 1 19
TORSDOF 19
ENDMDL
MODEL 98
REMARK VINA RESULT:      -2.9     12.908     16.649
ROOT
ATOM      1  C1  NAG B   1       8.615  25.747  27.3430  0.00  0.00     0.000 C
ATOM      2  C2  NAG B   1       7.484  26.186  28.2690  0.00  0.00     0.000 C
ATOM      3  C3  NAG B   1       6.216  26.502  27.5010  0.00  0.00     0.000 C
ATOM      4  C4  NAG B   1       6.604  27.587  26.5020  0.00  0.00     0.000 C
ATOM      5  C5  NAG B   1       7.646  27.024  25.5280  0.00  0.00     0.000 C
ATOM      6  O5  NAG B   1       8.844  26.617  26.2240  0.00  0.00     0.000 O
ATOM      7   O  NAG B   1       5.152  26.956  28.3680  0.00  0.00     0.000 O
ATOM      9  HD  NAG B   1       5.561  26.375  28.8640  0.00  0.00     0.000 HD
ATOM      9   O  NAG B   1       5.461  28.020  25.7850  0.00  0.00     0.000 O
ATOM     11  HD  NAG B   1       5.870  27.440  26.2800  0.00  0.00     0.000 HD
ATOM     11   C  NAG B   1       7.949  28.054  24.4320  0.00  0.00     0.000 C
ATOM     12   O  NAG B   1       9.278  27.906  23.9350  0.00  0.00     0.000 O
ATOM     14  HD  NAG B   1       9.687  27.325  24.4300  0.00  0.00     0.000 HD
ENDROOT
BRANCH 2 16
ATOM     14   N  NAG B   1       7.229  25.176  29.3120  0.00  0.00     0.000 N
ATOM     16  HD  NAG B   1       7.619  24.577  29.8010  0.00  0.00     0.000 HD
ATOM     16   C  NAG B   1       7.487  25.384  30.6150  0.00  0.00     0.000 C
ATOM     17   C  NAG B   1       8.089  26.690  31.0630  0.00  0.00     0.000 C
ATOM     18   O  NAG B   1       7.215  24.535  31.4630  0.00  0.00     0.000 OA
ENDBRANCH 2 16
BRANCH 1 19
ATOM     19  O4  BDP B   2       9.768  25.856  28.1670  0.00  0.00     0.000 O
BRANCH 19 23
ATOM     20  C1  BDP B   2      12.072  23.254  25.9620  0.00  0.00     0.000 C
ATOM     21  C2  BDP B   2      11.232  22.641  27.0640  0.00  0.00     0.000 C
ATOM     22  C3  BDP B   2      10.141  23.588  27.5120  0.00  0.00     0.000 C
ATOM     23  C4  BDP B   2      10.782  24.923  27.8810  0.00  0.00     0.000 C
ATOM     24  C5  BDP B   2      11.583  25.441  26.7030  0.00  0.00     0.000 C
ATOM     25  O5  BDP B   2      12.595  24.509  26.3720  0.00  0.00     0.000 O
ATOM     26   O  BDP B   2      10.659  21.428  26.6260  0.00  0.00     0.000 O
ATOM     28  HD  BDP B   2      11.228  21.573  25.9890  0.00  0.00     0.000 HD
ATOM     28   O  BDP B   2       9.433  23.005  28.6170  0.00  0.00     0.000 O
ATOM     30  HD  BDP B   2      10.002  23.150  27.9800  0.00  0.00     0.000 HD
BRANCH 24 30
ATOM     30   C  BDP B   2      12.245  26.738  27.0000  0.00  0.00     0.000 C
ATOM     31   O  BDP B   2      12.015  27.692  26.2210  0.00  0.00     0.000 OA
ATOM     32   O  BDP B   2      13.005  26.808  28.0080  0.00  0.00     0.000 OA
ENDBRANCH 24 30
BRANCH 20 33
ATOM     33  O3  NAG B   3      13.132  22.343  25.7960  0.00  0.00     0.000 O
BRANCH 33 36
ATOM     34  C1  NAG B   3      14.585  21.449  22.4440  0.00  0.00     0.000 C
ATOM     35  C2  NAG B   3      13.683  21.347  23.6590  0.00  0.00     0.000 C
ATOM     36  C3  NAG B   3      13.839  22.571  24.5750  0.00  0.00     0.000 C
ATOM     37  C4  NAG B   3      15.317  22.782  24.8910  0.00  0.00     0.000 C
ATOM     38  C5  NAG B   3      16.139  22.783  23.6050  0.00  0.00     0.000 C
ATOM     39  O5  NAG B   3      15.926  21.575  22.8940  0.00  0.00     0.000 O
ATOM     40   O  NAG B   3      15.500  24.031  25.5760  0.00  0.00     0.000 O
ATOM     42  HD  NAG B   3      16.064  24.160  24.9310  0.00  0.00     0.000 HD
ATOM     42   C  NAG B   3      17.646  22.857  23.8360  0.00  0.00     0.000 C
ATOM     43   O  NAG B   3      18.089  21.664  24.4940  0.00  0.00     0.000 O
ATOM     45  HD  NAG B   3      18.653  21.793  23.8500  0.00  0.00     0.000 HD
BRANCH 35 47
ATOM     45   N  NAG B   3      12.819  20.192  23.8630  0.00  0.00     0.000 N
ATOM     47  HD  NAG B   3      13.485  20.212  24.4160  0.00  0.00     0.000 HD
ATOM     47   C  NAG B   3      11.507  20.247  23.7450  0.00  0.00     0.000 C
ATOM     48   C  NAG B   3      10.765  18.971  24.0080  0.00  0.00     0.000 C
ATOM     49   O  NAG B   3      10.923  21.291  23.4620  0.00  0.00     0.000 OA
ENDBRANCH 35 47
BRANCH 34 50
ATOM     50  O4  BDP B   4      14.400  20.213  21.7860  0.00  0.00     0.000 O
BRANCH 50 54
ATOM     51  C1  BDP B   4      14.451  18.331  18.1800  0.00  0.00     0.000 C
ATOM     52  C2  BDP B   4      15.823  18.753  18.6910  0.00  0.00     0.000 C
ATOM     53  C3  BDP B   4      15.712  19.079  20.1490  0.00  0.00     0.000 C
ATOM     54  C4  BDP B   4      14.605  20.151  20.3650  0.00  0.00     0.000 C
ATOM     55  C5  BDP B   4      13.302  19.786  19.6680  0.00  0.00     0.000 C
ATOM     56  O5  BDP B   4      13.548  19.414  18.3150  0.00  0.00     0.000 O
ATOM     57   O  BDP B   4      16.755  17.707  18.5150  0.00  0.00     0.000 O
ATOM     59  HD  BDP B   4      17.222  17.945  17.8260  0.00  0.00     0.000 HD
ATOM     59   O  BDP B   4      16.973  19.655  20.5480  0.00  0.00     0.000 O
ATOM     61  HD  BDP B   4      17.440  19.893  19.8580  0.00  0.00     0.000 HD
BRANCH 55 61
ATOM     61   C  BDP B   4      12.368  20.982  19.6940  0.00  0.00     0.000 C
ATOM     62   O  BDP B   4      11.254  20.850  20.2670  0.00  0.00     0.000 OA
ATOM     63   O  BDP B   4      12.753  22.057  19.1410  0.00  0.00     0.000 OA
ENDBRANCH 55 61
BRANCH 51 64
ATOM     64  O3  NAG B   5      14.605  17.964  16.7950  0.00  0.00     0.000 O
BRANCH 64 67
ATOM     65  C1  NAG B   5      12.965  15.082  15.1840  0.00  0.00     0.000 C
ATOM     66  C2  NAG B   5      14.024  15.863  15.9420  0.00  0.00     0.000 C
ATOM     67  C3  NAG B   5      13.494  17.247  16.2950  0.00  0.00     0.000 C
ATOM     68  C4  NAG B   5      12.944  17.960  15.0520  0.00  0.00     0.000 C
ATOM     69  C5  NAG B   5      11.964  17.065  14.3090  0.00  0.00     0.000 C
ATOM     70  O5  NAG B   5      12.573  15.795  14.0330  0.00  0.00     0.000 O
ATOM     71   O  NAG B   5      12.330  19.165  15.4570  0.00  0.00     0.000 O
ATOM     73  HD  NAG B   5      12.735  19.466  14.7530  0.00  0.00     0.000 HD
ATOM     73   C  NAG B   5      11.458  17.647  12.9820  0.00  0.00     0.000 C
ATOM     74   O  NAG B   5      12.562  17.786  12.0630  0.00  0.00     0.000 O
ATOM     76  HD  NAG B   5      12.967  18.087  11.3590  0.00  0.00     0.000 HD
BRANCH 66 78
ATOM     76   N  NAG B   5      14.362  14.951  17.0520  0.00  0.00     0.000 N
ATOM     78  HD  NAG B   5      14.783  15.375  16.4250  0.00  0.00     0.000 HD
ATOM     78   C  NAG B   5      15.597  14.684  17.5060  0.00  0.00     0.000 C
ATOM     79   C  NAG B   5      15.616  13.725  18.6650  0.00  0.00     0.000 C
ATOM     80   O  NAG B   5      16.659  15.191  16.9950  0.00  0.00     0.000 OA
ENDBRANCH 66 78
BRANCH 65 81
ATOM     81  O4  BDP B   6      13.476  13.796  14.8090  0.00  0.00     0.000 O
BRANCH 81 85
ATOM     82  C1  BDP B   6      12.108  10.021  13.3110  0.00  0.00     0.000 C
ATOM     83  C2  BDP B   6      12.173  11.187  12.3300  0.00  0.00     0.000 C
ATOM     84  C3  BDP B   6      13.038  12.344  12.8370  0.00  0.00     0.000 C
ATOM     85  C4  BDP B   6      12.641  12.780  14.2490  0.00  0.00     0.000 C
ATOM     86  C5  BDP B   6      12.575  11.514  15.1360  0.00  0.00     0.000 C
ATOM     87  O5  BDP B   6      11.678  10.501  14.5770  0.00  0.00     0.000 O
ATOM     88   O  BDP B   6      12.744  10.651  11.1390  0.00  0.00     0.000 O
ATOM     90  HD  BDP B   6      13.321  10.854  10.5250  0.00  0.00     0.000 HD
ATOM     90   O  BDP B   6      12.959  13.440  11.9210  0.00  0.00     0.000 O
ATOM     92  HD  BDP B   6      13.535  13.643  11.3070  0.00  0.00     0.000 HD
BRANCH 86 92
ATOM     92   C  BDP B   6      11.961  11.838  16.4760  0.00  0.00     0.000 C
ATOM     93   O  BDP B   6      10.702  11.769  16.6190  0.00  0.00     0.000 OA
ATOM     94   O  BDP B   6      12.749  12.149  17.4230  0.00  0.00     0.000 OA
ENDBRANCH 86 92
BRANCH 82 95
ATOM     95  O3  NAG B   7      11.123   9.082  12.8360  0.00  0.00     0.000 O
BRANCH 95 98
ATOM     96  C1  NAG B   7      11.030   5.466  12.3310  0.00  0.00     0.000 C
ATOM     97  C2  NAG B   7      10.847   6.931  11.9540  0.00  0.00     0.000 C
ATOM     98  C3  NAG B   7      11.233   7.710  13.2100  0.00  0.00     0.000 C
ATOM     99  C4  NAG B   7      10.321   7.313  14.3680  0.00  0.00     0.000 C
ATOM    100  C5  NAG B   7      10.327   5.797  14.5730  0.00  0.00     0.000 C
ATOM    101  O5  NAG B   7      10.052   5.164  13.3330  0.00  0.00     0.000 O
BRANCH 97 104
ATOM    102   N  NAG B   7      11.082   7.675  10.7090  0.00  0.00     0.000 N
ATOM    104  HD  NAG B   7      11.044   7.939   9.8850  0.00  0.00     0.000 HD
ATOM    104   O  NAG B   7      12.268   8.458   8.9450  0.00  0.00     0.000 OA
ATOM    105   C  NAG B   7      12.232   7.845  10.0300  0.00  0.00     0.000 C
ATOM    106   C  NAG B   7      13.492   7.272  10.5850  0.00  0.00     0.000 C
ENDBRANCH 97 104
ATOM    107   O  NAG B   7       9.582   4.076  15.9830  0.00  0.00     0.000 O
ATOM    109  HD  NAG B   7      10.242   4.359  15.4980  0.00  0.00     0.000 HD
ATOM    109   O  NAG B   7       9.582   4.076  15.9830  0.00  0.00     0.000 O
ATOM    111  HD  NAG B   7      10.242   4.359  15.4980  0.00  0.00     0.000 HD
ENDBRANCH 95 98
ENDBRANCH 82 95
ENDBRANCH 81 85
ENDBRANCH 65 81
ENDBRANCH 64 67
ENDBRANCH 51 64
ENDBRANCH 50 54
ENDBRANCH 34 50
ENDBRANCH 33 36
ENDBRANCH 20 33
ENDBRANCH 19 23
ENDBRANCH 1 19
TORSDOF 19
ENDMDL
MODEL 99
REMARK VINA RESULT:      -2.9      8.442     17.712
ROOT
ATOM      1  C1  NAG B   1      19.887  21.149   1.5480  0.00  0.00     0.000 C
ATOM      2  C2  NAG B   1      21.103  22.005   1.8910  0.00  0.00     0.000 C
ATOM      3  C3  NAG B   1      22.279  21.704   0.9840  0.00  0.00     0.000 C
ATOM      4  C4  NAG B   1      22.552  20.213   1.1520  0.00  0.00     0.000 C
ATOM      5  C5  NAG B   1      21.334  19.420   0.6620  0.00  0.00     0.000 C
ATOM      6  O5  NAG B   1      20.158  19.743   1.4360  0.00  0.00     0.000 O
ATOM      7   O  NAG B   1      23.447  22.485   1.3280  0.00  0.00     0.000 O
ATOM      9  HD  NAG B   1      22.799  23.033   1.4990  0.00  0.00     0.000 HD
ATOM      9   O  NAG B   1      23.699  19.841   0.4060  0.00  0.00     0.000 O
ATOM     11  HD  NAG B   1      23.051  20.389   0.5770  0.00  0.00     0.000 HD
ATOM     11   C  NAG B   1      21.640  17.918   0.6940  0.00  0.00     0.000 C
ATOM     12   O  NAG B   1      20.453  17.152   0.8980  0.00  0.00     0.000 O
ATOM     14  HD  NAG B   1      19.805  17.700   1.0690  0.00  0.00     0.000 HD
ENDROOT
BRANCH 2 16
ATOM     14   N  NAG B   1      20.625  23.399   1.8940  0.00  0.00     0.000 N
ATOM     16  HD  NAG B   1      19.971  23.903   2.1560  0.00  0.00     0.000 HD
ATOM     16   C  NAG B   1      20.740  24.213   2.9580  0.00  0.00     0.000 C
ATOM     17   C  NAG B   1      21.358  23.701   4.2320  0.00  0.00     0.000 C
ATOM     18   O  NAG B   1      20.374  25.387   2.9070  0.00  0.00     0.000 OA
ENDBRANCH 2 16
BRANCH 1 19
ATOM     19  O4  BDP B   2      19.055  21.297   2.6910  0.00  0.00     0.000 O
BRANCH 19 23
ATOM     20  C1  BDP B   2      17.422  18.777   5.5060  0.00  0.00     0.000 C
ATOM     21  C2  BDP B   2      18.930  18.918   5.5230  0.00  0.00     0.000 C
ATOM     22  C3  BDP B   2      19.374  20.146   4.7620  0.00  0.00     0.000 C
ATOM     23  C4  BDP B   2      18.765  20.095   3.3630  0.00  0.00     0.000 C
ATOM     24  C5  BDP B   2      17.259  19.966   3.4740  0.00  0.00     0.000 C
ATOM     25  O5  BDP B   2      16.935  18.778   4.1720  0.00  0.00     0.000 O
ATOM     26   O  BDP B   2      19.401  18.985   6.8510  0.00  0.00     0.000 O
ATOM     28  HD  BDP B   2      18.582  18.740   6.9870  0.00  0.00     0.000 HD
ATOM     28   O  BDP B   2      20.809  20.187   4.7240  0.00  0.00     0.000 O
ATOM     30  HD  BDP B   2      19.990  19.942   4.8600  0.00  0.00     0.000 HD
BRANCH 24 30
ATOM     30   C  BDP B   2      16.601  19.899   2.1420  0.00  0.00     0.000 C
ATOM     31   O  BDP B   2      16.911  18.941   1.3960  0.00  0.00     0.000 OA
ATOM     32   O  BDP B   2      15.778  20.806   1.8320  0.00  0.00     0.000 OA
ENDBRANCH 24 30
BRANCH 20 33
ATOM     33  O3  NAG B   3      17.192  17.514   6.0810  0.00  0.00     0.000 O
BRANCH 33 36
ATOM     34  C1  NAG B   3      14.140  17.064   8.2340  0.00  0.00     0.000 C
ATOM     35  C2  NAG B   3      15.549  17.484   7.8590  0.00  0.00     0.000 C
ATOM     36  C3  NAG B   3      15.805  17.302   6.3550  0.00  0.00     0.000 C
ATOM     37  C4  NAG B   3      15.432  15.879   5.9470  0.00  0.00     0.000 C
ATOM     38  C5  NAG B   3      14.032  15.534   6.4480  0.00  0.00     0.000 C
ATOM     39  O5  NAG B   3      13.965  15.707   7.8530  0.00  0.00     0.000 O
ATOM     40   O  NAG B   3      15.473  15.750   4.5180  0.00  0.00     0.000 O
ATOM     42  HD  NAG B   3      14.666  15.465   4.6440  0.00  0.00     0.000 HD
ATOM     42   C  NAG B   3      13.626  14.084   6.1980  0.00  0.00     0.000 C
ATOM     43   O  NAG B   3      14.462  13.213   6.9700  0.00  0.00     0.000 O
ATOM     45  HD  NAG B   3      13.655  12.927   7.0960  0.00  0.00     0.000 HD
BRANCH 35 47
ATOM     45   N  NAG B   3      15.763  18.851   8.3170  0.00  0.00     0.000 N
ATOM     47  HD  NAG B   3      14.943  18.590   8.4170  0.00  0.00     0.000 HD
ATOM     47   C  NAG B   3      16.860  19.236   8.9380  0.00  0.00     0.000 C
ATOM     48   C  NAG B   3      16.910  20.674   9.3610  0.00  0.00     0.000 C
ATOM     49   O  NAG B   3      17.778  18.456   9.1810  0.00  0.00     0.000 OA
ENDBRANCH 35 47
BRANCH 34 50
ATOM     50  O4  BDP B   4      14.118  17.188   9.6400  0.00  0.00     0.000 O
BRANCH 50 54
ATOM     51  C1  BDP B   4      11.785  18.517  12.6970  0.00  0.00     0.000 C
ATOM     52  C2  BDP B   4      11.749  17.008  12.4850  0.00  0.00     0.000 C
ATOM     53  C3  BDP B   4      12.902  16.618  11.6110  0.00  0.00     0.000 C
ATOM     54  C4  BDP B   4      12.861  17.439  10.2900  0.00  0.00     0.000 C
ATOM     55  C5  BDP B   4      12.695  18.932  10.5400  0.00  0.00     0.000 C
ATOM     56  O5  BDP B   4      11.624  19.168  11.4500  0.00  0.00     0.000 O
ATOM     57   O  BDP B   4      11.852  16.336  13.7220  0.00  0.00     0.000 O
ATOM     59  HD  BDP B   4      11.045  16.073  13.8950  0.00  0.00     0.000 HD
ATOM     59   O  BDP B   4      12.724  15.227  11.2760  0.00  0.00     0.000 O
ATOM     61  HD  BDP B   4      11.917  14.964  11.4500  0.00  0.00     0.000 HD
BRANCH 55 61
ATOM     61   C  BDP B   4      12.396  19.630   9.2260  0.00  0.00     0.000 C
ATOM     62   O  BDP B   4      11.290  19.397   8.6710  0.00  0.00     0.000 OA
ATOM     63   O  BDP B   4      13.272  20.415   8.7500  0.00  0.00     0.000 OA
ENDBRANCH 55 61
BRANCH 51 64
ATOM     64  O3  NAG B   5      10.704  18.848  13.5900  0.00  0.00     0.000 O
BRANCH 64 67
ATOM     65  C1  NAG B   5      10.676  20.584  16.8430  0.00  0.00     0.000 C
ATOM     66  C2  NAG B   5      10.579  19.437  15.8520  0.00  0.00     0.000 C
ATOM     67  C3  NAG B   5      11.033  19.902  14.4750  0.00  0.00     0.000 C
ATOM     68  C4  NAG B   5      10.290  21.176  14.0500  0.00  0.00     0.000 C
ATOM     69  C5  NAG B   5      10.365  22.231  15.1420  0.00  0.00     0.000 C
ATOM     70  O5  NAG B   5       9.914  21.678  16.3880  0.00  0.00     0.000 O
ATOM     71   O  NAG B   5      10.853  21.647  12.8440  0.00  0.00     0.000 O
ATOM     73  HD  NAG B   5      10.020  21.775  12.6460  0.00  0.00     0.000 HD
ATOM     73   C  NAG B   5       9.541  23.495  14.8580  0.00  0.00     0.000 C
ATOM     74   O  NAG B   5       8.140  23.156  14.8020  0.00  0.00     0.000 O
ATOM     76  HD  NAG B   5       7.307  23.284  14.6040  0.00  0.00     0.000 HD
BRANCH 66 78
ATOM     76   N  NAG B   5      10.188  18.097  16.3320  0.00  0.00     0.000 N
ATOM     78  HD  NAG B   5      10.899  18.479  16.0180  0.00  0.00     0.000 HD
ATOM     78   C  NAG B   5      11.022  17.078  16.5920  0.00  0.00     0.000 C
ATOM     79   C  NAG B   5      10.322  15.841  17.0860  0.00  0.00     0.000 C
ATOM     80   O  NAG B   5      12.292  17.149  16.4270  0.00  0.00     0.000 OA
ENDBRANCH 66 78
BRANCH 65 81
ATOM     81  O4  BDP B   6      10.206  20.165  18.1310  0.00  0.00     0.000 O
BRANCH 81 85
ATOM     82  C1  BDP B   6      10.980  20.798  22.2970  0.00  0.00     0.000 C
ATOM     83  C2  BDP B   6      10.466  21.985  21.4870  0.00  0.00     0.000 C
ATOM     84  C3  BDP B   6       9.844  21.569  20.1520  0.00  0.00     0.000 C
ATOM     85  C4  BDP B   6      10.774  20.659  19.3460  0.00  0.00     0.000 C
ATOM     86  C5  BDP B   6      11.253  19.522  20.2790  0.00  0.00     0.000 C
ATOM     87  O5  BDP B   6      11.877  20.042  21.4970  0.00  0.00     0.000 O
ATOM     88   O  BDP B   6       9.475  22.602  22.3030  0.00  0.00     0.000 O
ATOM     90  HD  BDP B   6       8.688  22.959  22.2430  0.00  0.00     0.000 HD
ATOM     90   O  BDP B   6       9.492  22.734  19.4020  0.00  0.00     0.000 O
ATOM     92  HD  BDP B   6       8.705  23.091  19.3420  0.00  0.00     0.000 HD
BRANCH 86 92
ATOM     92   C  BDP B   6      12.354  18.726  19.6220  0.00  0.00     0.000 C
ATOM     93   O  BDP B   6      13.245  19.329  18.9500  0.00  0.00     0.000 OA
ATOM     94   O  BDP B   6      12.351  17.468  19.7940  0.00  0.00     0.000 OA
ENDBRANCH 86 92
BRANCH 82 95
ATOM     95  O3  NAG B   7      11.717  21.306  23.4270  0.00  0.00     0.000 O
BRANCH 95 98
ATOM     96  C1  NAG B   7      11.648  20.867  27.0530  0.00  0.00     0.000 C
ATOM     97  C2  NAG B   7      11.734  21.642  25.7450  0.00  0.00     0.000 C
ATOM     98  C3  NAG B   7      11.700  20.575  24.6530  0.00  0.00     0.000 C
ATOM     99  C4  NAG B   7      12.883  19.625  24.8180  0.00  0.00     0.000 C
ATOM    100  C5  NAG B   7      12.921  19.041  26.2310  0.00  0.00     0.000 C
ATOM    101  O5  NAG B   7      12.853  20.103  27.1700  0.00  0.00     0.000 O
BRANCH 97 104
ATOM    102   N  NAG B   7      10.610  22.527  25.4080  0.00  0.00     0.000 N
ATOM    104  HD  NAG B   7       9.945  22.896  24.9940  0.00  0.00     0.000 HD
ATOM    104   O  NAG B   7       9.578  24.480  24.9080  0.00  0.00     0.000 OA
ATOM    105   C  NAG B   7      10.605  23.865  25.2570  0.00  0.00     0.000 C
ATOM    106   C  NAG B   7      11.863  24.627  25.5000  0.00  0.00     0.000 C
ENDBRANCH 97 104
ATOM    107   O  NAG B   7      14.001  17.472  27.6010  0.00  0.00     0.000 O
ATOM    109  HD  NAG B   7      13.238  17.829  27.3980  0.00  0.00     0.000 HD
ATOM    109   O  NAG B   7      14.001  17.472  27.6010  0.00  0.00     0.000 O
ATOM    111  HD  NAG B   7      13.238  17.829  27.3980  0.00  0.00     0.000 HD
ENDBRANCH 95 98
ENDBRANCH 82 95
ENDBRANCH 81 85
ENDBRANCH 65 81
ENDBRANCH 64 67
ENDBRANCH 51 64
ENDBRANCH 50 54
ENDBRANCH 34 50
ENDBRANCH 33 36
ENDBRANCH 20 33
ENDBRANCH 19 23
ENDBRANCH 1 19
TORSDOF 19
ENDMDL
MODEL 100
REMARK VINA RESULT:      -2.9      7.085     19.807
ROOT
ATOM      1  C1  NAG B   1      32.492   3.767   8.3010  0.00  0.00     0.000 C
ATOM      2  C2  NAG B   1      33.729   4.318   7.5960  0.00  0.00     0.000 C
ATOM      3  C3  NAG B   1      34.971   3.515   7.9260  0.00  0.00     0.000 C
ATOM      4  C4  NAG B   1      35.097   3.565   9.4460  0.00  0.00     0.000 C
ATOM      5  C5  NAG B   1      33.879   2.874  10.0740  0.00  0.00     0.000 C
ATOM      6  O5  NAG B   1      32.655   3.547   9.7110  0.00  0.00     0.000 O
ATOM      7   O  NAG B   1      36.153   4.055   7.2930  0.00  0.00     0.000 O
ATOM      9  HD  NAG B   1      35.539   4.209   6.7030  0.00  0.00     0.000 HD
ATOM      9   O  NAG B   1      36.285   2.911   9.8580  0.00  0.00     0.000 O
ATOM     11  HD  NAG B   1      35.671   3.065   9.2680  0.00  0.00     0.000 HD
ATOM     11   C  NAG B   1      34.052   2.791  11.5960  0.00  0.00     0.000 C
ATOM     12   O  NAG B   1      32.790   2.794  12.2610  0.00  0.00     0.000 O
ATOM     14  HD  NAG B   1      32.175   2.948  11.6700  0.00  0.00     0.000 HD
ENDROOT
BRANCH 2 16
ATOM     14   N  NAG B   1      33.457   5.534   6.8100  0.00  0.00     0.000 N
ATOM     16  HD  NAG B   1      33.843   6.162   6.3550  0.00  0.00     0.000 HD
ATOM     16   C  NAG B   1      33.435   5.551   5.4660  0.00  0.00     0.000 C
ATOM     17   C  NAG B   1      33.723   4.290   4.6940  0.00  0.00     0.000 C
ATOM     18   O  NAG B   1      33.155   6.575   4.8440  0.00  0.00     0.000 OA
ENDBRANCH 2 16
BRANCH 1 19
ATOM     19  O4  BDP B   2      31.550   4.824   8.1750  0.00  0.00     0.000 O
BRANCH 19 23
ATOM     20  C1  BDP B   2      27.463   5.154   8.5290  0.00  0.00     0.000 C
ATOM     21  C2  BDP B   2      28.256   5.200   9.8190  0.00  0.00     0.000 C
ATOM     22  C3  BDP B   2      29.716   5.492   9.5540  0.00  0.00     0.000 C
ATOM     23  C4  BDP B   2      30.234   4.481   8.5360  0.00  0.00     0.000 C
ATOM     24  C5  BDP B   2      29.373   4.534   7.2890  0.00  0.00     0.000 C
ATOM     25  O5  BDP B   2      28.034   4.220   7.6240  0.00  0.00     0.000 O
ATOM     26   O  BDP B   2      27.724   6.179  10.6850  0.00  0.00     0.000 O
ATOM     28  HD  BDP B   2      27.098   6.140  10.0890  0.00  0.00     0.000 HD
ATOM     28   O  BDP B   2      30.442   5.433  10.7920  0.00  0.00     0.000 O
ATOM     30  HD  BDP B   2      29.815   5.394  10.1950  0.00  0.00     0.000 HD
BRANCH 24 30
ATOM     30   C  BDP B   2      29.818   3.561   6.2570  0.00  0.00     0.000 C
ATOM     31   O  BDP B   2      29.736   2.344   6.5420  0.00  0.00     0.000 OA
ATOM     32   O  BDP B   2      30.259   4.008   5.1600  0.00  0.00     0.000 OA
ENDBRANCH 24 30
BRANCH 20 33
ATOM     33  O3  NAG B   3      26.194   4.695   8.9260  0.00  0.00     0.000 O
BRANCH 33 36
ATOM     34  C1  NAG B   3      23.087   5.780   7.1040  0.00  0.00     0.000 C
ATOM     35  C2  NAG B   3      24.222   5.838   8.1080  0.00  0.00     0.000 C
ATOM     36  C3  NAG B   3      25.256   4.732   7.8480  0.00  0.00     0.000 C
ATOM     37  C4  NAG B   3      24.544   3.384   7.7650  0.00  0.00     0.000 C
ATOM     38  C5  NAG B   3      23.370   3.464   6.7930  0.00  0.00     0.000 C
ATOM     39  O5  NAG B   3      22.484   4.497   7.1890  0.00  0.00     0.000 O
ATOM     40   O  NAG B   3      25.461   2.371   7.3250  0.00  0.00     0.000 O
ATOM     42  HD  NAG B   3      24.844   2.246   6.7290  0.00  0.00     0.000 HD
ATOM     42   C  NAG B   3      22.521   2.197   6.7450  0.00  0.00     0.000 C
ATOM     43   O  NAG B   3      21.873   2.006   8.0090  0.00  0.00     0.000 O
ATOM     45  HD  NAG B   3      21.257   1.882   7.4140  0.00  0.00     0.000 HD
BRANCH 35 47
ATOM     45   N  NAG B   3      24.308   6.793   9.2060  0.00  0.00     0.000 N
ATOM     47  HD  NAG B   3      24.226   5.975   9.4800  0.00  0.00     0.000 HD
ATOM     47   C  NAG B   3      25.092   7.852   9.1760  0.00  0.00     0.000 C
ATOM     48   C  NAG B   3      25.076   8.721  10.3990  0.00  0.00     0.000 C
ATOM     49   O  NAG B   3      25.817   8.099   8.2150  0.00  0.00     0.000 OA
ENDBRANCH 35 47
BRANCH 34 50
ATOM     50  O4  BDP B   4      22.191   6.775   7.5550  0.00  0.00     0.000 O
BRANCH 50 54
ATOM     51  C1  BDP B   4      19.487   9.582   6.3890  0.00  0.00     0.000 C
ATOM     52  C2  BDP B   4      19.045   8.143   6.1520  0.00  0.00     0.000 C
ATOM     53  C3  BDP B   4      19.931   7.233   6.9460  0.00  0.00     0.000 C
ATOM     54  C4  BDP B   4      21.420   7.500   6.5820  0.00  0.00     0.000 C
ATOM     55  C5  BDP B   4      21.773   8.980   6.6370  0.00  0.00     0.000 C
ATOM     56  O5  BDP B   4      20.812   9.748   5.9180  0.00  0.00     0.000 O
ATOM     57   O  BDP B   4      17.706   7.967   6.5630  0.00  0.00     0.000 O
ATOM     59  HD  BDP B   4      17.251   7.958   5.8260  0.00  0.00     0.000 HD
ATOM     59   O  BDP B   4      19.611   5.883   6.5480  0.00  0.00     0.000 O
ATOM     61  HD  BDP B   4      19.156   5.874   5.8120  0.00  0.00     0.000 HD
BRANCH 55 61
ATOM     61   C  BDP B   4      23.144   9.191   6.0190  0.00  0.00     0.000 C
ATOM     62   O  BDP B   4      23.906  10.042   6.5480  0.00  0.00     0.000 OA
ATOM     63   O  BDP B   4      23.458   8.500   5.0020  0.00  0.00     0.000 OA
ENDBRANCH 55 61
BRANCH 51 64
ATOM     64  O3  NAG B   5      18.577  10.433   5.6650  0.00  0.00     0.000 O
BRANCH 64 67
ATOM     65  C1  NAG B   5      16.996  13.532   6.8840  0.00  0.00     0.000 C
ATOM     66  C2  NAG B   5      17.153  12.054   6.5710  0.00  0.00     0.000 C
ATOM     67  C3  NAG B   5      18.585  11.765   6.1380  0.00  0.00     0.000 C
ATOM     68  C4  NAG B   5      19.019  12.707   5.0070  0.00  0.00     0.000 C
ATOM     69  C5  NAG B   5      18.738  14.155   5.3750  0.00  0.00     0.000 C
ATOM     70  O5  NAG B   5      17.365  14.303   5.7640  0.00  0.00     0.000 O
ATOM     71   O  NAG B   5      20.392  12.502   4.7500  0.00  0.00     0.000 O
ATOM     73  HD  NAG B   5      20.123  12.559   3.9290  0.00  0.00     0.000 HD
ATOM     73   C  NAG B   5      19.023  15.161   4.2500  0.00  0.00     0.000 C
ATOM     74   O  NAG B   5      18.136  14.909   3.1400  0.00  0.00     0.000 O
ATOM     76  HD  NAG B   5      17.868  14.966   2.3190  0.00  0.00     0.000 HD
BRANCH 66 78
ATOM     76   N  NAG B   5      15.966  11.233   6.8770  0.00  0.00     0.000 N
ATOM     78  HD  NAG B   5      16.798  11.263   7.1140  0.00  0.00     0.000 HD
ATOM     78   C  NAG B   5      15.862  10.336   7.8700  0.00  0.00     0.000 C
ATOM     79   C  NAG B   5      14.514   9.670   7.9380  0.00  0.00     0.000 C
ATOM     80   O  NAG B   5      16.822  10.065   8.6760  0.00  0.00     0.000 OA
ENDBRANCH 66 78
BRANCH 65 81
ATOM     81  O4  BDP B   6      15.639  13.818   7.2470  0.00  0.00     0.000 O
BRANCH 81 85
ATOM     82  C1  BDP B   6      13.324  16.786   9.2950  0.00  0.00     0.000 C
ATOM     83  C2  BDP B   6      13.953  17.179   7.9610  0.00  0.00     0.000 C
ATOM     84  C3  BDP B   6      14.396  15.969   7.1330  0.00  0.00     0.000 C
ATOM     85  C4  BDP B   6      15.273  15.012   7.9430  0.00  0.00     0.000 C
ATOM     86  C5  BDP B   6      14.549  14.718   9.2790  0.00  0.00     0.000 C
ATOM     87  O5  BDP B   6      14.224  15.947  10.0040  0.00  0.00     0.000 O
ATOM     88   O  BDP B   6      12.940  17.892   7.2580  0.00  0.00     0.000 O
ATOM     90  HD  BDP B   6      12.603  17.964   6.4630  0.00  0.00     0.000 HD
ATOM     90   O  BDP B   6      15.075  16.415   5.9560  0.00  0.00     0.000 O
ATOM     92  HD  BDP B   6      14.738  16.487   5.1620  0.00  0.00     0.000 HD
BRANCH 86 92
ATOM     92   C  BDP B   6      15.462  13.974  10.2230  0.00  0.00     0.000 C
ATOM     93   O  BDP B   6      15.331  12.720  10.3580  0.00  0.00     0.000 OA
ATOM     94   O  BDP B   6      16.350  14.647  10.8330  0.00  0.00     0.000 OA
ENDBRANCH 86 92
BRANCH 82 95
ATOM     95  O3  NAG B   7      13.128  17.983  10.0730  0.00  0.00     0.000 O
BRANCH 95 98
ATOM     96  C1  NAG B   7      10.366  19.535  11.8900  0.00  0.00     0.000 C
ATOM     97  C2  NAG B   7      11.565  19.489  10.9520  0.00  0.00     0.000 C
ATOM     98  C3  NAG B   7      12.045  18.040  11.0000  0.00  0.00     0.000 C
ATOM     99  C4  NAG B   7      12.439  17.671  12.4280  0.00  0.00     0.000 C
ATOM    100  C5  NAG B   7      11.296  17.960  13.4020  0.00  0.00     0.000 C
ATOM    101  O5  NAG B   7      10.858  19.297  13.2140  0.00  0.00     0.000 O
BRANCH 97 104
ATOM    102   N  NAG B   7      11.888  20.099   9.6550  0.00  0.00     0.000 N
ATOM    104  HD  NAG B   7      12.099  20.674   9.0430  0.00  0.00     0.000 HD
ATOM    104   O  NAG B   7      11.523  20.769   7.5230  0.00  0.00     0.000 OA
ATOM    105   C  NAG B   7      11.137  20.160   8.5390  0.00  0.00     0.000 C
ATOM    106   C  NAG B   7       9.803  19.494   8.5260  0.00  0.00     0.000 C
ENDBRANCH 97 104
ATOM    107   O  NAG B   7      10.595  17.703  15.6260  0.00  0.00     0.000 O
ATOM    109  HD  NAG B   7      10.343  17.685  14.7980  0.00  0.00     0.000 HD
ATOM    109   O  NAG B   7      10.595  17.703  15.6260  0.00  0.00     0.000 O
ATOM    111  HD  NAG B   7      10.343  17.685  14.7980  0.00  0.00     0.000 HD
ENDBRANCH 95 98
ENDBRANCH 82 95
ENDBRANCH 81 85
ENDBRANCH 65 81
ENDBRANCH 64 67
ENDBRANCH 51 64
ENDBRANCH 50 54
ENDBRANCH 34 50
ENDBRANCH 33 36
ENDBRANCH 20 33
ENDBRANCH 19 23
ENDBRANCH 1 19
TORSDOF 19
ENDMDL
