MODEL 1
REMARK VINA RESULT:      -7.9      0.000      0.000
ROOT
ATOM      1  C1  SGN B   1      29.295  12.713  13.1980  0.00  0.00     0.000 C
ATOM      2  C2  SGN B   1      30.009  11.844  14.2460  0.00  0.00     0.000 C
ATOM      3  C3  SGN B   1      29.742  12.372  15.6600  0.00  0.00     0.000 C
ATOM      4  C4  SGN B   1      30.150  13.838  15.7610  0.00  0.00     0.000 C
ATOM      5  C5  SGN B   1      29.518  14.612  14.6070  0.00  0.00     0.000 C
ATOM      6  O5  SGN B   1      29.883  13.997  13.3560  0.00  0.00     0.000 O
ATOM      7   O  SGN B   1      30.441  11.592  16.6240  0.00  0.00     0.000 O
ATOM      9  HD  SGN B   1      31.092  11.906  16.1470  0.00  0.00     0.000 HD
ATOM      9   O  SGN B   1      29.712  14.364  17.0000  0.00  0.00     0.000 O
ATOM     11  HD  SGN B   1      30.363  14.678  16.5220  0.00  0.00     0.000 HD
ENDROOT
BRANCH 2 13
ATOM     11   N  SGN B   1      30.687  10.782  13.4810  0.00  0.00     0.000 N
ATOM     13  HD  SGN B   1      29.860  10.980  13.3200  0.00  0.00     0.000 HD
ATOM     13   S  SGN B   1      29.889   9.536  12.8470  0.00  0.00     0.000 S
ATOM     14   O  SGN B   1      28.507   9.668  13.0950  0.00  0.00     0.000 OA
ATOM     15   O  SGN B   1      30.345   9.342  11.5110  0.00  0.00     0.000 OA
ATOM     16   O  SGN B   1      30.516   8.404  13.7170  0.00  0.00     0.000 OA
ENDBRANCH 2 13
BRANCH 5 17
ATOM     17   C  SGN B   1      29.937  16.059  14.5350  0.00  0.00     0.000 C
ATOM     18   O  SGN B   1      29.613  16.751  15.7580  0.00  0.00     0.000 O
ATOM     19   S  SGN B   1      28.930  18.187  15.5920  0.00  0.00     0.000 S
ATOM     20   O  SGN B   1      28.926  18.757  16.9220  0.00  0.00     0.000 OA
ATOM     21   O  SGN B   1      29.795  18.883  14.6670  0.00  0.00     0.000 OA
ATOM     22   O  SGN B   1      27.607  17.919  15.0710  0.00  0.00     0.000 OA
ENDBRANCH 5 17
BRANCH 1 23
ATOM     23  O4  IDS B   2      28.104  12.804  12.5400  0.00  0.00     0.000 O
BRANCH 23 27
ATOM     24  C1  IDS B   2      25.214  14.587  14.9270  0.00  0.00     0.000 C
ATOM     25  C2  IDS B   2      25.154  13.045  14.8460  0.00  0.00     0.000 C
ATOM     26  C3  IDS B   2      26.417  12.483  14.1990  0.00  0.00     0.000 C
ATOM     27  C4  IDS B   2      26.719  13.083  12.8330  0.00  0.00     0.000 C
ATOM     28  C5  IDS B   2      26.354  14.582  12.8230  0.00  0.00     0.000 C
ATOM     29  O5  IDS B   2      26.300  15.099  14.1440  0.00  0.00     0.000 O
ATOM     30   O  IDS B   2      26.271  11.079  14.0290  0.00  0.00     0.000 O
ATOM     32  HD  IDS B   2      25.789  10.866  13.3420  0.00  0.00     0.000 HD
BRANCH 25 32
ATOM     32   O  IDS B   2      25.017  12.418  16.1830  0.00  0.00     0.000 O
ATOM     33   S  IDS B   2      23.786  11.378  16.5360  0.00  0.00     0.000 S
ATOM     34   O  IDS B   2      23.846  11.151  17.9720  0.00  0.00     0.000 OA
ATOM     35   O  IDS B   2      22.518  11.979  16.1460  0.00  0.00     0.000 OA
ATOM     36   O  IDS B   2      24.072  10.169  15.8000  0.00  0.00     0.000 OA
ENDBRANCH 25 32
BRANCH 28 37
ATOM     37   C  IDS B   2      27.221  15.528  11.9670  0.00  0.00     0.000 C
ATOM     38   O  IDS B   2      27.266  16.651  12.4110  0.00  0.00     0.000 OA
ATOM     39   O  IDS B   2      27.890  15.226  10.9490  0.00  0.00     0.000 OA
ENDBRANCH 28 37
BRANCH 24 40
ATOM     40  O4  SUS B   3      24.158  15.276  15.4070  0.00  0.00     0.000 O
BRANCH 40 44
ATOM     41  C1  SUS B   3      24.017  18.853  17.5830  0.00  0.00     0.000 C
ATOM     42  C2  SUS B   3      24.391  18.950  16.0910  0.00  0.00     0.000 C
ATOM     43  C3  SUS B   3      23.933  17.682  15.3740  0.00  0.00     0.000 C
ATOM     44  C4  SUS B   3      24.525  16.475  16.0820  0.00  0.00     0.000 C
ATOM     45  C5  SUS B   3      24.012  16.441  17.5070  0.00  0.00     0.000 C
ATOM     46  O5  SUS B   3      24.470  17.632  18.1790  0.00  0.00     0.000 O
BRANCH 42 49
ATOM     47   N  SUS B   3      25.241  19.702  15.1520  0.00  0.00     0.000 N
ATOM     49  HD  SUS B   3      26.093  19.558  15.2000  0.00  0.00     0.000 HD
ATOM     49   S  SUS B   3      24.999  21.284  15.2310  0.00  0.00     0.000 S
ATOM     50   O  SUS B   3      25.228  21.739  16.5450  0.00  0.00     0.000 OA
ATOM     51   O  SUS B   3      26.170  21.691  14.3000  0.00  0.00     0.000 OA
ATOM     52   O  SUS B   3      23.760  21.597  14.6380  0.00  0.00     0.000 OA
ENDBRANCH 42 49
BRANCH 43 53
ATOM     53   O  SUS B   3      24.427  17.742  13.9840  0.00  0.00     0.000 O
ATOM     54   S  SUS B   3      23.310  17.613  12.7850  0.00  0.00     0.000 S
ATOM     55   O  SUS B   3      22.535  18.846  12.7760  0.00  0.00     0.000 OA
ATOM     56   O  SUS B   3      24.104  17.411  11.5860  0.00  0.00     0.000 OA
ATOM     57   O  SUS B   3      22.470  16.460  13.1230  0.00  0.00     0.000 OA
ENDBRANCH 43 53
BRANCH 45 58
ATOM     58   C  SUS B   3      24.480  15.209  18.2490  0.00  0.00     0.000 C
ATOM     59   S  SUS B   3      24.531  14.137  20.5810  0.00  0.00     0.000 S
ATOM     60   O  SUS B   3      23.966  15.238  19.5920  0.00  0.00     0.000 O
ATOM     61   O  SUS B   3      25.845  14.613  20.9680  0.00  0.00     0.000 OA
ATOM     62   O  SUS B   3      23.572  14.220  21.6490  0.00  0.00     0.000 OA
ATOM     63   O  SUS B   3      24.517  12.922  19.8450  0.00  0.00     0.000 OA
ENDBRANCH 45 58
BRANCH 41 64
ATOM     64  O4  IDS B   4      22.702  19.151  17.8440  0.00  0.00     0.000 O
BRANCH 64 68
ATOM     65  C1  IDS B   4      20.141  20.843  19.8080  0.00  0.00     0.000 C
ATOM     66  C2  IDS B   4      21.559  21.421  19.7260  0.00  0.00     0.000 C
ATOM     67  C3  IDS B   4      22.666  20.402  19.9330  0.00  0.00     0.000 C
ATOM     68  C4  IDS B   4      22.383  19.077  19.2520  0.00  0.00     0.000 C
ATOM     69  C5  IDS B   4      20.920  18.701  19.5270  0.00  0.00     0.000 C
ATOM     70  O5  IDS B   4      20.064  19.702  18.9720  0.00  0.00     0.000 O
ATOM     71   O  IDS B   4      22.798  20.204  21.3260  0.00  0.00     0.000 O
ATOM     73  HD  IDS B   4      22.546  20.621  20.6100  0.00  0.00     0.000 HD
BRANCH 66 73
ATOM     73   O  IDS B   4      21.772  21.961  18.3760  0.00  0.00     0.000 O
ATOM     74   S  IDS B   4      21.889  23.566  18.2110  0.00  0.00     0.000 S
ATOM     75   O  IDS B   4      20.678  24.125  18.7720  0.00  0.00     0.000 OA
ATOM     76   O  IDS B   4      21.994  23.710  16.7810  0.00  0.00     0.000 OA
ATOM     77   O  IDS B   4      23.080  23.942  18.9350  0.00  0.00     0.000 OA
ENDBRANCH 66 73
BRANCH 69 78
ATOM     78   C  IDS B   4      20.541  17.291  19.0960  0.00  0.00     0.000 C
ATOM     79   O  IDS B   4      19.436  16.852  19.4150  0.00  0.00     0.000 OA
ATOM     80   O  IDS B   4      21.315  16.669  18.3450  0.00  0.00     0.000 OA
ENDBRANCH 69 78
BRANCH 65 81
ATOM     81  O4  SGN B   5      19.797  20.669  21.1140  0.00  0.00     0.000 O
BRANCH 81 85
ATOM     82  C1  SGN B   5      16.425  20.234  23.5800  0.00  0.00     0.000 C
ATOM     83  C2  SGN B   5      16.315  19.694  22.1460  0.00  0.00     0.000 C
ATOM     84  C3  SGN B   5      17.721  19.507  21.5590  0.00  0.00     0.000 C
ATOM     85  C4  SGN B   5      18.479  20.821  21.6460  0.00  0.00     0.000 C
ATOM     86  C5  SGN B   5      18.542  21.241  23.1130  0.00  0.00     0.000 C
ATOM     87  O5  SGN B   5      17.199  21.419  23.6010  0.00  0.00     0.000 O
ATOM     88   O  SGN B   5      17.628  19.066  20.2220  0.00  0.00     0.000 O
ATOM     90  HD  SGN B   5      17.809  18.565  20.9050  0.00  0.00     0.000 HD
BRANCH 83 92
ATOM     90   N  SGN B   5      14.925  19.533  22.6150  0.00  0.00     0.000 N
ATOM     92  HD  SGN B   5      14.585  20.296  22.8460  0.00  0.00     0.000 HD
ATOM     92   S  SGN B   5      13.953  18.586  21.7730  0.00  0.00     0.000 S
ATOM     93   O  SGN B   5      12.704  18.648  22.4710  0.00  0.00     0.000 OA
ATOM     94   O  SGN B   5      14.040  19.041  20.4270  0.00  0.00     0.000 OA
ATOM     95   O  SGN B   5      14.602  17.220  21.8300  0.00  0.00     0.000 OA
ENDBRANCH 83 92
BRANCH 86 96
ATOM     96   C  SGN B   5      19.286  22.538  23.3550  0.00  0.00     0.000 C
ATOM     97   O  SGN B   5      20.104  22.438  24.5230  0.00  0.00     0.000 O
ATOM     98   S  SGN B   5      21.637  22.875  24.3510  0.00  0.00     0.000 S
ATOM     99   O  SGN B   5      22.127  22.859  25.7080  0.00  0.00     0.000 OA
ATOM    100   O  SGN B   5      22.255  21.934  23.4870  0.00  0.00     0.000 OA
ATOM    101   O  SGN B   5      21.571  24.185  23.7890  0.00  0.00     0.000 OA
ENDBRANCH 86 96
BRANCH 82 102
ATOM    102  O4  IDS B   6      16.939  19.317  24.4480  0.00  0.00     0.000 O
BRANCH 102 106
ATOM    103  C1  IDS B   6      16.293  17.798  27.6930  0.00  0.00     0.000 C
ATOM    104  C2  IDS B   6      15.193  18.582  26.9600  0.00  0.00     0.000 C
ATOM    105  C3  IDS B   6      15.624  19.926  26.4050  0.00  0.00     0.000 C
ATOM    106  C4  IDS B   6      17.007  19.887  25.7800  0.00  0.00     0.000 C
ATOM    107  C5  IDS B   6      17.954  19.077  26.6710  0.00  0.00     0.000 C
ATOM    108  O5  IDS B   6      17.466  17.755  26.9040  0.00  0.00     0.000 O
ATOM    109   O  IDS B   6      15.574  20.875  27.4580  0.00  0.00     0.000 O
ATOM    111  HD  IDS B   6      15.638  20.394  28.1750  0.00  0.00     0.000 HD
BRANCH 104 111
ATOM    111   O  IDS B   6      14.747  17.805  25.7930  0.00  0.00     0.000 O
ATOM    112   S  IDS B   6      13.255  17.226  25.8010  0.00  0.00     0.000 S
ATOM    113   O  IDS B   6      13.195  16.384  26.9860  0.00  0.00     0.000 OA
ATOM    114   O  IDS B   6      12.318  18.355  25.8030  0.00  0.00     0.000 OA
ATOM    115   O  IDS B   6      13.285  16.487  24.5570  0.00  0.00     0.000 OA
ENDBRANCH 104 111
BRANCH 107 116
ATOM    116   C  IDS B   6      19.329  19.013  26.0170  0.00  0.00     0.000 C
ATOM    117   O  IDS B   6      19.621  17.980  25.4700  0.00  0.00     0.000 OA
ATOM    118   O  IDS B   6      20.096  19.962  26.0570  0.00  0.00     0.000 OA
ENDBRANCH 107 116
BRANCH 103 119
ATOM    119  O4  SGN B   7      16.298  18.339  28.9380  0.00  0.00     0.000 O
BRANCH 119 123
ATOM    120  C1  SGN B   7      16.636  16.808  32.8150  0.00  0.00     0.000 C
ATOM    121  C2  SGN B   7      17.902  17.406  32.1710  0.00  0.00     0.000 C
ATOM    122  C3  SGN B   7      17.531  18.267  30.9560  0.00  0.00     0.000 C
ATOM    123  C4  SGN B   7      16.676  17.458  29.9960  0.00  0.00     0.000 C
ATOM    124  C5  SGN B   7      15.447  16.901  30.7330  0.00  0.00     0.000 C
ATOM    125  O5  SGN B   7      15.842  16.097  31.8680  0.00  0.00     0.000 O
ATOM    126   O  SGN B   7      18.733  18.724  30.3260  0.00  0.00     0.000 O
ATOM    128  HD  SGN B   7      18.360  18.338  31.0060  0.00  0.00     0.000 HD
BRANCH 121 130
ATOM    128   N  SGN B   7      18.947  16.762  32.9700  0.00  0.00     0.000 N
ATOM    130  HD  SGN B   7      19.556  17.075  32.4390  0.00  0.00     0.000 HD
ATOM    130   S  SGN B   7      19.934  17.598  33.9300  0.00  0.00     0.000 S
ATOM    131   O  SGN B   7      19.079  18.418  34.7180  0.00  0.00     0.000 OA
ATOM    132   O  SGN B   7      20.828  16.689  34.5510  0.00  0.00     0.000 OA
ATOM    133   O  SGN B   7      20.804  18.340  32.8600  0.00  0.00     0.000 OA
ENDBRANCH 121 130
BRANCH 124 134
ATOM    134   C  SGN B   7      14.598  15.990  29.8960  0.00  0.00     0.000 C
ATOM    135   O  SGN B   7      14.578  14.690  30.5090  0.00  0.00     0.000 O
ATOM    136   S  SGN B   7      13.616  13.627  29.8670  0.00  0.00     0.000 S
ATOM    137   O  SGN B   7      13.845  12.391  30.5760  0.00  0.00     0.000 OA
ATOM    138   O  SGN B   7      14.002  13.560  28.4760  0.00  0.00     0.000 OA
ATOM    139   O  SGN B   7      12.304  14.210  30.1010  0.00  0.00     0.000 OA
ENDBRANCH 124 134
BRANCH 120 140
ATOM    140  O4  IDS B   8      15.660  17.453  33.4650  0.00  0.00     0.000 O
BRANCH 140 144
ATOM    141  C1  IDS B   8      13.332  20.116  34.1310  0.00  0.00     0.000 C
ATOM    142  C2  IDS B   8      14.754  20.417  33.5780  0.00  0.00     0.000 C
ATOM    143  C3  IDS B   8      15.869  19.692  34.3540  0.00  0.00     0.000 C
ATOM    144  C4  IDS B   8      15.507  18.238  34.6530  0.00  0.00     0.000 C
ATOM    145  C5  IDS B   8      14.061  18.147  35.1630  0.00  0.00     0.000 C
ATOM    146  O5  IDS B   8      13.138  18.711  34.2350  0.00  0.00     0.000 O
BRANCH 142 147
ATOM    147   O  IDS B   8      14.840  19.969  32.1630  0.00  0.00     0.000 O
ATOM    148   S  IDS B   8      14.650  21.019  30.9410  0.00  0.00     0.000 S
ATOM    149   O  IDS B   8      14.034  22.211  31.4800  0.00  0.00     0.000 OA
ATOM    150   O  IDS B   8      15.984  21.260  30.4260  0.00  0.00     0.000 OA
ATOM    151   O  IDS B   8      13.785  20.346  29.9910  0.00  0.00     0.000 OA
ENDBRANCH 142 147
BRANCH 145 152
ATOM    152   C  IDS B   8      13.609  16.717  35.3840  0.00  0.00     0.000 C
ATOM    153   O  IDS B   8      14.259  15.986  36.1230  0.00  0.00     0.000 OA
ATOM    154   O  IDS B   8      12.595  16.316  34.8420  0.00  0.00     0.000 OA
ENDBRANCH 145 152
ENDBRANCH 140 144
ENDBRANCH 120 140
ENDBRANCH 119 123
ENDBRANCH 103 119
ENDBRANCH 102 106
ENDBRANCH 82 102
ENDBRANCH 81 85
ENDBRANCH 65 81
ENDBRANCH 64 68
ENDBRANCH 41 64
ENDBRANCH 40 44
ENDBRANCH 24 40
ENDBRANCH 23 27
ENDBRANCH 1 23
TORSDOF 31
ENDMDL
MODEL 2
REMARK VINA RESULT:      -6.8     10.054     13.136
ROOT
ATOM      1  C1  SGN B   1      29.185  10.692  15.7880  0.00  0.00     0.000 C
ATOM      2  C2  SGN B   1      30.604  10.177  15.4990  0.00  0.00     0.000 C
ATOM      3  C3  SGN B   1      30.702   9.626  14.0720  0.00  0.00     0.000 C
ATOM      4  C4  SGN B   1      29.648   8.546  13.8510  0.00  0.00     0.000 C
ATOM      5  C5  SGN B   1      28.287   9.080  14.2920  0.00  0.00     0.000 C
ATOM      6  O5  SGN B   1      28.367   9.536  15.6560  0.00  0.00     0.000 O
ATOM      7   O  SGN B   1      32.004   9.111  13.8230  0.00  0.00     0.000 O
ATOM      9  HD  SGN B   1      31.739   8.610  14.4770  0.00  0.00     0.000 HD
ATOM      9   O  SGN B   1      29.614   8.195  12.4800  0.00  0.00     0.000 O
ATOM     11  HD  SGN B   1      29.348   7.693  13.1350  0.00  0.00     0.000 HD
ENDROOT
BRANCH 2 13
ATOM     11   N  SGN B   1      31.121  10.519  16.8370  0.00  0.00     0.000 N
ATOM     13  HD  SGN B   1      30.880  11.142  16.2870  0.00  0.00     0.000 HD
ATOM     13   S  SGN B   1      31.882  11.905  17.1370  0.00  0.00     0.000 S
ATOM     14   O  SGN B   1      31.914  12.702  15.9740  0.00  0.00     0.000 OA
ATOM     15   O  SGN B   1      31.364  12.451  18.3460  0.00  0.00     0.000 OA
ATOM     16   O  SGN B   1      33.291  11.319  17.4620  0.00  0.00     0.000 OA
ENDBRANCH 2 13
BRANCH 5 17
ATOM     17   C  SGN B   1      27.176   8.061  14.2240  0.00  0.00     0.000 C
ATOM     18   O  SGN B   1      26.517   8.103  12.9430  0.00  0.00     0.000 O
ATOM     19   S  SGN B   1      24.919   8.071  12.9750  0.00  0.00     0.000 S
ATOM     20   O  SGN B   1      24.519   7.885  11.5960  0.00  0.00     0.000 OA
ATOM     21   O  SGN B   1      24.605   6.946  13.8250  0.00  0.00     0.000 OA
ATOM     22   O  SGN B   1      24.527   9.350  13.5240  0.00  0.00     0.000 OA
ENDBRANCH 5 17
BRANCH 1 23
ATOM     23  O4  IDS B   2      28.436  11.828  15.6940  0.00  0.00     0.000 O
BRANCH 23 27
ATOM     24  C1  IDS B   2      26.162  15.087  14.4980  0.00  0.00     0.000 C
ATOM     25  C2  IDS B   2      25.362  13.851  14.9650  0.00  0.00     0.000 C
ATOM     26  C3  IDS B   2      26.274  12.839  15.6540  0.00  0.00     0.000 C
ATOM     27  C4  IDS B   2      27.466  12.420  14.8050  0.00  0.00     0.000 C
ATOM     28  C5  IDS B   2      27.991  13.627  14.0010  0.00  0.00     0.000 C
ATOM     29  O5  IDS B   2      27.573  14.849  14.5890  0.00  0.00     0.000 O
ATOM     30   O  IDS B   2      25.527  11.666  15.9560  0.00  0.00     0.000 O
ATOM     32  HD  IDS B   2      25.417  11.146  15.2720  0.00  0.00     0.000 HD
BRANCH 25 32
ATOM     32   O  IDS B   2      24.285  14.208  15.9200  0.00  0.00     0.000 O
ATOM     33   S  IDS B   2      22.688  14.042  15.5370  0.00  0.00     0.000 S
ATOM     34   O  IDS B   2      21.945  14.689  16.6060  0.00  0.00     0.000 OA
ATOM     35   O  IDS B   2      22.431  14.675  14.2510  0.00  0.00     0.000 OA
ATOM     36   O  IDS B   2      22.440  12.619  15.5100  0.00  0.00     0.000 OA
ENDBRANCH 25 32
BRANCH 28 37
ATOM     37   C  IDS B   2      29.509  13.711  13.7360  0.00  0.00     0.000 C
ATOM     38   O  IDS B   2      30.025  14.663  14.2720  0.00  0.00     0.000 OA
ATOM     39   O  IDS B   2      30.212  12.885  13.1040  0.00  0.00     0.000 OA
ENDBRANCH 28 37
BRANCH 24 40
ATOM     40  O4  SUS B   3      25.543  16.067  13.8050  0.00  0.00     0.000 O
BRANCH 40 44
ATOM     41  C1  SUS B   3      26.123  20.215  13.8640  0.00  0.00     0.000 C
ATOM     42  C2  SUS B   3      27.262  19.352  13.2830  0.00  0.00     0.000 C
ATOM     43  C3  SUS B   3      26.709  17.981  12.9000  0.00  0.00     0.000 C
ATOM     44  C4  SUS B   3      26.027  17.369  14.1140  0.00  0.00     0.000 C
ATOM     45  C5  SUS B   3      24.875  18.261  14.5300  0.00  0.00     0.000 C
ATOM     46  O5  SUS B   3      25.412  19.544  14.9100  0.00  0.00     0.000 O
BRANCH 42 49
ATOM     47   N  SUS B   3      28.318  20.275  13.7310  0.00  0.00     0.000 N
ATOM     49  HD  SUS B   3      28.056  21.024  14.0780  0.00  0.00     0.000 HD
ATOM     49   S  SUS B   3      29.379  20.606  12.5770  0.00  0.00     0.000 S
ATOM     50   O  SUS B   3      28.717  21.151  11.4580  0.00  0.00     0.000 OA
ATOM     51   O  SUS B   3      30.146  21.710  13.3500  0.00  0.00     0.000 OA
ATOM     52   O  SUS B   3      30.204  19.483  12.3650  0.00  0.00     0.000 OA
ENDBRANCH 42 49
BRANCH 43 53
ATOM     53   O  SUS B   3      27.842  17.134  12.4820  0.00  0.00     0.000 O
ATOM     54   S  SUS B   3      27.893  16.675  10.9040  0.00  0.00     0.000 S
ATOM     55   O  SUS B   3      28.222  17.856  10.1170  0.00  0.00     0.000 OA
ATOM     56   O  SUS B   3      28.916  15.645  10.8700  0.00  0.00     0.000 OA
ATOM     57   O  SUS B   3      26.556  16.173  10.5750  0.00  0.00     0.000 OA
ENDBRANCH 43 53
BRANCH 45 58
ATOM     58   C  SUS B   3      24.083  17.666  15.6740  0.00  0.00     0.000 C
ATOM     59   S  SUS B   3      23.988  17.548  18.2360  0.00  0.00     0.000 S
ATOM     60   O  SUS B   3      24.554  18.216  16.9160  0.00  0.00     0.000 O
ATOM     61   O  SUS B   3      24.733  16.313  18.3860  0.00  0.00     0.000 OA
ATOM     62   O  SUS B   3      24.351  18.538  19.2140  0.00  0.00     0.000 OA
ATOM     63   O  SUS B   3      22.593  17.394  18.0160  0.00  0.00     0.000 OA
ENDBRANCH 45 58
BRANCH 41 64
ATOM     64  O4  IDS B   4      25.315  20.780  12.9080  0.00  0.00     0.000 O
BRANCH 64 68
ATOM     65  C1  IDS B   4      22.871  23.056  11.4500  0.00  0.00     0.000 C
ATOM     66  C2  IDS B   4      24.047  23.605  12.2680  0.00  0.00     0.000 C
ATOM     67  C3  IDS B   4      24.290  22.883  13.5820  0.00  0.00     0.000 C
ATOM     68  C4  IDS B   4      24.126  21.379  13.4680  0.00  0.00     0.000 C
ATOM     69  C5  IDS B   4      22.857  21.098  12.6510  0.00  0.00     0.000 C
ATOM     70  O5  IDS B   4      23.009  21.650  11.3410  0.00  0.00     0.000 O
ATOM     71   O  IDS B   4      23.364  23.394  14.5190  0.00  0.00     0.000 O
ATOM     73  HD  IDS B   4      23.825  23.396  13.7850  0.00  0.00     0.000 HD
BRANCH 66 73
ATOM     73   O  IDS B   4      25.284  23.433  11.4930  0.00  0.00     0.000 O
ATOM     74   S  IDS B   4      26.053  24.764  10.9870  0.00  0.00     0.000 S
ATOM     75   O  IDS B   4      25.094  25.521  10.2110  0.00  0.00     0.000 OA
ATOM     76   O  IDS B   4      27.129  24.206  10.2080  0.00  0.00     0.000 OA
ATOM     77   O  IDS B   4      26.479  25.442  12.1880  0.00  0.00     0.000 OA
ENDBRANCH 66 73
BRANCH 69 78
ATOM     78   C  IDS B   4      22.432  19.636  12.6310  0.00  0.00     0.000 C
ATOM     79   O  IDS B   4      21.639  19.240  13.4840  0.00  0.00     0.000 OA
ATOM     80   O  IDS B   4      22.817  18.916  11.6920  0.00  0.00     0.000 OA
ENDBRANCH 69 78
BRANCH 65 81
ATOM     81  O4  SGN B   5      21.701  23.519  11.9720  0.00  0.00     0.000 O
BRANCH 81 85
ATOM     82  C1  SGN B   5      17.826  24.801  10.9850  0.00  0.00     0.000 C
ATOM     83  C2  SGN B   5      18.139  23.310  10.7870  0.00  0.00     0.000 C
ATOM     84  C3  SGN B   5      19.382  22.933  11.6050  0.00  0.00     0.000 C
ATOM     85  C4  SGN B   5      20.533  23.843  11.2140  0.00  0.00     0.000 C
ATOM     86  C5  SGN B   5      20.114  25.287  11.4770  0.00  0.00     0.000 C
ATOM     87  O5  SGN B   5      18.959  25.587  10.6700  0.00  0.00     0.000 O
ATOM     88   O  SGN B   5      19.710  21.579  11.3830  0.00  0.00     0.000 O
ATOM     90  HD  SGN B   5      19.302  21.889  12.0810  0.00  0.00     0.000 HD
BRANCH 83 92
ATOM     90   N  SGN B   5      16.706  23.374  10.4410  0.00  0.00     0.000 N
ATOM     92  HD  SGN B   5      16.528  24.088   9.9840  0.00  0.00     0.000 HD
ATOM     92   S  SGN B   5      15.999  22.041   9.9160  0.00  0.00     0.000 S
ATOM     93   O  SGN B   5      14.644  22.432   9.6680  0.00  0.00     0.000 OA
ATOM     94   O  SGN B   5      16.812  21.568   8.8480  0.00  0.00     0.000 OA
ATOM     95   O  SGN B   5      16.137  21.057  11.0580  0.00  0.00     0.000 OA
ENDBRANCH 83 92
BRANCH 86 96
ATOM     96   C  SGN B   5      21.177  26.313  11.1410  0.00  0.00     0.000 C
ATOM     97   O  SGN B   5      21.755  26.038   9.8630  0.00  0.00     0.000 O
ATOM     98   S  SGN B   5      21.812  27.266   8.8340  0.00  0.00     0.000 S
ATOM     99   O  SGN B   5      22.611  26.740   7.7540  0.00  0.00     0.000 OA
ATOM    100   O  SGN B   5      20.476  27.588   8.4810  0.00  0.00     0.000 OA
ATOM    101   O  SGN B   5      22.461  28.308   9.5620  0.00  0.00     0.000 OA
ENDBRANCH 86 96
BRANCH 82 102
ATOM    102  O4  IDS B   6      17.389  25.082  12.2460  0.00  0.00     0.000 O
BRANCH 102 106
ATOM    103  C1  IDS B   6      14.773  26.402  14.4060  0.00  0.00     0.000 C
ATOM    104  C2  IDS B   6      14.430  25.798  13.0350  0.00  0.00     0.000 C
ATOM    105  C3  IDS B   6      15.298  26.276  11.8870  0.00  0.00     0.000 C
ATOM    106  C4  IDS B   6      16.763  26.390  12.2680  0.00  0.00     0.000 C
ATOM    107  C5  IDS B   6      16.890  27.031  13.6530  0.00  0.00     0.000 C
ATOM    108  O5  IDS B   6      16.164  26.303  14.6450  0.00  0.00     0.000 O
ATOM    109   O  IDS B   6      14.794  27.526  11.4430  0.00  0.00     0.000 O
ATOM    111  HD  IDS B   6      14.361  27.830  12.1280  0.00  0.00     0.000 HD
BRANCH 104 111
ATOM    111   O  IDS B   6      14.626  24.342  13.0900  0.00  0.00     0.000 O
ATOM    112   S  IDS B   6      13.326  23.408  13.1310  0.00  0.00     0.000 S
ATOM    113   O  IDS B   6      12.604  23.837  14.3190  0.00  0.00     0.000 OA
ATOM    114   O  IDS B   6      12.592  23.579  11.8730  0.00  0.00     0.000 OA
ATOM    115   O  IDS B   6      13.969  22.119  13.2690  0.00  0.00     0.000 OA
ENDBRANCH 104 111
BRANCH 107 116
ATOM    116   C  IDS B   6      18.361  27.107  14.0410  0.00  0.00     0.000 C
ATOM    117   O  IDS B   6      18.744  26.322  14.8720  0.00  0.00     0.000 OA
ATOM    118   O  IDS B   6      19.109  27.930  13.5380  0.00  0.00     0.000 OA
ENDBRANCH 107 116
BRANCH 103 119
ATOM    119  O4  SGN B   7      14.141  27.604  14.3950  0.00  0.00     0.000 O
BRANCH 119 123
ATOM    120  C1  SGN B   7      12.296  30.092  17.2040  0.00  0.00     0.000 C
ATOM    121  C2  SGN B   7      13.836  30.048  17.1930  0.00  0.00     0.000 C
ATOM    122  C3  SGN B   7      14.346  29.431  15.8840  0.00  0.00     0.000 C
ATOM    123  C4  SGN B   7      13.690  28.079  15.6640  0.00  0.00     0.000 C
ATOM    124  C5  SGN B   7      12.160  28.228  15.6990  0.00  0.00     0.000 C
ATOM    125  O5  SGN B   7      11.725  28.810  16.9480  0.00  0.00     0.000 O
ATOM    126   O  SGN B   7      15.772  29.315  15.9490  0.00  0.00     0.000 O
ATOM    128  HD  SGN B   7      15.043  29.628  16.2970  0.00  0.00     0.000 HD
BRANCH 121 130
ATOM    128   N  SGN B   7      13.667  31.209  18.0700  0.00  0.00     0.000 N
ATOM    130  HD  SGN B   7      13.813  30.714  18.7650  0.00  0.00     0.000 HD
ATOM    130   S  SGN B   7      14.910  31.911  18.8160  0.00  0.00     0.000 S
ATOM    131   O  SGN B   7      15.876  32.139  17.7950  0.00  0.00     0.000 OA
ATOM    132   O  SGN B   7      14.414  32.993  19.5880  0.00  0.00     0.000 OA
ATOM    133   O  SGN B   7      15.268  30.806  19.8660  0.00  0.00     0.000 OA
ENDBRANCH 121 130
BRANCH 124 134
ATOM    134   C  SGN B   7      11.421  26.926  15.6060  0.00  0.00     0.000 C
ATOM    135   O  SGN B   7      10.447  26.875  16.6620  0.00  0.00     0.000 O
ATOM    136   S  SGN B   7       9.460  25.653  16.6460  0.00  0.00     0.000 S
ATOM    137   O  SGN B   7       8.660  25.762  17.8420  0.00  0.00     0.000 OA
ATOM    138   O  SGN B   7      10.308  24.482  16.6400  0.00  0.00     0.000 OA
ATOM    139   O  SGN B   7       8.718  25.866  15.4140  0.00  0.00     0.000 OA
ENDBRANCH 124 134
BRANCH 120 140
ATOM    140  O4  IDS B   8      11.488  30.837  16.4410  0.00  0.00     0.000 O
BRANCH 140 144
ATOM    141  C1  IDS B   8      10.208  32.457  13.4920  0.00  0.00     0.000 C
ATOM    142  C2  IDS B   8      11.739  32.353  13.7460  0.00  0.00     0.000 C
ATOM    143  C3  IDS B   8      12.146  32.785  15.1670  0.00  0.00     0.000 C
ATOM    144  C4  IDS B   8      11.201  32.225  16.2290  0.00  0.00     0.000 C
ATOM    145  C5  IDS B   8       9.741  32.400  15.7840  0.00  0.00     0.000 C
ATOM    146  O5  IDS B   8       9.497  31.782  14.5220  0.00  0.00     0.000 O
BRANCH 142 147
ATOM    147   O  IDS B   8      12.175  30.942  13.5740  0.00  0.00     0.000 O
ATOM    148   S  IDS B   8      12.896  30.451  12.2070  0.00  0.00     0.000 S
ATOM    149   O  IDS B   8      12.647  31.453  11.1960  0.00  0.00     0.000 OA
ATOM    150   O  IDS B   8      14.304  30.323  12.5360  0.00  0.00     0.000 OA
ATOM    151   O  IDS B   8      12.271  29.184  11.8790  0.00  0.00     0.000 OA
ENDBRANCH 142 147
BRANCH 145 152
ATOM    152   C  IDS B   8       8.757  31.773  16.7520  0.00  0.00     0.000 C
ATOM    153   O  IDS B   8       8.083  30.815  16.3920  0.00  0.00     0.000 OA
ATOM    154   O  IDS B   8       8.661  32.215  17.8820  0.00  0.00     0.000 OA
ENDBRANCH 145 152
ENDBRANCH 140 144
ENDBRANCH 120 140
ENDBRANCH 119 123
ENDBRANCH 103 119
ENDBRANCH 102 106
ENDBRANCH 82 102
ENDBRANCH 81 85
ENDBRANCH 65 81
ENDBRANCH 64 68
ENDBRANCH 41 64
ENDBRANCH 40 44
ENDBRANCH 24 40
ENDBRANCH 23 27
ENDBRANCH 1 23
TORSDOF 31
ENDMDL
MODEL 3
REMARK VINA RESULT:      -6.7      3.430      5.501
ROOT
ATOM      1  C1  SGN B   1      28.644  10.969  13.6480  0.00  0.00     0.000 C
ATOM      2  C2  SGN B   1      30.131  10.604  13.7890  0.00  0.00     0.000 C
ATOM      3  C3  SGN B   1      30.495   9.442  12.8590  0.00  0.00     0.000 C
ATOM      4  C4  SGN B   1      29.586   8.247  13.1290  0.00  0.00     0.000 C
ATOM      5  C5  SGN B   1      28.132   8.713  13.1140  0.00  0.00     0.000 C
ATOM      6  O5  SGN B   1      27.961   9.791  14.0540  0.00  0.00     0.000 O
ATOM      7   O  SGN B   1      31.860   9.078  13.0240  0.00  0.00     0.000 O
ATOM      9  HD  SGN B   1      31.542   8.932  13.8160  0.00  0.00     0.000 HD
ATOM      9   O  SGN B   1      29.795   7.262  12.1340  0.00  0.00     0.000 O
ATOM     11  HD  SGN B   1      29.476   7.117  12.9260  0.00  0.00     0.000 HD
ENDROOT
BRANCH 2 13
ATOM     11   N  SGN B   1      30.453  11.621  14.8080  0.00  0.00     0.000 N
ATOM     13  HD  SGN B   1      30.189  11.858  14.0180  0.00  0.00     0.000 HD
ATOM     13   S  SGN B   1      30.985  13.089  14.4200  0.00  0.00     0.000 S
ATOM     14   O  SGN B   1      31.031  13.233  13.0180  0.00  0.00     0.000 OA
ATOM     15   O  SGN B   1      30.274  14.046  15.2000  0.00  0.00     0.000 OA
ATOM     16   O  SGN B   1      32.418  12.974  15.0260  0.00  0.00     0.000 OA
ENDBRANCH 2 13
BRANCH 5 17
ATOM     17   C  SGN B   1      27.139   7.637  13.4780  0.00  0.00     0.000 C
ATOM     18   O  SGN B   1      26.082   7.560  12.5010  0.00  0.00     0.000 O
ATOM     19   S  SGN B   1      24.596   7.450  13.0820  0.00  0.00     0.000 S
ATOM     20   O  SGN B   1      23.765   7.152  11.9350  0.00  0.00     0.000 OA
ATOM     21   O  SGN B   1      24.670   6.370  14.0380  0.00  0.00     0.000 OA
ATOM     22   O  SGN B   1      24.326   8.742  13.6740  0.00  0.00     0.000 OA
ENDBRANCH 5 17
BRANCH 1 23
ATOM     23  O4  IDS B   2      27.822  11.780  12.9220  0.00  0.00     0.000 O
BRANCH 23 27
ATOM     24  C1  IDS B   2      25.760  14.685  15.0520  0.00  0.00     0.000 C
ATOM     25  C2  IDS B   2      25.109  13.284  15.0320  0.00  0.00     0.000 C
ATOM     26  C3  IDS B   2      26.079  12.239  14.4880  0.00  0.00     0.000 C
ATOM     27  C4  IDS B   2      26.645  12.590  13.1180  0.00  0.00     0.000 C
ATOM     28  C5  IDS B   2      26.892  14.109  13.0240  0.00  0.00     0.000 C
ATOM     29  O5  IDS B   2      26.991  14.688  14.3160  0.00  0.00     0.000 O
ATOM     30   O  IDS B   2      25.405  10.992  14.3680  0.00  0.00     0.000 O
ATOM     32  HD  IDS B   2      24.906  10.940  13.6620  0.00  0.00     0.000 HD
BRANCH 25 32
ATOM     32   O  IDS B   2      24.686  12.842  16.3840  0.00  0.00     0.000 O
ATOM     33   S  IDS B   2      23.237  12.095  16.6430  0.00  0.00     0.000 S
ATOM     34   O  IDS B   2      23.074  12.018  18.0860  0.00  0.00     0.000 OA
ATOM     35   O  IDS B   2      22.173  12.875  16.0270  0.00  0.00     0.000 OA
ATOM     36   O  IDS B   2      23.366  10.781  16.0570  0.00  0.00     0.000 OA
ENDBRANCH 25 32
BRANCH 28 37
ATOM     37   C  IDS B   2      28.092  14.592  12.1830  0.00  0.00     0.000 C
ATOM     38   O  IDS B   2      28.691  15.504  12.7040  0.00  0.00     0.000 OA
ATOM     39   O  IDS B   2      28.505  14.101  11.1040  0.00  0.00     0.000 OA
ENDBRANCH 28 37
BRANCH 24 40
ATOM     40  O4  SUS B   3      25.038  15.757  15.4380  0.00  0.00     0.000 O
BRANCH 40 44
ATOM     41  C1  SUS B   3      26.216  19.239  17.4470  0.00  0.00     0.000 C
ATOM     42  C2  SUS B   3      26.617  19.111  15.9640  0.00  0.00     0.000 C
ATOM     43  C3  SUS B   3      25.727  18.069  15.2900  0.00  0.00     0.000 C
ATOM     44  C4  SUS B   3      25.818  16.766  16.0700  0.00  0.00     0.000 C
ATOM     45  C5  SUS B   3      25.312  17.002  17.4780  0.00  0.00     0.000 C
ATOM     46  O5  SUS B   3      26.174  17.970  18.1100  0.00  0.00     0.000 O
BRANCH 42 49
ATOM     47   N  SUS B   3      26.607  20.495  15.4590  0.00  0.00     0.000 N
ATOM     49  HD  SUS B   3      26.055  20.667  14.8140  0.00  0.00     0.000 HD
ATOM     49   S  SUS B   3      28.061  21.002  15.0190  0.00  0.00     0.000 S
ATOM     50   O  SUS B   3      28.592  20.143  14.0360  0.00  0.00     0.000 OA
ATOM     51   O  SUS B   3      27.600  22.340  14.3850  0.00  0.00     0.000 OA
ATOM     52   O  SUS B   3      28.840  21.239  16.1690  0.00  0.00     0.000 OA
ENDBRANCH 42 49
BRANCH 43 53
ATOM     53   O  SUS B   3      26.223  17.867  13.9150  0.00  0.00     0.000 O
ATOM     54   S  SUS B   3      25.259  18.378  12.6870  0.00  0.00     0.000 S
ATOM     55   O  SUS B   3      25.276  19.834  12.6960  0.00  0.00     0.000 OA
ATOM     56   O  SUS B   3      25.858  17.792  11.5010  0.00  0.00     0.000 OA
ATOM     57   O  SUS B   3      23.916  17.861  12.9710  0.00  0.00     0.000 OA
ENDBRANCH 43 53
BRANCH 45 58
ATOM     58   C  SUS B   3      25.278  15.725  18.2890  0.00  0.00     0.000 C
ATOM     59   S  SUS B   3      24.508  14.766  20.5420  0.00  0.00     0.000 S
ATOM     60   O  SUS B   3      24.479  15.929  19.4660  0.00  0.00     0.000 O
ATOM     61   O  SUS B   3      25.764  14.933  21.2470  0.00  0.00     0.000 OA
ATOM     62   O  SUS B   3      23.368  15.118  21.3460  0.00  0.00     0.000 OA
ATOM     63   O  SUS B   3      24.381  13.561  19.8020  0.00  0.00     0.000 OA
ENDBRANCH 45 58
BRANCH 41 64
ATOM     64  O4  IDS B   4      25.104  20.018  17.6550  0.00  0.00     0.000 O
BRANCH 64 68
ATOM     65  C1  IDS B   4      22.889  22.313  19.4170  0.00  0.00     0.000 C
ATOM     66  C2  IDS B   4      24.400  22.576  19.3760  0.00  0.00     0.000 C
ATOM     67  C3  IDS B   4      25.257  21.359  19.6810  0.00  0.00     0.000 C
ATOM     68  C4  IDS B   4      24.725  20.088  19.0470  0.00  0.00     0.000 C
ATOM     69  C5  IDS B   4      23.207  20.043  19.2700  0.00  0.00     0.000 C
ATOM     70  O5  IDS B   4      22.604  21.170  18.6300  0.00  0.00     0.000 O
ATOM     71   O  IDS B   4      25.294  21.214  21.0860  0.00  0.00     0.000 O
ATOM     73  HD  IDS B   4      25.162  21.635  20.3410  0.00  0.00     0.000 HD
BRANCH 66 73
ATOM     73   O  IDS B   4      24.772  22.985  18.0140  0.00  0.00     0.000 O
ATOM     74   S  IDS B   4      25.901  24.132  17.8500  0.00  0.00     0.000 S
ATOM     75   O  IDS B   4      25.429  25.282  18.5910  0.00  0.00     0.000 OA
ATOM     76   O  IDS B   4      25.923  24.323  16.4210  0.00  0.00     0.000 OA
ATOM     77   O  IDS B   4      27.112  23.561  18.3910  0.00  0.00     0.000 OA
ENDBRANCH 66 73
BRANCH 69 78
ATOM     78   C  IDS B   4      22.553  18.723  18.8850  0.00  0.00     0.000 C
ATOM     79   O  IDS B   4      22.006  18.057  19.7620  0.00  0.00     0.000 OA
ATOM     80   O  IDS B   4      22.501  18.413  17.6810  0.00  0.00     0.000 OA
ENDBRANCH 69 78
BRANCH 65 81
ATOM     81  O4  SGN B   5      22.469  22.286  20.7120  0.00  0.00     0.000 O
BRANCH 81 85
ATOM     82  C1  SGN B   5      19.184  23.021  23.2240  0.00  0.00     0.000 C
ATOM     83  C2  SGN B   5      19.074  21.829  22.2610  0.00  0.00     0.000 C
ATOM     84  C3  SGN B   5      20.474  21.427  21.7800  0.00  0.00     0.000 C
ATOM     85  C4  SGN B   5      21.157  22.633  21.1600  0.00  0.00     0.000 C
ATOM     86  C5  SGN B   5      21.228  23.737  22.2120  0.00  0.00     0.000 C
ATOM     87  O5  SGN B   5      19.888  24.084  22.6100  0.00  0.00     0.000 O
ATOM     88   O  SGN B   5      20.377  20.369  20.8510  0.00  0.00     0.000 O
ATOM     90  HD  SGN B   5      20.602  20.287  21.6840  0.00  0.00     0.000 HD
BRANCH 83 92
ATOM     90   N  SGN B   5      17.729  21.845  22.8700  0.00  0.00     0.000 N
ATOM     92  HD  SGN B   5      17.354  22.620  22.7730  0.00  0.00     0.000 HD
ATOM     92   S  SGN B   5      16.772  20.592  22.6090  0.00  0.00     0.000 S
ATOM     93   O  SGN B   5      15.567  20.914  23.3140  0.00  0.00     0.000 OA
ATOM     94   O  SGN B   5      16.746  20.413  21.1980  0.00  0.00     0.000 OA
ATOM     95   O  SGN B   5      17.512  19.413  23.2010  0.00  0.00     0.000 OA
ENDBRANCH 83 92
BRANCH 86 96
ATOM     96   C  SGN B   5      21.901  25.008  21.7340  0.00  0.00     0.000 C
ATOM     97   O  SGN B   5      21.115  25.641  20.7220  0.00  0.00     0.000 O
ATOM     98   S  SGN B   5      20.804  27.199  20.9410  0.00  0.00     0.000 S
ATOM     99   O  SGN B   5      20.193  27.581  19.6910  0.00  0.00     0.000 OA
ATOM    100   O  SGN B   5      19.956  27.309  22.0730  0.00  0.00     0.000 OA
ATOM    101   O  SGN B   5      22.086  27.791  21.1480  0.00  0.00     0.000 OA
ENDBRANCH 86 96
BRANCH 82 102
ATOM    102  O4  IDS B   6      19.769  22.687  24.4080  0.00  0.00     0.000 O
BRANCH 102 106
ATOM    103  C1  IDS B   6      19.928  22.261  28.0210  0.00  0.00     0.000 C
ATOM    104  C2  IDS B   6      18.718  21.752  27.2220  0.00  0.00     0.000 C
ATOM    105  C3  IDS B   6      18.146  22.740  26.2230  0.00  0.00     0.000 C
ATOM    106  C4  IDS B   6      19.223  23.505  25.4740  0.00  0.00     0.000 C
ATOM    107  C5  IDS B   6      20.323  23.938  26.4470  0.00  0.00     0.000 C
ATOM    108  O5  IDS B   6      20.885  22.825  27.1450  0.00  0.00     0.000 O
ATOM    109   O  IDS B   6      17.290  23.629  26.9220  0.00  0.00     0.000 O
ATOM    111  HD  IDS B   6      17.572  23.589  27.7400  0.00  0.00     0.000 HD
BRANCH 104 111
ATOM    111   O  IDS B   6      19.125  20.585  26.4250  0.00  0.00     0.000 O
ATOM    112   S  IDS B   6      18.468  19.168  26.7750  0.00  0.00     0.000 S
ATOM    113   O  IDS B   6      18.814  18.938  28.1690  0.00  0.00     0.000 OA
ATOM    114   O  IDS B   6      17.028  19.245  26.5060  0.00  0.00     0.000 OA
ATOM    115   O  IDS B   6      19.198  18.336  25.8430  0.00  0.00     0.000 OA
ENDBRANCH 104 111
BRANCH 107 116
ATOM    116   C  IDS B   6      21.415  24.672  25.6800  0.00  0.00     0.000 C
ATOM    117   O  IDS B   6      22.493  24.137  25.6260  0.00  0.00     0.000 OA
ATOM    118   O  IDS B   6      21.204  25.755  25.1560  0.00  0.00     0.000 OA
ENDBRANCH 107 116
BRANCH 103 119
ATOM    119  O4  SGN B   7      19.370  22.989  29.0210  0.00  0.00     0.000 O
BRANCH 119 123
ATOM    120  C1  SGN B   7      20.502  23.843  32.9560  0.00  0.00     0.000 C
ATOM    121  C2  SGN B   7      20.639  24.969  31.9140  0.00  0.00     0.000 C
ATOM    122  C3  SGN B   7      19.826  24.639  30.6550  0.00  0.00     0.000 C
ATOM    123  C4  SGN B   7      20.221  23.268  30.1340  0.00  0.00     0.000 C
ATOM    124  C5  SGN B   7      20.056  22.219  31.2460  0.00  0.00     0.000 C
ATOM    125  O5  SGN B   7      20.839  22.569  32.4100  0.00  0.00     0.000 O
ATOM    126   O  SGN B   7      20.054  25.656  29.6730  0.00  0.00     0.000 O
ATOM    128  HD  SGN B   7      20.151  25.389  30.4910  0.00  0.00     0.000 HD
BRANCH 121 130
ATOM    128   N  SGN B   7      20.516  25.903  33.0360  0.00  0.00     0.000 N
ATOM    130  HD  SGN B   7      21.325  25.721  33.2850  0.00  0.00     0.000 HD
ATOM    130   S  SGN B   7      21.266  27.328  33.0550  0.00  0.00     0.000 S
ATOM    131   O  SGN B   7      20.944  27.934  31.8080  0.00  0.00     0.000 OA
ATOM    132   O  SGN B   7      20.951  27.982  34.2730  0.00  0.00     0.000 OA
ATOM    133   O  SGN B   7      22.751  26.862  33.2290  0.00  0.00     0.000 OA
ENDBRANCH 121 130
BRANCH 124 134
ATOM    134   C  SGN B   7      20.532  20.848  30.8630  0.00  0.00     0.000 C
ATOM    135   O  SGN B   7      21.952  20.900  30.6460  0.00  0.00     0.000 O
ATOM    136   S  SGN B   7      22.670  19.528  30.3840  0.00  0.00     0.000 S
ATOM    137   O  SGN B   7      24.049  19.841  30.0940  0.00  0.00     0.000 OA
ATOM    138   O  SGN B   7      21.975  18.946  29.2580  0.00  0.00     0.000 OA
ATOM    139   O  SGN B   7      22.474  18.826  31.6420  0.00  0.00     0.000 OA
ENDBRANCH 124 134
BRANCH 120 140
ATOM    140  O4  IDS B   8      19.415  23.492  33.6500  0.00  0.00     0.000 O
BRANCH 140 144
ATOM    141  C1  IDS B   8      16.138  22.910  35.0240  0.00  0.00     0.000 C
ATOM    142  C2  IDS B   8      16.700  24.353  34.8790  0.00  0.00     0.000 C
ATOM    143  C3  IDS B   8      18.129  24.503  35.4320  0.00  0.00     0.000 C
ATOM    144  C4  IDS B   8      19.027  23.337  35.0210  0.00  0.00     0.000 C
ATOM    145  C5  IDS B   8      18.287  22.005  35.2140  0.00  0.00     0.000 C
ATOM    146  O5  IDS B   8      17.062  21.973  34.4860  0.00  0.00     0.000 O
BRANCH 142 147
ATOM    147   O  IDS B   8      16.743  24.726  33.4410  0.00  0.00     0.000 O
ATOM    148   S  IDS B   8      16.415  26.240  32.9590  0.00  0.00     0.000 S
ATOM    149   O  IDS B   8      15.746  26.912  34.0510  0.00  0.00     0.000 OA
ATOM    150   O  IDS B   8      17.701  26.832  32.6390  0.00  0.00     0.000 OA
ATOM    151   O  IDS B   8      15.552  26.094  31.8030  0.00  0.00     0.000 OA
ENDBRANCH 142 147
BRANCH 145 152
ATOM    152   C  IDS B   8      19.092  20.816  34.7290  0.00  0.00     0.000 C
ATOM    153   O  IDS B   8      20.190  20.587  35.2240  0.00  0.00     0.000 OA
ATOM    154   O  IDS B   8      18.631  20.088  33.8690  0.00  0.00     0.000 OA
ENDBRANCH 145 152
ENDBRANCH 140 144
ENDBRANCH 120 140
ENDBRANCH 119 123
ENDBRANCH 103 119
ENDBRANCH 102 106
ENDBRANCH 82 102
ENDBRANCH 81 85
ENDBRANCH 65 81
ENDBRANCH 64 68
ENDBRANCH 41 64
ENDBRANCH 40 44
ENDBRANCH 24 40
ENDBRANCH 23 27
ENDBRANCH 1 23
TORSDOF 31
ENDMDL
MODEL 4
REMARK VINA RESULT:      -6.5      8.343     12.765
ROOT
ATOM      1  C1  SGN B   1      28.257  10.850  14.4310  0.00  0.00     0.000 C
ATOM      2  C2  SGN B   1      29.597  10.454  15.0720  0.00  0.00     0.000 C
ATOM      3  C3  SGN B   1      30.252   9.307  14.2940  0.00  0.00     0.000 C
ATOM      4  C4  SGN B   1      29.295   8.124  14.1950  0.00  0.00     0.000 C
ATOM      5  C5  SGN B   1      27.943   8.617  13.6860  0.00  0.00     0.000 C
ATOM      6  O5  SGN B   1      27.464   9.676  14.5380  0.00  0.00     0.000 O
ATOM      7   O  SGN B   1      31.470   8.913  14.9160  0.00  0.00     0.000 O
ATOM      9  HD  SGN B   1      30.893   8.754  15.5420  0.00  0.00     0.000 HD
ATOM      9   O  SGN B   1      29.829   7.159  13.3070  0.00  0.00     0.000 O
ATOM     11  HD  SGN B   1      29.252   7.001  13.9330  0.00  0.00     0.000 HD
ENDROOT
BRANCH 2 13
ATOM     11   N  SGN B   1      29.425  11.497  16.1000  0.00  0.00     0.000 N
ATOM     13  HD  SGN B   1      29.631  11.711  15.2870  0.00  0.00     0.000 HD
ATOM     13   S  SGN B   1      30.200  12.905  16.0340  0.00  0.00     0.000 S
ATOM     14   O  SGN B   1      30.980  12.976  14.8600  0.00  0.00     0.000 OA
ATOM     15   O  SGN B   1      29.270  13.945  16.3190  0.00  0.00     0.000 OA
ATOM     16   O  SGN B   1      31.095  12.728  17.2990  0.00  0.00     0.000 OA
ENDBRANCH 2 13
BRANCH 5 17
ATOM     17   C  SGN B   1      26.875   7.553  13.6490  0.00  0.00     0.000 C
ATOM     18   O  SGN B   1      25.855   7.879  12.6830  0.00  0.00     0.000 O
ATOM     19   S  SGN B   1      24.343   7.684  13.1660  0.00  0.00     0.000 S
ATOM     20   O  SGN B   1      23.544   7.845  11.9700  0.00  0.00     0.000 OA
ATOM     21   O  SGN B   1      24.316   6.344  13.7040  0.00  0.00     0.000 OA
ATOM     22   O  SGN B   1      24.125   8.719  14.1530  0.00  0.00     0.000 OA
ENDBRANCH 5 17
BRANCH 1 23
ATOM     23  O4  IDS B   2      27.750  11.694  13.4870  0.00  0.00     0.000 O
BRANCH 23 27
ATOM     24  C1  IDS B   2      25.566  15.095  14.4320  0.00  0.00     0.000 C
ATOM     25  C2  IDS B   2      24.860  13.750  14.7120  0.00  0.00     0.000 C
ATOM     26  C3  IDS B   2      25.843  12.586  14.6140  0.00  0.00     0.000 C
ATOM     27  C4  IDS B   2      26.594  12.535  13.2910  0.00  0.00     0.000 C
ATOM     28  C5  IDS B   2      26.920  13.965  12.8140  0.00  0.00     0.000 C
ATOM     29  O5  IDS B   2      26.879  14.883  13.8970  0.00  0.00     0.000 O
ATOM     30   O  IDS B   2      25.134  11.361  14.7540  0.00  0.00     0.000 O
ATOM     32  HD  IDS B   2      24.727  11.117  14.0290  0.00  0.00     0.000 HD
BRANCH 25 32
ATOM     32   O  IDS B   2      24.248  13.707  16.0630  0.00  0.00     0.000 O
ATOM     33   S  IDS B   2      22.612  13.663  16.2780  0.00  0.00     0.000 S
ATOM     34   O  IDS B   2      22.386  13.855  17.7010  0.00  0.00     0.000 OA
ATOM     35   O  IDS B   2      21.992  14.720  15.4920  0.00  0.00     0.000 OA
ATOM     36   O  IDS B   2      22.199  12.345  15.8530  0.00  0.00     0.000 OA
ENDBRANCH 25 32
BRANCH 28 37
ATOM     37   C  IDS B   2      28.238  14.184  12.0430  0.00  0.00     0.000 C
ATOM     38   O  IDS B   2      29.118  14.635  12.7380  0.00  0.00     0.000 OA
ATOM     39   O  IDS B   2      28.470  13.889  10.8450  0.00  0.00     0.000 OA
ENDBRANCH 28 37
BRANCH 24 40
ATOM     40  O4  SUS B   3      24.849  16.238  14.4050  0.00  0.00     0.000 O
BRANCH 40 44
ATOM     41  C1  SUS B   3      25.953  20.158  15.3840  0.00  0.00     0.000 C
ATOM     42  C2  SUS B   3      26.591  19.540  14.1230  0.00  0.00     0.000 C
ATOM     43  C3  SUS B   3      25.745  18.355  13.6610  0.00  0.00     0.000 C
ATOM     44  C4  SUS B   3      25.591  17.380  14.8170  0.00  0.00     0.000 C
ATOM     45  C5  SUS B   3      24.873  18.077  15.9550  0.00  0.00     0.000 C
ATOM     46  O5  SUS B   3      25.692  19.179  16.3960  0.00  0.00     0.000 O
BRANCH 42 49
ATOM     47   N  SUS B   3      26.785  20.696  13.2320  0.00  0.00     0.000 N
ATOM     49  HD  SUS B   3      26.356  20.682  12.4800  0.00  0.00     0.000 HD
ATOM     49   S  SUS B   3      28.330  20.981  12.9170  0.00  0.00     0.000 S
ATOM     50   O  SUS B   3      28.922  19.837  12.3440  0.00  0.00     0.000 OA
ATOM     51   O  SUS B   3      28.096  22.072  11.8410  0.00  0.00     0.000 OA
ATOM     52   O  SUS B   3      28.945  21.532  14.0590  0.00  0.00     0.000 OA
ENDBRANCH 42 49
BRANCH 43 53
ATOM     53   O  SUS B   3      26.452  17.701  12.5430  0.00  0.00     0.000 O
ATOM     54   S  SUS B   3      25.762  17.808  11.0550  0.00  0.00     0.000 S
ATOM     55   O  SUS B   3      25.906  19.186  10.6050  0.00  0.00     0.000 OA
ATOM     56   O  SUS B   3      26.503  16.850  10.2540  0.00  0.00     0.000 OA
ATOM     57   O  SUS B   3      24.351  17.450  11.2250  0.00  0.00     0.000 OA
ENDBRANCH 43 53
BRANCH 45 58
ATOM     58   C  SUS B   3      24.593  17.139  17.1080  0.00  0.00     0.000 C
ATOM     59   S  SUS B   3      24.927  16.872  19.6390  0.00  0.00     0.000 S
ATOM     60   O  SUS B   3      24.949  17.783  18.3430  0.00  0.00     0.000 O
ATOM     61   O  SUS B   3      26.150  16.095  19.5770  0.00  0.00     0.000 OA
ATOM     62   O  SUS B   3      24.956  17.874  20.6700  0.00  0.00     0.000 OA
ATOM     63   O  SUS B   3      23.724  16.121  19.5540  0.00  0.00     0.000 OA
ENDBRANCH 45 58
BRANCH 41 64
ATOM     64  O4  IDS B   4      24.892  20.988  15.1170  0.00  0.00     0.000 O
BRANCH 64 68
ATOM     65  C1  IDS B   4      22.644  23.851  15.2690  0.00  0.00     0.000 C
ATOM     66  C2  IDS B   4      24.092  24.030  14.7960  0.00  0.00     0.000 C
ATOM     67  C3  IDS B   4      25.128  23.347  15.6720  0.00  0.00     0.000 C
ATOM     68  C4  IDS B   4      24.685  21.977  16.1500  0.00  0.00     0.000 C
ATOM     69  C5  IDS B   4      23.225  22.081  16.6120  0.00  0.00     0.000 C
ATOM     70  O5  IDS B   4      22.409  22.475  15.5060  0.00  0.00     0.000 O
ATOM     71   O  IDS B   4      25.358  24.188  16.7840  0.00  0.00     0.000 O
ATOM     73  HD  IDS B   4      25.082  23.995  15.9860  0.00  0.00     0.000 HD
BRANCH 66 73
ATOM     73   O  IDS B   4      24.235  23.416  13.4690  0.00  0.00     0.000 O
ATOM     74   S  IDS B   4      24.769  24.346  12.2570  0.00  0.00     0.000 S
ATOM     75   O  IDS B   4      23.865  25.473  12.1760  0.00  0.00     0.000 OA
ATOM     76   O  IDS B   4      24.687  23.445  11.1350  0.00  0.00     0.000 OA
ATOM     77   O  IDS B   4      26.115  24.719  12.6220  0.00  0.00     0.000 OA
ENDBRANCH 66 73
BRANCH 69 78
ATOM     78   C  IDS B   4      22.700  20.842  17.3240  0.00  0.00     0.000 C
ATOM     79   O  IDS B   4      23.193  20.530  18.4080  0.00  0.00     0.000 OA
ATOM     80   O  IDS B   4      21.720  20.247  16.8400  0.00  0.00     0.000 OA
ENDBRANCH 69 78
BRANCH 65 81
ATOM     81  O4  SGN B   5      22.396  24.703  16.3030  0.00  0.00     0.000 O
BRANCH 81 85
ATOM     82  C1  SGN B   5      19.265  26.775  18.1840  0.00  0.00     0.000 C
ATOM     83  C2  SGN B   5      19.724  25.462  18.8370  0.00  0.00     0.000 C
ATOM     84  C3  SGN B   5      21.124  25.096  18.3230  0.00  0.00     0.000 C
ATOM     85  C4  SGN B   5      21.100  25.032  16.8060  0.00  0.00     0.000 C
ATOM     86  C5  SGN B   5      20.653  26.393  16.2760  0.00  0.00     0.000 C
ATOM     87  O5  SGN B   5      19.331  26.671  16.7740  0.00  0.00     0.000 O
ATOM     88   O  SGN B   5      21.529  23.862  18.8750  0.00  0.00     0.000 O
ATOM     90  HD  SGN B   5      21.793  24.643  19.1420  0.00  0.00     0.000 HD
BRANCH 83 92
ATOM     90   N  SGN B   5      19.277  25.962  20.1520  0.00  0.00     0.000 N
ATOM     92  HD  SGN B   5      19.016  26.786  20.0980  0.00  0.00     0.000 HD
ATOM     92   S  SGN B   5      18.346  25.013  21.0380  0.00  0.00     0.000 S
ATOM     93   O  SGN B   5      18.088  25.775  22.2230  0.00  0.00     0.000 OA
ATOM     94   O  SGN B   5      17.270  24.626  20.1910  0.00  0.00     0.000 OA
ATOM     95   O  SGN B   5      19.186  23.780  21.2940  0.00  0.00     0.000 OA
ENDBRANCH 83 92
BRANCH 86 96
ATOM     96   C  SGN B   5      20.594  26.481  14.7650  0.00  0.00     0.000 C
ATOM     97   O  SGN B   5      19.733  25.470  14.2360  0.00  0.00     0.000 O
ATOM     98   S  SGN B   5      18.608  25.968  13.2070  0.00  0.00     0.000 S
ATOM     99   O  SGN B   5      18.060  24.728  12.7120  0.00  0.00     0.000 OA
ATOM    100   O  SGN B   5      17.693  26.773  13.9330  0.00  0.00     0.000 OA
ATOM    101   O  SGN B   5      19.331  26.701  12.2190  0.00  0.00     0.000 OA
ENDBRANCH 86 96
BRANCH 82 102
ATOM    102  O4  IDS B   6      19.979  27.853  18.6150  0.00  0.00     0.000 O
BRANCH 102 106
ATOM    103  C1  IDS B   6      20.254  31.110  20.2180  0.00  0.00     0.000 C
ATOM    104  C2  IDS B   6      19.257  30.061  20.7360  0.00  0.00     0.000 C
ATOM    105  C3  IDS B   6      18.414  29.393  19.6670  0.00  0.00     0.000 C
ATOM    106  C4  IDS B   6      19.207  29.064  18.4150  0.00  0.00     0.000 C
ATOM    107  C5  IDS B   6      20.121  30.240  18.0570  0.00  0.00     0.000 C
ATOM    108  O5  IDS B   6      20.994  30.582  19.1340  0.00  0.00     0.000 O
ATOM    109   O  IDS B   6      17.326  30.251  19.3640  0.00  0.00     0.000 O
ATOM    111  HD  IDS B   6      17.604  31.035  19.6060  0.00  0.00     0.000 HD
BRANCH 104 111
ATOM    111   O  IDS B   6      20.003  28.969  21.3810  0.00  0.00     0.000 O
ATOM    112   S  IDS B   6      20.019  28.910  22.9800  0.00  0.00     0.000 S
ATOM    113   O  IDS B   6      20.590  30.184  23.3890  0.00  0.00     0.000 OA
ATOM    114   O  IDS B   6      18.648  28.675  23.4500  0.00  0.00     0.000 OA
ATOM    115   O  IDS B   6      20.907  27.782  23.1640  0.00  0.00     0.000 OA
ENDBRANCH 104 111
BRANCH 107 116
ATOM    116   C  IDS B   6      20.938  29.886  16.8220  0.00  0.00     0.000 C
ATOM    117   O  IDS B   6      22.107  29.651  16.9940  0.00  0.00     0.000 OA
ATOM    118   O  IDS B   6      20.429  29.852  15.7120  0.00  0.00     0.000 OA
ENDBRANCH 107 116
BRANCH 103 119
ATOM    119  O4  SGN B   7      19.498  32.230  20.0790  0.00  0.00     0.000 O
BRANCH 119 123
ATOM    120  C1  SGN B   7      20.038  36.345  20.5930  0.00  0.00     0.000 C
ATOM    121  C2  SGN B   7      20.697  35.687  19.3670  0.00  0.00     0.000 C
ATOM    122  C3  SGN B   7      20.086  34.304  19.1040  0.00  0.00     0.000 C
ATOM    123  C4  SGN B   7      20.158  33.463  20.3670  0.00  0.00     0.000 C
ATOM    124  C5  SGN B   7      19.481  34.207  21.5300  0.00  0.00     0.000 C
ATOM    125  O5  SGN B   7      20.089  35.501  21.7420  0.00  0.00     0.000 O
ATOM    126   O  SGN B   7      20.788  33.682  18.0220  0.00  0.00     0.000 O
ATOM    128  HD  SGN B   7      20.640  34.396  18.4890  0.00  0.00     0.000 HD
BRANCH 121 130
ATOM    128   N  SGN B   7      21.682  36.737  19.0970  0.00  0.00     0.000 N
ATOM    130  HD  SGN B   7      22.120  36.203  18.5740  0.00  0.00     0.000 HD
ATOM    130   S  SGN B   7      21.748  37.511  17.6860  0.00  0.00     0.000 S
ATOM    131   O  SGN B   7      20.415  37.940  17.4340  0.00  0.00     0.000 OA
ATOM    132   O  SGN B   7      22.806  38.454  17.7430  0.00  0.00     0.000 OA
ATOM    133   O  SGN B   7      22.287  36.367  16.7630  0.00  0.00     0.000 OA
ENDBRANCH 121 130
BRANCH 124 134
ATOM    134   C  SGN B   7      19.602  33.506  22.8520  0.00  0.00     0.000 C
ATOM    135   O  SGN B   7      19.864  34.488  23.8690  0.00  0.00     0.000 O
ATOM    136   S  SGN B   7      19.872  33.973  25.3530  0.00  0.00     0.000 S
ATOM    137   O  SGN B   7      20.254  35.099  26.1710  0.00  0.00     0.000 OA
ATOM    138   O  SGN B   7      20.844  32.903  25.3760  0.00  0.00     0.000 OA
ATOM    139   O  SGN B   7      18.496  33.542  25.5430  0.00  0.00     0.000 OA
ENDBRANCH 124 134
BRANCH 120 140
ATOM    140  O4  IDS B   8      18.781  36.786  20.7140  0.00  0.00     0.000 O
BRANCH 140 144
ATOM    141  C1  IDS B   8      15.194  36.821  20.4130  0.00  0.00     0.000 C
ATOM    142  C2  IDS B   8      16.087  36.254  19.2730  0.00  0.00     0.000 C
ATOM    143  C3  IDS B   8      17.246  37.193  18.8900  0.00  0.00     0.000 C
ATOM    144  C4  IDS B   8      17.937  37.780  20.1200  0.00  0.00     0.000 C
ATOM    145  C5  IDS B   8      16.890  38.260  21.1360  0.00  0.00     0.000 C
ATOM    146  O5  IDS B   8      16.003  37.211  21.5150  0.00  0.00     0.000 O
BRANCH 142 147
ATOM    147   O  IDS B   8      16.689  34.966  19.7080  0.00  0.00     0.000 O
ATOM    148   S  IDS B   8      16.044  33.547  19.2580  0.00  0.00     0.000 S
ATOM    149   O  IDS B   8      14.706  33.806  18.7790  0.00  0.00     0.000 OA
ATOM    150   O  IDS B   8      16.922  33.035  18.2230  0.00  0.00     0.000 OA
ATOM    151   O  IDS B   8      16.042  32.732  20.4580  0.00  0.00     0.000 OA
ENDBRANCH 142 147
BRANCH 145 152
ATOM    152   C  IDS B   8      17.515  38.764  22.4220  0.00  0.00     0.000 C
ATOM    153   O  IDS B   8      17.237  38.217  23.4830  0.00  0.00     0.000 OA
ATOM    154   O  IDS B   8      18.302  39.693  22.3860  0.00  0.00     0.000 OA
ENDBRANCH 145 152
ENDBRANCH 140 144
ENDBRANCH 120 140
ENDBRANCH 119 123
ENDBRANCH 103 119
ENDBRANCH 102 106
ENDBRANCH 82 102
ENDBRANCH 81 85
ENDBRANCH 65 81
ENDBRANCH 64 68
ENDBRANCH 41 64
ENDBRANCH 40 44
ENDBRANCH 24 40
ENDBRANCH 23 27
ENDBRANCH 1 23
TORSDOF 31
ENDMDL
MODEL 5
REMARK VINA RESULT:      -6.4      7.721     11.394
ROOT
ATOM      1  C1  SGN B   1      28.281  10.827  14.4110  0.00  0.00     0.000 C
ATOM      2  C2  SGN B   1      29.608  10.428  15.0770  0.00  0.00     0.000 C
ATOM      3  C3  SGN B   1      30.265   9.265  14.3250  0.00  0.00     0.000 C
ATOM      4  C4  SGN B   1      29.299   8.089  14.2270  0.00  0.00     0.000 C
ATOM      5  C5  SGN B   1      27.959   8.587  13.6900  0.00  0.00     0.000 C
ATOM      6  O5  SGN B   1      27.476   9.661  14.5210  0.00  0.00     0.000 O
ATOM      7   O  SGN B   1      31.469   8.869  14.9700  0.00  0.00     0.000 O
ATOM      9  HD  SGN B   1      30.881   8.724  15.5900  0.00  0.00     0.000 HD
ATOM      9   O  SGN B   1      29.838   7.108  13.3600  0.00  0.00     0.000 O
ATOM     11  HD  SGN B   1      29.250   6.963  13.9790  0.00  0.00     0.000 HD
ENDROOT
BRANCH 2 13
ATOM     11   N  SGN B   1      29.428  11.487  16.0880  0.00  0.00     0.000 N
ATOM     13  HD  SGN B   1      29.650  11.687  15.2760  0.00  0.00     0.000 HD
ATOM     13   S  SGN B   1      30.217  12.887  16.0160  0.00  0.00     0.000 S
ATOM     14   O  SGN B   1      31.018  12.934  14.8550  0.00  0.00     0.000 OA
ATOM     15   O  SGN B   1      29.292  13.939  16.2710  0.00  0.00     0.000 OA
ATOM     16   O  SGN B   1      31.088  12.719  17.2990  0.00  0.00     0.000 OA
ENDBRANCH 2 13
BRANCH 5 17
ATOM     17   C  SGN B   1      26.882   7.531  13.6500  0.00  0.00     0.000 C
ATOM     18   O  SGN B   1      25.866   7.868  12.6850  0.00  0.00     0.000 O
ATOM     19   S  SGN B   1      24.352   7.684  13.1660  0.00  0.00     0.000 S
ATOM     20   O  SGN B   1      23.555   7.853  11.9700  0.00  0.00     0.000 OA
ATOM     21   O  SGN B   1      24.313   6.343  13.7020  0.00  0.00     0.000 OA
ATOM     22   O  SGN B   1      24.142   8.719  14.1540  0.00  0.00     0.000 OA
ENDBRANCH 5 17
BRANCH 1 23
ATOM     23  O4  IDS B   2      27.795  11.662  13.4480  0.00  0.00     0.000 O
BRANCH 23 27
ATOM     24  C1  IDS B   2      25.771  15.139  14.4690  0.00  0.00     0.000 C
ATOM     25  C2  IDS B   2      24.987  13.825  14.6770  0.00  0.00     0.000 C
ATOM     26  C3  IDS B   2      25.908  12.614  14.5590  0.00  0.00     0.000 C
ATOM     27  C4  IDS B   2      26.693  12.573  13.2550  0.00  0.00     0.000 C
ATOM     28  C5  IDS B   2      27.109  14.000  12.8440  0.00  0.00     0.000 C
ATOM     29  O5  IDS B   2      27.086  14.876  13.9610  0.00  0.00     0.000 O
ATOM     30   O  IDS B   2      25.131  11.425  14.6310  0.00  0.00     0.000 O
ATOM     32  HD  IDS B   2      24.733  11.232  13.8870  0.00  0.00     0.000 HD
BRANCH 25 32
ATOM     32   O  IDS B   2      24.335  13.765  16.0090  0.00  0.00     0.000 O
ATOM     33   S  IDS B   2      22.694  13.714  16.1750  0.00  0.00     0.000 S
ATOM     34   O  IDS B   2      22.425  13.889  17.5940  0.00  0.00     0.000 OA
ATOM     35   O  IDS B   2      22.094  14.780  15.3850  0.00  0.00     0.000 OA
ATOM     36   O  IDS B   2      22.297  12.401  15.7220  0.00  0.00     0.000 OA
ENDBRANCH 25 32
BRANCH 28 37
ATOM     37   C  IDS B   2      28.458  14.176  12.1170  0.00  0.00     0.000 C
ATOM     38   O  IDS B   2      28.410  13.841  10.9560  0.00  0.00     0.000 OA
ATOM     39   O  IDS B   2      29.511  14.669  12.5880  0.00  0.00     0.000 OA
ENDBRANCH 28 37
BRANCH 24 40
ATOM     40  O4  SUS B   3      25.118  16.320  14.4690  0.00  0.00     0.000 O
BRANCH 40 44
ATOM     41  C1  SUS B   3      26.405  20.135  15.6250  0.00  0.00     0.000 C
ATOM     42  C2  SUS B   3      27.046  19.528  14.3610  0.00  0.00     0.000 C
ATOM     43  C3  SUS B   3      26.151  18.410  13.8310  0.00  0.00     0.000 C
ATOM     44  C4  SUS B   3      25.909  17.403  14.9450  0.00  0.00     0.000 C
ATOM     45  C5  SUS B   3      25.196  18.099  16.0870  0.00  0.00     0.000 C
ATOM     46  O5  SUS B   3      26.060  19.137  16.5920  0.00  0.00     0.000 O
BRANCH 42 49
ATOM     47   N  SUS B   3      27.957  20.672  14.5350  0.00  0.00     0.000 N
ATOM     49  HD  SUS B   3      27.593  21.428  14.7460  0.00  0.00     0.000 HD
ATOM     49   S  SUS B   3      28.897  20.912  13.2600  0.00  0.00     0.000 S
ATOM     50   O  SUS B   3      28.106  21.107  12.1100  0.00  0.00     0.000 OA
ATOM     51   O  SUS B   3      29.508  22.254  13.7370  0.00  0.00     0.000 OA
ATOM     52   O  SUS B   3      29.883  19.906  13.2100  0.00  0.00     0.000 OA
ENDBRANCH 42 49
BRANCH 43 53
ATOM     53   O  SUS B   3      26.855  17.757  12.7100  0.00  0.00     0.000 O
ATOM     54   S  SUS B   3      26.077  17.710  11.2620  0.00  0.00     0.000 S
ATOM     55   O  SUS B   3      26.063  19.065  10.7300  0.00  0.00     0.000 OA
ATOM     56   O  SUS B   3      26.861  16.778  10.4720  0.00  0.00     0.000 OA
ATOM     57   O  SUS B   3      24.718  17.233  11.5370  0.00  0.00     0.000 OA
ENDBRANCH 43 53
BRANCH 45 58
ATOM     58   C  SUS B   3      24.830  17.137  17.1960  0.00  0.00     0.000 C
ATOM     59   S  SUS B   3      24.923  16.841  19.7430  0.00  0.00     0.000 S
ATOM     60   O  SUS B   3      25.047  17.771  18.4670  0.00  0.00     0.000 O
ATOM     61   O  SUS B   3      26.166  16.095  19.7910  0.00  0.00     0.000 OA
ATOM     62   O  SUS B   3      24.826  17.827  20.7850  0.00  0.00     0.000 OA
ATOM     63   O  SUS B   3      23.754  16.061  19.5330  0.00  0.00     0.000 OA
ENDBRANCH 45 58
BRANCH 41 64
ATOM     64  O4  IDS B   4      25.400  21.032  15.3600  0.00  0.00     0.000 O
BRANCH 64 68
ATOM     65  C1  IDS B   4      23.575  24.149  15.8400  0.00  0.00     0.000 C
ATOM     66  C2  IDS B   4      25.098  24.109  16.0220  0.00  0.00     0.000 C
ATOM     67  C3  IDS B   4      25.600  22.942  16.8560  0.00  0.00     0.000 C
ATOM     68  C4  IDS B   4      24.871  21.646  16.5560  0.00  0.00     0.000 C
ATOM     69  C5  IDS B   4      23.370  21.951  16.4730  0.00  0.00     0.000 C
ATOM     70  O5  IDS B   4      23.134  22.874  15.4080  0.00  0.00     0.000 O
ATOM     71   O  IDS B   4      25.420  23.289  18.2130  0.00  0.00     0.000 O
ATOM     73  HD  IDS B   4      25.488  23.442  17.3640  0.00  0.00     0.000 HD
BRANCH 66 73
ATOM     73   O  IDS B   4      25.728  23.948  14.7040  0.00  0.00     0.000 O
ATOM     74   S  IDS B   4      26.823  25.048  14.2480  0.00  0.00     0.000 S
ATOM     75   O  IDS B   4      26.165  26.335  14.3190  0.00  0.00     0.000 OA
ATOM     76   O  IDS B   4      27.132  24.620  12.9070  0.00  0.00     0.000 OA
ATOM     77   O  IDS B   4      27.916  24.914  15.1810  0.00  0.00     0.000 OA
ENDBRANCH 66 73
BRANCH 69 78
ATOM     78   C  IDS B   4      22.480  20.718  16.3960  0.00  0.00     0.000 C
ATOM     79   O  IDS B   4      22.468  19.937  17.3460  0.00  0.00     0.000 OA
ATOM     80   O  IDS B   4      21.715  20.595  15.4210  0.00  0.00     0.000 OA
ENDBRANCH 69 78
BRANCH 65 81
ATOM     81  O4  SGN B   5      22.997  24.648  16.9680  0.00  0.00     0.000 O
BRANCH 81 85
ATOM     82  C1  SGN B   5      19.218  25.562  18.5540  0.00  0.00     0.000 C
ATOM     83  C2  SGN B   5      19.914  24.303  19.0920  0.00  0.00     0.000 C
ATOM     84  C3  SGN B   5      21.415  24.373  18.7780  0.00  0.00     0.000 C
ATOM     85  C4  SGN B   5      21.606  24.569  17.2840  0.00  0.00     0.000 C
ATOM     86  C5  SGN B   5      20.893  25.856  16.8750  0.00  0.00     0.000 C
ATOM     87  O5  SGN B   5      19.491  25.723  17.1750  0.00  0.00     0.000 O
ATOM     88   O  SGN B   5      22.053  23.194  19.2190  0.00  0.00     0.000 O
ATOM     90  HD  SGN B   5      22.067  23.957  19.6290  0.00  0.00     0.000 HD
BRANCH 83 92
ATOM     90   N  SGN B   5      19.052  24.475  20.2780  0.00  0.00     0.000 N
ATOM     92  HD  SGN B   5      18.498  25.131  20.1660  0.00  0.00     0.000 HD
ATOM     92   S  SGN B   5      18.427  23.166  20.9480  0.00  0.00     0.000 S
ATOM     93   O  SGN B   5      17.654  23.665  22.0460  0.00  0.00     0.000 OA
ATOM     94   O  SGN B   5      17.790  22.458  19.8910  0.00  0.00     0.000 OA
ATOM     95   O  SGN B   5      19.623  22.348  21.3830  0.00  0.00     0.000 OA
ENDBRANCH 83 92
BRANCH 86 96
ATOM     96   C  SGN B   5      21.010  26.187  15.4010  0.00  0.00     0.000 C
ATOM     97   O  SGN B   5      20.513  25.110  14.6030  0.00  0.00     0.000 O
ATOM     98   S  SGN B   5      19.442  25.502  13.4760  0.00  0.00     0.000 S
ATOM     99   O  SGN B   5      19.299  24.274  12.7320  0.00  0.00     0.000 OA
ATOM    100   O  SGN B   5      18.264  25.934  14.1390  0.00  0.00     0.000 OA
ATOM    101   O  SGN B   5      20.074  26.543  12.7320  0.00  0.00     0.000 OA
ENDBRANCH 86 96
BRANCH 82 102
ATOM    102  O4  IDS B   6      19.564  26.687  19.2410  0.00  0.00     0.000 O
BRANCH 102 106
ATOM    103  C1  IDS B   6      18.660  29.608  21.2180  0.00  0.00     0.000 C
ATOM    104  C2  IDS B   6      17.840  28.311  21.3110  0.00  0.00     0.000 C
ATOM    105  C3  IDS B   6      17.470  27.688  19.9790  0.00  0.00     0.000 C
ATOM    106  C4  IDS B   6      18.605  27.741  18.9710  0.00  0.00     0.000 C
ATOM    107  C5  IDS B   6      19.277  29.116  19.0220  0.00  0.00     0.000 C
ATOM    108  O5  IDS B   6      19.749  29.430  20.3330  0.00  0.00     0.000 O
ATOM    109   O  IDS B   6      16.323  28.357  19.4820  0.00  0.00     0.000 O
ATOM    111  HD  IDS B   6      16.340  29.125  19.8810  0.00  0.00     0.000 HD
BRANCH 104 111
ATOM    111   O  IDS B   6      18.636  27.291  22.0100  0.00  0.00     0.000 O
ATOM    112   S  IDS B   6      18.274  26.969  23.5360  0.00  0.00     0.000 S
ATOM    113   O  IDS B   6      18.422  28.242  24.2240  0.00  0.00     0.000 OA
ATOM    114   O  IDS B   6      16.922  26.400  23.5830  0.00  0.00     0.000 OA
ATOM    115   O  IDS B   6      19.324  26.018  23.8300  0.00  0.00     0.000 OA
ENDBRANCH 104 111
BRANCH 107 116
ATOM    116   C  IDS B   6      20.436  29.147  18.0340  0.00  0.00     0.000 C
ATOM    117   O  IDS B   6      20.153  29.293  16.8720  0.00  0.00     0.000 OA
ATOM    118   O  IDS B   6      21.592  29.021  18.4060  0.00  0.00     0.000 OA
ENDBRANCH 107 116
BRANCH 103 119
ATOM    119  O4  SGN B   7      17.722  30.565  21.0010  0.00  0.00     0.000 O
BRANCH 119 123
ATOM    120  C1  SGN B   7      17.137  34.552  22.1200  0.00  0.00     0.000 C
ATOM    121  C2  SGN B   7      18.174  34.266  21.0180  0.00  0.00     0.000 C
ATOM    122  C3  SGN B   7      17.982  32.853  20.4520  0.00  0.00     0.000 C
ATOM    123  C4  SGN B   7      17.991  31.840  21.5850  0.00  0.00     0.000 C
ATOM    124  C5  SGN B   7      16.930  32.217  22.6320  0.00  0.00     0.000 C
ATOM    125  O5  SGN B   7      17.151  33.553  23.1370  0.00  0.00     0.000 O
ATOM    126   O  SGN B   7      19.021  32.585  19.5040  0.00  0.00     0.000 O
ATOM    128  HD  SGN B   7      18.613  33.162  20.0040  0.00  0.00     0.000 HD
BRANCH 121 130
ATOM    128   N  SGN B   7      18.966  35.496  21.1010  0.00  0.00     0.000 N
ATOM    130  HD  SGN B   7      19.567  35.152  20.5810  0.00  0.00     0.000 HD
ATOM    130   S  SGN B   7      19.079  36.529  19.8710  0.00  0.00     0.000 S
ATOM    131   O  SGN B   7      17.737  36.775  19.4660  0.00  0.00     0.000 OA
ATOM    132   O  SGN B   7      19.917  37.603  20.2670  0.00  0.00     0.000 OA
ATOM    133   O  SGN B   7      19.954  35.690  18.8790  0.00  0.00     0.000 OA
ENDBRANCH 121 130
BRANCH 124 134
ATOM    134   C  SGN B   7      16.940  31.340  23.8490  0.00  0.00     0.000 C
ATOM    135   O  SGN B   7      16.505  32.118  24.9770  0.00  0.00     0.000 O
ATOM    136   S  SGN B   7      16.299  31.340  26.3260  0.00  0.00     0.000 S
ATOM    137   O  SGN B   7      15.970  32.333  27.3220  0.00  0.00     0.000 OA
ATOM    138   O  SGN B   7      17.561  30.683  26.5810  0.00  0.00     0.000 OA
ATOM    139   O  SGN B   7      15.204  30.439  26.0040  0.00  0.00     0.000 OA
ENDBRANCH 124 134
BRANCH 120 140
ATOM    140  O4  IDS B   8      15.814  34.697  21.9870  0.00  0.00     0.000 O
BRANCH 140 144
ATOM    141  C1  IDS B   8      12.237  34.352  21.7730  0.00  0.00     0.000 C
ATOM    142  C2  IDS B   8      13.177  33.505  20.8690  0.00  0.00     0.000 C
ATOM    143  C3  IDS B   8      14.259  34.347  20.1680  0.00  0.00     0.000 C
ATOM    144  C4  IDS B   8      14.895  35.365  21.1130  0.00  0.00     0.000 C
ATOM    145  C5  IDS B   8      13.809  36.077  21.9330  0.00  0.00     0.000 C
ATOM    146  O5  IDS B   8      13.007  35.151  22.6620  0.00  0.00     0.000 O
BRANCH 142 147
ATOM    147   O  IDS B   8      13.878  32.489  21.6970  0.00  0.00     0.000 O
ATOM    148   S  IDS B   8      13.441  30.928  21.6540  0.00  0.00     0.000 S
ATOM    149   O  IDS B   8      12.129  30.857  21.0490  0.00  0.00     0.000 OA
ATOM    150   O  IDS B   8      14.460  30.262  20.8640  0.00  0.00     0.000 OA
ATOM    151   O  IDS B   8      13.422  30.498  23.0390  0.00  0.00     0.000 OA
ENDBRANCH 142 147
BRANCH 145 152
ATOM    152   C  IDS B   8      14.385  37.029  22.9610  0.00  0.00     0.000 C
ATOM    153   O  IDS B   8      15.082  37.968  22.5920  0.00  0.00     0.000 OA
ATOM    154   O  IDS B   8      14.134  36.865  24.1420  0.00  0.00     0.000 OA
ENDBRANCH 145 152
ENDBRANCH 140 144
ENDBRANCH 120 140
ENDBRANCH 119 123
ENDBRANCH 103 119
ENDBRANCH 102 106
ENDBRANCH 82 102
ENDBRANCH 81 85
ENDBRANCH 65 81
ENDBRANCH 64 68
ENDBRANCH 41 64
ENDBRANCH 40 44
ENDBRANCH 24 40
ENDBRANCH 23 27
ENDBRANCH 1 23
TORSDOF 31
ENDMDL
MODEL 6
REMARK VINA RESULT:      -6.4      8.043     11.624
ROOT
ATOM      1  C1  SGN B   1      28.261  10.839  14.4410  0.00  0.00     0.000 C
ATOM      2  C2  SGN B   1      29.592  10.442  15.1000  0.00  0.00     0.000 C
ATOM      3  C3  SGN B   1      30.254   9.291  14.3340  0.00  0.00     0.000 C
ATOM      4  C4  SGN B   1      29.296   8.110  14.2260  0.00  0.00     0.000 C
ATOM      5  C5  SGN B   1      27.951   8.605  13.6980  0.00  0.00     0.000 C
ATOM      6  O5  SGN B   1      27.464   9.667  14.5420  0.00  0.00     0.000 O
ATOM      7   O  SGN B   1      31.463   8.896  14.9710  0.00  0.00     0.000 O
ATOM      9  HD  SGN B   1      30.878   8.741  15.5910  0.00  0.00     0.000 HD
ATOM      9   O  SGN B   1      29.839   7.142  13.3470  0.00  0.00     0.000 O
ATOM     11  HD  SGN B   1      29.254   6.986  13.9670  0.00  0.00     0.000 HD
ENDROOT
BRANCH 2 13
ATOM     11   N  SGN B   1      29.426  11.480  16.1340  0.00  0.00     0.000 N
ATOM     13  HD  SGN B   1      29.619  11.698  15.3190  0.00  0.00     0.000 HD
ATOM     13   S  SGN B   1      30.189  12.895  16.0630  0.00  0.00     0.000 S
ATOM     14   O  SGN B   1      30.953  12.975  14.8800  0.00  0.00     0.000 OA
ATOM     15   O  SGN B   1      29.254  13.926  16.3640  0.00  0.00     0.000 OA
ATOM     16   O  SGN B   1      31.100  12.720  17.3160  0.00  0.00     0.000 OA
ENDBRANCH 2 13
BRANCH 5 17
ATOM     17   C  SGN B   1      26.881   7.542  13.6510  0.00  0.00     0.000 C
ATOM     18   O  SGN B   1      25.864   7.879  12.6860  0.00  0.00     0.000 O
ATOM     19   S  SGN B   1      24.351   7.682  13.1650  0.00  0.00     0.000 S
ATOM     20   O  SGN B   1      23.553   7.854  11.9690  0.00  0.00     0.000 OA
ATOM     21   O  SGN B   1      24.320   6.338  13.6930  0.00  0.00     0.000 OA
ATOM     22   O  SGN B   1      24.133   8.710  14.1600  0.00  0.00     0.000 OA
ENDBRANCH 5 17
BRANCH 1 23
ATOM     23  O4  IDS B   2      27.767  11.681  13.4890  0.00  0.00     0.000 O
BRANCH 23 27
ATOM     24  C1  IDS B   2      25.709  15.090  14.6610  0.00  0.00     0.000 C
ATOM     25  C2  IDS B   2      24.918  13.767  14.7590  0.00  0.00     0.000 C
ATOM     26  C3  IDS B   2      25.844  12.564  14.5950  0.00  0.00     0.000 C
ATOM     27  C4  IDS B   2      26.671  12.604  13.3170  0.00  0.00     0.000 C
ATOM     28  C5  IDS B   2      27.100  14.053  13.0120  0.00  0.00     0.000 C
ATOM     29  O5  IDS B   2      27.040  14.857  14.1810  0.00  0.00     0.000 O
ATOM     30   O  IDS B   2      25.065  11.374  14.5660  0.00  0.00     0.000 O
ATOM     32  HD  IDS B   2      24.691  11.229  13.7980  0.00  0.00     0.000 HD
BRANCH 25 32
ATOM     32   O  IDS B   2      24.223  13.623  16.0610  0.00  0.00     0.000 O
ATOM     33   S  IDS B   2      22.577  13.649  16.1780  0.00  0.00     0.000 S
ATOM     34   O  IDS B   2      22.273  13.710  17.5990  0.00  0.00     0.000 OA
ATOM     35   O  IDS B   2      22.059  14.812  15.4730  0.00  0.00     0.000 OA
ATOM     36   O  IDS B   2      22.126  12.406  15.5970  0.00  0.00     0.000 OA
ENDBRANCH 25 32
BRANCH 28 37
ATOM     37   C  IDS B   2      28.473  14.273  12.3430  0.00  0.00     0.000 C
ATOM     38   O  IDS B   2      29.246  14.875  13.0490  0.00  0.00     0.000 OA
ATOM     39   O  IDS B   2      28.843  13.845  11.2220  0.00  0.00     0.000 OA
ENDBRANCH 28 37
BRANCH 24 40
ATOM     40  O4  SUS B   3      25.056  16.270  14.7130  0.00  0.00     0.000 O
BRANCH 40 44
ATOM     41  C1  SUS B   3      26.189  19.926  16.4160  0.00  0.00     0.000 C
ATOM     42  C2  SUS B   3      27.007  19.427  15.2080  0.00  0.00     0.000 C
ATOM     43  C3  SUS B   3      26.192  18.386  14.4440  0.00  0.00     0.000 C
ATOM     44  C4  SUS B   3      25.776  17.284  15.4060  0.00  0.00     0.000 C
ATOM     45  C5  SUS B   3      24.905  17.884  16.4910  0.00  0.00     0.000 C
ATOM     46  O5  SUS B   3      25.693  18.848  17.2180  0.00  0.00     0.000 O
BRANCH 42 49
ATOM     47   N  SUS B   3      28.259  20.041  15.6810  0.00  0.00     0.000 N
ATOM     49  HD  SUS B   3      28.201  20.546  16.3830  0.00  0.00     0.000 HD
ATOM     49   S  SUS B   3      29.015  20.866  14.5350  0.00  0.00     0.000 S
ATOM     50   O  SUS B   3      28.163  21.864  14.0210  0.00  0.00     0.000 OA
ATOM     51   O  SUS B   3      30.100  21.491  15.4490  0.00  0.00     0.000 OA
ATOM     52   O  SUS B   3      29.595  19.967  13.6180  0.00  0.00     0.000 OA
ENDBRANCH 42 49
BRANCH 43 53
ATOM     53   O  SUS B   3      27.050  17.827  13.3810  0.00  0.00     0.000 O
ATOM     54   S  SUS B   3      26.619  18.142  11.8260  0.00  0.00     0.000 S
ATOM     55   O  SUS B   3      26.884  19.552  11.5780  0.00  0.00     0.000 OA
ATOM     56   O  SUS B   3      27.448  17.243  11.0430  0.00  0.00     0.000 OA
ATOM     57   O  SUS B   3      25.188  17.844  11.7240  0.00  0.00     0.000 OA
ENDBRANCH 43 53
BRANCH 45 58
ATOM     58   C  SUS B   3      24.368  16.829  17.4340  0.00  0.00     0.000 C
ATOM     59   S  SUS B   3      24.985  15.456  19.5120  0.00  0.00     0.000 S
ATOM     60   O  SUS B   3      25.275  16.670  18.5370  0.00  0.00     0.000 O
ATOM     61   O  SUS B   3      25.474  14.283  18.8130  0.00  0.00     0.000 OA
ATOM     62   O  SUS B   3      25.806  15.815  20.6380  0.00  0.00     0.000 OA
ATOM     63   O  SUS B   3      23.585  15.485  19.7480  0.00  0.00     0.000 OA
ENDBRANCH 45 58
BRANCH 41 64
ATOM     64  O4  IDS B   4      25.243  20.867  16.0930  0.00  0.00     0.000 O
BRANCH 64 68
ATOM     65  C1  IDS B   4      23.162  23.853  16.2640  0.00  0.00     0.000 C
ATOM     66  C2  IDS B   4      24.677  23.978  16.0600  0.00  0.00     0.000 C
ATOM     67  C3  IDS B   4      25.510  23.114  16.9920  0.00  0.00     0.000 C
ATOM     68  C4  IDS B   4      24.917  21.733  17.2020  0.00  0.00     0.000 C
ATOM     69  C5  IDS B   4      23.408  21.891  17.4320  0.00  0.00     0.000 C
ATOM     70  O5  IDS B   4      22.815  22.480  16.2730  0.00  0.00     0.000 O
ATOM     71   O  IDS B   4      25.593  23.791  18.2290  0.00  0.00     0.000 O
ATOM     73  HD  IDS B   4      25.446  23.720  17.3780  0.00  0.00     0.000 HD
BRANCH 66 73
ATOM     73   O  IDS B   4      25.010  23.524  14.7030  0.00  0.00     0.000 O
ATOM     74   S  IDS B   4      25.508  24.631  13.6340  0.00  0.00     0.000 S
ATOM     75   O  IDS B   4      24.468  25.635  13.5680  0.00  0.00     0.000 OA
ATOM     76   O  IDS B   4      25.641  23.845  12.4330  0.00  0.00     0.000 OA
ATOM     77   O  IDS B   4      26.757  25.135  14.1550  0.00  0.00     0.000 OA
ENDBRANCH 66 73
BRANCH 69 78
ATOM     78   C  IDS B   4      22.703  20.617  17.8770  0.00  0.00     0.000 C
ATOM     79   O  IDS B   4      23.058  20.080  18.9250  0.00  0.00     0.000 OA
ATOM     80   O  IDS B   4      21.721  20.220  17.2220  0.00  0.00     0.000 OA
ENDBRANCH 69 78
BRANCH 65 81
ATOM     81  O4  SGN B   5      22.789  24.587  17.3500  0.00  0.00     0.000 O
BRANCH 81 85
ATOM     82  C1  SGN B   5      19.698  27.016  18.8270  0.00  0.00     0.000 C
ATOM     83  C2  SGN B   5      19.626  25.517  19.1580  0.00  0.00     0.000 C
ATOM     84  C3  SGN B   5      21.010  24.882  18.9640  0.00  0.00     0.000 C
ATOM     85  C4  SGN B   5      21.495  25.160  17.5520  0.00  0.00     0.000 C
ATOM     86  C5  SGN B   5      21.546  26.672  17.3510  0.00  0.00     0.000 C
ATOM     87  O5  SGN B   5      20.220  27.207  17.5260  0.00  0.00     0.000 O
ATOM     88   O  SGN B   5      20.940  23.495  19.2110  0.00  0.00     0.000 O
ATOM     90  HD  SGN B   5      21.251  24.088  19.7600  0.00  0.00     0.000 HD
BRANCH 83 92
ATOM     90   N  SGN B   5      18.186  25.734  19.3950  0.00  0.00     0.000 N
ATOM     92  HD  SGN B   5      17.737  25.671  18.6570  0.00  0.00     0.000 HD
ATOM     92   S  SGN B   5      17.516  25.018  20.6570  0.00  0.00     0.000 S
ATOM     93   O  SGN B   5      16.141  25.416  20.6020  0.00  0.00     0.000 OA
ATOM     94   O  SGN B   5      17.865  23.643  20.5510  0.00  0.00     0.000 OA
ATOM     95   O  SGN B   5      18.252  25.581  21.8530  0.00  0.00     0.000 OA
ENDBRANCH 83 92
BRANCH 86 96
ATOM     96   C  SGN B   5      22.028  27.100  15.9800  0.00  0.00     0.000 C
ATOM     97   O  SGN B   5      21.204  26.534  14.9590  0.00  0.00     0.000 O
ATOM     98   S  SGN B   5      20.634  27.556  13.8630  0.00  0.00     0.000 S
ATOM     99   O  SGN B   5      20.036  26.676  12.8880  0.00  0.00     0.000 OA
ATOM    100   O  SGN B   5      19.721  28.420  14.5200  0.00  0.00     0.000 OA
ATOM    101   O  SGN B   5      21.791  28.236  13.3760  0.00  0.00     0.000 OA
ENDBRANCH 86 96
BRANCH 82 102
ATOM    102  O4  IDS B   6      20.425  27.720  19.7390  0.00  0.00     0.000 O
BRANCH 102 106
ATOM    103  C1  IDS B   6      21.087  30.219  22.3030  0.00  0.00     0.000 C
ATOM    104  C2  IDS B   6      19.977  29.174  22.4930  0.00  0.00     0.000 C
ATOM    105  C3  IDS B   6      19.056  28.991  21.3010  0.00  0.00     0.000 C
ATOM    106  C4  IDS B   6      19.800  29.007  19.9780  0.00  0.00     0.000 C
ATOM    107  C5  IDS B   6      20.844  30.127  19.9840  0.00  0.00     0.000 C
ATOM    108  O5  IDS B   6      21.756  29.999  21.0760  0.00  0.00     0.000 O
ATOM    109   O  IDS B   6      18.075  30.014  21.3400  0.00  0.00     0.000 O
ATOM    111  HD  IDS B   6      18.444  30.639  21.8130  0.00  0.00     0.000 HD
BRANCH 104 111
ATOM    111   O  IDS B   6      20.592  27.856  22.7140  0.00  0.00     0.000 O
ATOM    112   S  IDS B   6      20.592  27.266  24.2020  0.00  0.00     0.000 S
ATOM    113   O  IDS B   6      21.301  28.262  24.9910  0.00  0.00     0.000 OA
ATOM    114   O  IDS B   6      19.202  27.037  24.6120  0.00  0.00     0.000 OA
ATOM    115   O  IDS B   6      21.347  26.053  23.9720  0.00  0.00     0.000 OA
ENDBRANCH 104 111
BRANCH 107 116
ATOM    116   C  IDS B   6      21.609  30.111  18.6670  0.00  0.00     0.000 C
ATOM    117   O  IDS B   6      22.774  29.811  18.7210  0.00  0.00     0.000 OA
ATOM    118   O  IDS B   6      21.064  30.399  17.6130  0.00  0.00     0.000 OA
ENDBRANCH 107 116
BRANCH 103 119
ATOM    119  O4  SGN B   7      20.467  31.398  22.5680  0.00  0.00     0.000 O
BRANCH 119 123
ATOM    120  C1  SGN B   7      21.484  35.025  24.3840  0.00  0.00     0.000 C
ATOM    121  C2  SGN B   7      22.050  34.747  22.9790  0.00  0.00     0.000 C
ATOM    122  C3  SGN B   7      21.280  33.604  22.3050  0.00  0.00     0.000 C
ATOM    123  C4  SGN B   7      21.268  32.387  23.2150  0.00  0.00     0.000 C
ATOM    124  C5  SGN B   7      20.694  32.768  24.5890  0.00  0.00     0.000 C
ATOM    125  O5  SGN B   7      21.449  33.846  25.1870  0.00  0.00     0.000 O
ATOM    126   O  SGN B   7      21.895  33.308  21.0450  0.00  0.00     0.000 O
ATOM    128  HD  SGN B   7      21.836  33.837  21.7290  0.00  0.00     0.000 HD
BRANCH 121 130
ATOM    128   N  SGN B   7      22.116  36.199  22.7950  0.00  0.00     0.000 N
ATOM    130  HD  SGN B   7      22.786  36.245  23.3420  0.00  0.00     0.000 HD
ATOM    130   S  SGN B   7      23.287  36.906  21.9450  0.00  0.00     0.000 S
ATOM    131   O  SGN B   7      23.328  36.201  20.7100  0.00  0.00     0.000 OA
ATOM    132   O  SGN B   7      23.070  38.307  21.9650  0.00  0.00     0.000 OA
ATOM    133   O  SGN B   7      24.505  36.681  22.9050  0.00  0.00     0.000 OA
ENDBRANCH 121 130
BRANCH 124 134
ATOM    134   C  SGN B   7      20.747  31.659  25.5980  0.00  0.00     0.000 C
ATOM    135   O  SGN B   7      21.019  32.227  26.8900  0.00  0.00     0.000 O
ATOM    136   S  SGN B   7      20.963  31.244  28.1140  0.00  0.00     0.000 S
ATOM    137   O  SGN B   7      21.367  32.009  29.2690  0.00  0.00     0.000 OA
ATOM    138   O  SGN B   7      21.887  30.182  27.7880  0.00  0.00     0.000 OA
ATOM    139   O  SGN B   7      19.565  30.843  28.1290  0.00  0.00     0.000 OA
ENDBRANCH 124 134
BRANCH 120 140
ATOM    140  O4  IDS B   8      20.288  35.531  24.7040  0.00  0.00     0.000 O
BRANCH 140 144
ATOM    141  C1  IDS B   8      16.915  36.788  24.7810  0.00  0.00     0.000 C
ATOM    142  C2  IDS B   8      17.956  37.351  23.7710  0.00  0.00     0.000 C
ATOM    143  C3  IDS B   8      19.298  37.721  24.4300  0.00  0.00     0.000 C
ATOM    144  C4  IDS B   8      19.762  36.655  25.4210  0.00  0.00     0.000 C
ATOM    145  C5  IDS B   8      18.590  36.211  26.3100  0.00  0.00     0.000 C
ATOM    146  O5  IDS B   8      17.494  35.731  25.5360  0.00  0.00     0.000 O
BRANCH 142 147
ATOM    147   O  IDS B   8      18.243  36.327  22.7330  0.00  0.00     0.000 O
ATOM    148   S  IDS B   8      18.417  36.743  21.1740  0.00  0.00     0.000 S
ATOM    149   O  IDS B   8      17.872  38.071  21.0120  0.00  0.00     0.000 OA
ATOM    150   O  IDS B   8      19.844  36.686  20.9150  0.00  0.00     0.000 OA
ATOM    151   O  IDS B   8      17.663  35.753  20.4290  0.00  0.00     0.000 OA
ENDBRANCH 142 147
BRANCH 145 152
ATOM    152   C  IDS B   8      18.964  35.083  27.2490  0.00  0.00     0.000 C
ATOM    153   O  IDS B   8      19.918  35.218  28.0070  0.00  0.00     0.000 OA
ATOM    154   O  IDS B   8      18.301  34.061  27.2560  0.00  0.00     0.000 OA
ENDBRANCH 145 152
ENDBRANCH 140 144
ENDBRANCH 120 140
ENDBRANCH 119 123
ENDBRANCH 103 119
ENDBRANCH 102 106
ENDBRANCH 82 102
ENDBRANCH 81 85
ENDBRANCH 65 81
ENDBRANCH 64 68
ENDBRANCH 41 64
ENDBRANCH 40 44
ENDBRANCH 24 40
ENDBRANCH 23 27
ENDBRANCH 1 23
TORSDOF 31
ENDMDL
MODEL 7
REMARK VINA RESULT:      -6.4      4.152      6.803
ROOT
ATOM      1  C1  SGN B   1      28.858  11.983  13.2110  0.00  0.00     0.000 C
ATOM      2  C2  SGN B   1      29.556  11.132  14.2850  0.00  0.00     0.000 C
ATOM      3  C3  SGN B   1      29.567  11.861  15.6330  0.00  0.00     0.000 C
ATOM      4  C4  SGN B   1      30.213  13.235  15.4840  0.00  0.00     0.000 C
ATOM      5  C5  SGN B   1      29.565  13.966  14.3110  0.00  0.00     0.000 C
ATOM      6  O5  SGN B   1      29.660  13.153  13.1250  0.00  0.00     0.000 O
ATOM      7   O  SGN B   1      30.253  11.091  16.6130  0.00  0.00     0.000 O
ATOM      9  HD  SGN B   1      30.876  11.227  16.0280  0.00  0.00     0.000 HD
ATOM      9   O  SGN B   1      30.032  13.972  16.6790  0.00  0.00     0.000 O
ATOM     11  HD  SGN B   1      30.656  14.108  16.0940  0.00  0.00     0.000 HD
ENDROOT
BRANCH 2 13
ATOM     11   N  SGN B   1      29.960   9.829  13.7250  0.00  0.00     0.000 N
ATOM     13  HD  SGN B   1      29.211  10.196  13.4900  0.00  0.00     0.000 HD
ATOM     13   S  SGN B   1      28.886   8.733  13.2400  0.00  0.00     0.000 S
ATOM     14   O  SGN B   1      27.577   9.236  13.3890  0.00  0.00     0.000 OA
ATOM     15   O  SGN B   1      29.301   8.224  11.9760  0.00  0.00     0.000 OA
ATOM     16   O  SGN B   1      29.195   7.633  14.3020  0.00  0.00     0.000 OA
ENDBRANCH 2 13
BRANCH 5 17
ATOM     17   C  SGN B   1      30.197  15.299  13.9930  0.00  0.00     0.000 C
ATOM     18   O  SGN B   1      29.638  15.860  12.7890  0.00  0.00     0.000 O
ATOM     19   S  SGN B   1      30.687  16.469  11.7470  0.00  0.00     0.000 S
ATOM     20   O  SGN B   1      29.881  17.164  10.7660  0.00  0.00     0.000 OA
ATOM     21   O  SGN B   1      31.509  17.348  12.5460  0.00  0.00     0.000 OA
ATOM     22   O  SGN B   1      31.394  15.327  11.2120  0.00  0.00     0.000 OA
ENDBRANCH 5 17
BRANCH 1 23
ATOM     23  O4  IDS B   2      27.621  12.204  12.6820  0.00  0.00     0.000 O
BRANCH 23 27
ATOM     24  C1  IDS B   2      25.283  14.589  15.1480  0.00  0.00     0.000 C
ATOM     25  C2  IDS B   2      25.065  13.066  15.2900  0.00  0.00     0.000 C
ATOM     26  C3  IDS B   2      26.164  12.288  14.5730  0.00  0.00     0.000 C
ATOM     27  C4  IDS B   2      26.325  12.673  13.1080  0.00  0.00     0.000 C
ATOM     28  C5  IDS B   2      26.108  14.191  12.9360  0.00  0.00     0.000 C
ATOM     29  O5  IDS B   2      26.291  14.872  14.1680  0.00  0.00     0.000 O
ATOM     30   O  IDS B   2      25.861  10.898  14.6200  0.00  0.00     0.000 O
ATOM     32  HD  IDS B   2      25.268  10.658  14.0360  0.00  0.00     0.000 HD
BRANCH 25 32
ATOM     32   O  IDS B   2      25.060  12.631  16.7090  0.00  0.00     0.000 O
ATOM     33   S  IDS B   2      23.783  11.818  17.3660  0.00  0.00     0.000 S
ATOM     34   O  IDS B   2      24.033  11.762  18.7980  0.00  0.00     0.000 OA
ATOM     35   O  IDS B   2      22.550  12.533  17.0700  0.00  0.00     0.000 OA
ATOM     36   O  IDS B   2      23.812  10.501  16.7750  0.00  0.00     0.000 OA
ENDBRANCH 25 32
BRANCH 28 37
ATOM     37   C  IDS B   2      26.931  14.918  11.8530  0.00  0.00     0.000 C
ATOM     38   O  IDS B   2      26.991  16.111  12.0340  0.00  0.00     0.000 OA
ATOM     39   O  IDS B   2      27.555  14.392  10.8990  0.00  0.00     0.000 OA
ENDBRANCH 28 37
BRANCH 24 40
ATOM     40  O4  SUS B   3      24.377  15.449  15.6580  0.00  0.00     0.000 O
BRANCH 40 44
ATOM     41  C1  SUS B   3      24.829  19.399  16.9760  0.00  0.00     0.000 C
ATOM     42  C2  SUS B   3      24.903  19.150  15.4560  0.00  0.00     0.000 C
ATOM     43  C3  SUS B   3      24.256  17.805  15.1340  0.00  0.00     0.000 C
ATOM     44  C4  SUS B   3      24.924  16.725  15.9710  0.00  0.00     0.000 C
ATOM     45  C5  SUS B   3      24.703  17.035  17.4370  0.00  0.00     0.000 C
ATOM     46  O5  SUS B   3      25.338  18.295  17.7320  0.00  0.00     0.000 O
BRANCH 42 49
ATOM     47   N  SUS B   3      24.336  20.350  14.8160  0.00  0.00     0.000 N
ATOM     49  HD  SUS B   3      23.653  20.226  14.2990  0.00  0.00     0.000 HD
ATOM     49   S  SUS B   3      25.430  21.192  14.0030  0.00  0.00     0.000 S
ATOM     50   O  SUS B   3      26.035  20.376  13.0260  0.00  0.00     0.000 OA
ATOM     51   O  SUS B   3      24.439  22.187  13.3460  0.00  0.00     0.000 OA
ATOM     52   O  SUS B   3      26.276  21.859  14.9120  0.00  0.00     0.000 OA
ENDBRANCH 42 49
BRANCH 43 53
ATOM     53   O  SUS B   3      24.466  17.530  13.7000  0.00  0.00     0.000 O
ATOM     54   S  SUS B   3      23.136  17.523  12.7350  0.00  0.00     0.000 S
ATOM     55   O  SUS B   3      22.679  18.901  12.6120  0.00  0.00     0.000 OA
ATOM     56   O  SUS B   3      23.608  16.949  11.4880  0.00  0.00     0.000 OA
ATOM     57   O  SUS B   3      22.137  16.691  13.4120  0.00  0.00     0.000 OA
ENDBRANCH 43 53
BRANCH 45 58
ATOM     58   C  SUS B   3      25.255  15.949  18.3350  0.00  0.00     0.000 C
ATOM     59   S  SUS B   3      24.902  14.819  20.6120  0.00  0.00     0.000 S
ATOM     60   O  SUS B   3      24.374  15.764  19.4560  0.00  0.00     0.000 O
ATOM     61   O  SUS B   3      25.846  15.627  21.3610  0.00  0.00     0.000 OA
ATOM     62   O  SUS B   3      23.683  14.575  21.3360  0.00  0.00     0.000 OA
ATOM     63   O  SUS B   3      25.456  13.688  19.9560  0.00  0.00     0.000 OA
ENDBRANCH 45 58
BRANCH 41 64
ATOM     64  O4  IDS B   4      23.607  19.858  17.4020  0.00  0.00     0.000 O
BRANCH 64 68
ATOM     65  C1  IDS B   4      21.307  21.842  19.4150  0.00  0.00     0.000 C
ATOM     66  C2  IDS B   4      22.612  22.460  18.8980  0.00  0.00     0.000 C
ATOM     67  C3  IDS B   4      23.842  21.590  19.0970  0.00  0.00     0.000 C
ATOM     68  C4  IDS B   4      23.576  20.122  18.8220  0.00  0.00     0.000 C
ATOM     69  C5  IDS B   4      22.244  19.746  19.4850  0.00  0.00     0.000 C
ATOM     70  O5  IDS B   4      21.194  20.525  18.9060  0.00  0.00     0.000 O
ATOM     71   O  IDS B   4      24.261  21.757  20.4360  0.00  0.00     0.000 O
ATOM     73  HD  IDS B   4      23.832  21.966  19.7130  0.00  0.00     0.000 HD
BRANCH 66 73
ATOM     73   O  IDS B   4      22.501  22.654  17.4460  0.00  0.00     0.000 O
ATOM     74   S  IDS B   4      22.843  24.118  16.8480  0.00  0.00     0.000 S
ATOM     75   O  IDS B   4      21.974  25.053  17.5310  0.00  0.00     0.000 OA
ATOM     76   O  IDS B   4      22.536  23.946  15.4500  0.00  0.00     0.000 OA
ATOM     77   O  IDS B   4      24.243  24.331  17.1270  0.00  0.00     0.000 OA
ENDBRANCH 66 73
BRANCH 69 78
ATOM     78   C  IDS B   4      21.941  18.254  19.4870  0.00  0.00     0.000 C
ATOM     79   O  IDS B   4      21.681  17.701  18.4190  0.00  0.00     0.000 OA
ATOM     80   O  IDS B   4      22.071  17.621  20.5520  0.00  0.00     0.000 OA
ENDBRANCH 69 78
BRANCH 65 81
ATOM     81  O4  SGN B   5      21.244  21.984  20.7680  0.00  0.00     0.000 O
BRANCH 81 85
ATOM     82  C1  SGN B   5      18.533  21.168  23.8710  0.00  0.00     0.000 C
ATOM     83  C2  SGN B   5      19.903  20.476  23.9410  0.00  0.00     0.000 C
ATOM     84  C3  SGN B   5      20.899  21.216  23.0370  0.00  0.00     0.000 C
ATOM     85  C4  SGN B   5      20.337  21.289  21.6280  0.00  0.00     0.000 C
ATOM     86  C5  SGN B   5      18.995  22.014  21.6830  0.00  0.00     0.000 C
ATOM     87  O5  SGN B   5      18.100  21.265  22.5270  0.00  0.00     0.000 O
ATOM     88   O  SGN B   5      22.144  20.552  23.0510  0.00  0.00     0.000 O
ATOM     90  HD  SGN B   5      21.954  21.273  23.4910  0.00  0.00     0.000 HD
BRANCH 83 92
ATOM     90   N  SGN B   5      19.243  19.987  25.1670  0.00  0.00     0.000 N
ATOM     92  HD  SGN B   5      18.429  19.740  25.0050  0.00  0.00     0.000 HD
ATOM     92   S  SGN B   5      20.068  19.009  26.1250  0.00  0.00     0.000 S
ATOM     93   O  SGN B   5      19.165  18.718  27.1980  0.00  0.00     0.000 OA
ATOM     94   O  SGN B   5      20.544  17.961  25.2890  0.00  0.00     0.000 OA
ATOM     95   O  SGN B   5      21.269  19.820  26.5600  0.00  0.00     0.000 OA
ENDBRANCH 83 92
BRANCH 86 96
ATOM     96   C  SGN B   5      18.319  22.172  20.3370  0.00  0.00     0.000 C
ATOM     97   O  SGN B   5      17.619  20.977  19.9830  0.00  0.00     0.000 O
ATOM     98   S  SGN B   5      16.090  21.161  19.5350  0.00  0.00     0.000 S
ATOM     99   O  SGN B   5      15.738  19.846  19.0580  0.00  0.00     0.000 OA
ATOM    100   O  SGN B   5      15.361  21.594  20.6730  0.00  0.00     0.000 OA
ATOM    101   O  SGN B   5      16.139  22.143  18.5010  0.00  0.00     0.000 OA
ENDBRANCH 86 96
BRANCH 82 102
ATOM    102  O4  IDS B   6      18.537  22.398  24.4580  0.00  0.00     0.000 O
BRANCH 102 106
ATOM    103  C1  IDS B   6      16.898  24.736  26.7180  0.00  0.00     0.000 C
ATOM    104  C2  IDS B   6      16.699  23.220  26.8750  0.00  0.00     0.000 C
ATOM    105  C3  IDS B   6      16.383  22.476  25.5920  0.00  0.00     0.000 C
ATOM    106  C4  IDS B   6      17.204  22.967  24.4120  0.00  0.00     0.000 C
ATOM    107  C5  IDS B   6      17.265  24.498  24.4260  0.00  0.00     0.000 C
ATOM    108  O5  IDS B   6      17.793  24.999  25.6550  0.00  0.00     0.000 O
ATOM    109   O  IDS B   6      14.996  22.614  25.3320  0.00  0.00     0.000 O
ATOM    111  HD  IDS B   6      14.773  23.330  25.7640  0.00  0.00     0.000 HD
BRANCH 104 111
ATOM    111   O  IDS B   6      17.947  22.622  27.3730  0.00  0.00     0.000 O
ATOM    112   S  IDS B   6      17.891  21.791  28.7410  0.00  0.00     0.000 S
ATOM    113   O  IDS B   6      17.390  22.739  29.7240  0.00  0.00     0.000 OA
ATOM    114   O  IDS B   6      17.039  20.614  28.5340  0.00  0.00     0.000 OA
ATOM    115   O  IDS B   6      19.297  21.483  28.8850  0.00  0.00     0.000 OA
ENDBRANCH 104 111
BRANCH 107 116
ATOM    116   C  IDS B   6      18.120  24.979  23.2610  0.00  0.00     0.000 C
ATOM    117   O  IDS B   6      19.274  25.227  23.5020  0.00  0.00     0.000 OA
ATOM    118   O  IDS B   6      17.651  25.113  22.1410  0.00  0.00     0.000 OA
ENDBRANCH 107 116
BRANCH 103 119
ATOM    119  O4  SGN B   7      15.632  25.227  26.7140  0.00  0.00     0.000 O
BRANCH 119 123
ATOM    120  C1  SGN B   7      13.712  28.678  28.0890  0.00  0.00     0.000 C
ATOM    121  C2  SGN B   7      14.531  28.787  26.7880  0.00  0.00     0.000 C
ATOM    122  C3  SGN B   7      14.820  27.393  26.2170  0.00  0.00     0.000 C
ATOM    123  C4  SGN B   7      15.470  26.527  27.2830  0.00  0.00     0.000 C
ATOM    124  C5  SGN B   7      14.583  26.488  28.5370  0.00  0.00     0.000 C
ATOM    125  O5  SGN B   7      14.337  27.820  29.0410  0.00  0.00     0.000 O
ATOM    126   O  SGN B   7      15.664  27.527  25.0670  0.00  0.00     0.000 O
ATOM    128  HD  SGN B   7      15.166  27.911  25.6630  0.00  0.00     0.000 HD
BRANCH 121 130
ATOM    128   N  SGN B   7      13.635  29.794  26.2130  0.00  0.00     0.000 N
ATOM    130  HD  SGN B   7      13.770  30.313  26.8930  0.00  0.00     0.000 HD
ATOM    130   S  SGN B   7      14.182  31.167  25.5740  0.00  0.00     0.000 S
ATOM    131   O  SGN B   7      15.207  30.773  24.6680  0.00  0.00     0.000 OA
ATOM    132   O  SGN B   7      13.071  31.920  25.1160  0.00  0.00     0.000 OA
ATOM    133   O  SGN B   7      14.658  31.910  26.8680  0.00  0.00     0.000 OA
ENDBRANCH 121 130
BRANCH 124 134
ATOM    134   C  SGN B   7      15.195  25.749  29.6910  0.00  0.00     0.000 C
ATOM    135   O  SGN B   7      15.524  26.698  30.7200  0.00  0.00     0.000 O
ATOM    136   S  SGN B   7      16.038  26.105  32.0810  0.00  0.00     0.000 S
ATOM    137   O  SGN B   7      16.397  27.234  32.9050  0.00  0.00     0.000 OA
ATOM    138   O  SGN B   7      17.170  25.279  31.7300  0.00  0.00     0.000 OA
ATOM    139   O  SGN B   7      14.878  25.368  32.5590  0.00  0.00     0.000 OA
ENDBRANCH 124 134
BRANCH 120 140
ATOM    140  O4  IDS B   8      12.448  28.266  28.2330  0.00  0.00     0.000 O
BRANCH 140 144
ATOM    141  C1  IDS B   8       9.476  26.276  27.8160  0.00  0.00     0.000 C
ATOM    142  C2  IDS B   8      10.424  26.560  26.6160  0.00  0.00     0.000 C
ATOM    143  C3  IDS B   8      10.797  28.048  26.4790  0.00  0.00     0.000 C
ATOM    144  C4  IDS B   8      11.137  28.679  27.8280  0.00  0.00     0.000 C
ATOM    145  C5  IDS B   8      10.102  28.262  28.8850  0.00  0.00     0.000 C
ATOM    146  O5  IDS B   8      10.014  26.844  29.0040  0.00  0.00     0.000 O
BRANCH 142 147
ATOM    147   O  IDS B   8      11.691  25.804  26.7950  0.00  0.00     0.000 O
ATOM    148   S  IDS B   8      11.962  24.422  25.9890  0.00  0.00     0.000 S
ATOM    149   O  IDS B   8      10.692  23.956  25.4790  0.00  0.00     0.000 OA
ATOM    150   O  IDS B   8      12.898  24.766  24.9350  0.00  0.00     0.000 OA
ATOM    151   O  IDS B   8      12.519  23.510  26.9700  0.00  0.00     0.000 OA
ENDBRANCH 142 147
BRANCH 145 152
ATOM    152   C  IDS B   8      10.441  28.777  30.2690  0.00  0.00     0.000 C
ATOM    153   O  IDS B   8      11.118  29.792  30.3870  0.00  0.00     0.000 OA
ATOM    154   O  IDS B   8      10.021  28.189  31.2490  0.00  0.00     0.000 OA
ENDBRANCH 145 152
ENDBRANCH 140 144
ENDBRANCH 120 140
ENDBRANCH 119 123
ENDBRANCH 103 119
ENDBRANCH 102 106
ENDBRANCH 82 102
ENDBRANCH 81 85
ENDBRANCH 65 81
ENDBRANCH 64 68
ENDBRANCH 41 64
ENDBRANCH 40 44
ENDBRANCH 24 40
ENDBRANCH 23 27
ENDBRANCH 1 23
TORSDOF 31
ENDMDL
MODEL 8
REMARK VINA RESULT:      -6.3     27.380     37.420
ROOT
ATOM      1  C1  SGN B   1      69.518  12.188  17.8780  0.00  0.00     0.000 C
ATOM      2  C2  SGN B   1      70.777  11.324  17.7020  0.00  0.00     0.000 C
ATOM      3  C3  SGN B   1      70.906  10.313  18.8460  0.00  0.00     0.000 C
ATOM      4  C4  SGN B   1      70.892  11.034  20.1900  0.00  0.00     0.000 C
ATOM      5  C5  SGN B   1      69.694  11.978  20.2370  0.00  0.00     0.000 C
ATOM      6  O5  SGN B   1      69.738  12.870  19.1060  0.00  0.00     0.000 O
ATOM      7   O  SGN B   1      72.095   9.545  18.7040  0.00  0.00     0.000 O
ATOM      9  HD  SGN B   1      72.412  10.348  18.7800  0.00  0.00     0.000 HD
ATOM      9   O  SGN B   1      70.805  10.081  21.2340  0.00  0.00     0.000 O
ATOM     11  HD  SGN B   1      71.122  10.884  21.3110  0.00  0.00     0.000 HD
ENDROOT
BRANCH 2 13
ATOM     11   N  SGN B   1      71.249  11.947  16.4510  0.00  0.00     0.000 N
ATOM     13  HD  SGN B   1      70.485  11.541  16.4790  0.00  0.00     0.000 HD
ATOM     13   S  SGN B   1      70.811  11.402  15.0010  0.00  0.00     0.000 S
ATOM     14   O  SGN B   1      69.910  10.327  15.1390  0.00  0.00     0.000 OA
ATOM     15   O  SGN B   1      70.453  12.518  14.1910  0.00  0.00     0.000 OA
ATOM     16   O  SGN B   1      72.210  10.912  14.5150  0.00  0.00     0.000 OA
ENDBRANCH 2 13
BRANCH 5 17
ATOM     17   C  SGN B   1      69.633  12.832  21.4800  0.00  0.00     0.000 C
ATOM     18   O  SGN B   1      68.615  12.357  22.3820  0.00  0.00     0.000 O
ATOM     19   S  SGN B   1      67.666  13.474  23.0210  0.00  0.00     0.000 S
ATOM     20   O  SGN B   1      66.909  12.784  24.0440  0.00  0.00     0.000 OA
ATOM     21   O  SGN B   1      68.585  14.458  23.5460  0.00  0.00     0.000 OA
ATOM     22   O  SGN B   1      66.855  13.954  21.9230  0.00  0.00     0.000 OA
ENDBRANCH 5 17
BRANCH 1 23
ATOM     23  O4  IDS B   2      68.195  12.203  17.5460  0.00  0.00     0.000 O
BRANCH 23 27
ATOM     24  C1  IDS B   2      64.430  12.953  15.9670  0.00  0.00     0.000 C
ATOM     25  C2  IDS B   2      65.225  11.817  15.2870  0.00  0.00     0.000 C
ATOM     26  C3  IDS B   2      66.445  11.429  16.1190  0.00  0.00     0.000 C
ATOM     27  C4  IDS B   2      67.357  12.605  16.4420  0.00  0.00     0.000 C
ATOM     28  C5  IDS B   2      66.514  13.868  16.7090  0.00  0.00     0.000 C
ATOM     29  O5  IDS B   2      65.179  13.525  17.0480  0.00  0.00     0.000 O
ATOM     30   O  IDS B   2      67.215  10.472  15.4020  0.00  0.00     0.000 O
ATOM     32  HD  IDS B   2      67.711  10.825  14.7850  0.00  0.00     0.000 HD
BRANCH 25 32
ATOM     32   O  IDS B   2      64.405  10.594  15.0970  0.00  0.00     0.000 O
ATOM     33   S  IDS B   2      64.072   9.992  13.5970  0.00  0.00     0.000 S
ATOM     34   O  IDS B   2      63.079   8.947  13.7920  0.00  0.00     0.000 OA
ATOM     35   O  IDS B   2      63.563  11.060  12.7490  0.00  0.00     0.000 OA
ATOM     36   O  IDS B   2      65.319   9.449  13.1100  0.00  0.00     0.000 OA
ENDBRANCH 25 32
BRANCH 28 37
ATOM     37   C  IDS B   2      67.036  14.876  17.7530  0.00  0.00     0.000 C
ATOM     38   O  IDS B   2      68.015  15.476  17.3750  0.00  0.00     0.000 OA
ATOM     39   O  IDS B   2      66.519  15.150  18.8640  0.00  0.00     0.000 OA
ENDBRANCH 28 37
BRANCH 24 40
ATOM     40  O4  SUS B   3      63.352  13.482  15.3520  0.00  0.00     0.000 O
BRANCH 40 44
ATOM     41  C1  SUS B   3      59.649  14.621  16.9440  0.00  0.00     0.000 C
ATOM     42  C2  SUS B   3      60.786  15.661  16.9910  0.00  0.00     0.000 C
ATOM     43  C3  SUS B   3      61.860  15.278  15.9740  0.00  0.00     0.000 C
ATOM     44  C4  SUS B   3      62.314  13.854  16.2510  0.00  0.00     0.000 C
ATOM     45  C5  SUS B   3      61.131  12.922  16.0850  0.00  0.00     0.000 C
ATOM     46  O5  SUS B   3      60.135  13.280  17.0640  0.00  0.00     0.000 O
BRANCH 42 49
ATOM     47   N  SUS B   3      60.082  16.949  16.8660  0.00  0.00     0.000 N
ATOM     49  HD  SUS B   3      60.272  17.428  16.1710  0.00  0.00     0.000 HD
ATOM     49   S  SUS B   3      60.246  17.871  18.1660  0.00  0.00     0.000 S
ATOM     50   O  SUS B   3      61.613  18.101  18.4210  0.00  0.00     0.000 OA
ATOM     51   O  SUS B   3      59.579  19.138  17.5730  0.00  0.00     0.000 OA
ATOM     52   O  SUS B   3      59.466  17.343  19.2150  0.00  0.00     0.000 OA
ENDBRANCH 42 49
BRANCH 43 53
ATOM     53   O  SUS B   3      62.995  16.207  16.1400  0.00  0.00     0.000 O
ATOM     54   S  SUS B   3      63.242  17.310  14.9460  0.00  0.00     0.000 S
ATOM     55   O  SUS B   3      62.166  18.288  15.0270  0.00  0.00     0.000 OA
ATOM     56   O  SUS B   3      64.555  17.857  15.2380  0.00  0.00     0.000 OA
ATOM     57   O  SUS B   3      63.192  16.570  13.6820  0.00  0.00     0.000 OA
ENDBRANCH 43 53
BRANCH 45 58
ATOM     58   C  SUS B   3      61.526  11.470  16.2470  0.00  0.00     0.000 C
ATOM     59   S  SUS B   3      61.334   9.478  17.8530  0.00  0.00     0.000 S
ATOM     60   O  SUS B   3      60.871  10.924  17.4040  0.00  0.00     0.000 O
ATOM     61   O  SUS B   3      62.595   9.681  18.5410  0.00  0.00     0.000 OA
ATOM     62   O  SUS B   3      60.265   9.120  18.7460  0.00  0.00     0.000 OA
ATOM     63   O  SUS B   3      61.409   8.715  16.6580  0.00  0.00     0.000 OA
ENDBRANCH 45 58
BRANCH 41 64
ATOM     64  O4  IDS B   4      58.769  14.810  15.9060  0.00  0.00     0.000 O
BRANCH 64 68
ATOM     65  C1  IDS B   4      55.761  14.676  13.8550  0.00  0.00     0.000 C
ATOM     66  C2  IDS B   4      55.933  15.783  14.9030  0.00  0.00     0.000 C
ATOM     67  C3  IDS B   4      56.410  15.294  16.2600  0.00  0.00     0.000 C
ATOM     68  C4  IDS B   4      57.475  14.219  16.1590  0.00  0.00     0.000 C
ATOM     69  C5  IDS B   4      57.041  13.216  15.0810  0.00  0.00     0.000 C
ATOM     70  O5  IDS B   4      56.939  13.890  13.8250  0.00  0.00     0.000 O
ATOM     71   O  IDS B   4      55.282  14.785  16.9420  0.00  0.00     0.000 O
ATOM     73  HD  IDS B   4      55.693  15.245  16.3350  0.00  0.00     0.000 HD
BRANCH 66 73
ATOM     73   O  IDS B   4      56.967  16.718  14.4380  0.00  0.00     0.000 O
ATOM     74   S  IDS B   4      56.512  18.223  14.0580  0.00  0.00     0.000 S
ATOM     75   O  IDS B   4      55.482  18.097  13.0490  0.00  0.00     0.000 OA
ATOM     76   O  IDS B   4      57.744  18.790  13.5710  0.00  0.00     0.000 OA
ATOM     77   O  IDS B   4      56.037  18.805  15.2900  0.00  0.00     0.000 OA
ENDBRANCH 66 73
BRANCH 69 78
ATOM     78   C  IDS B   4      57.896  11.958  15.0110  0.00  0.00     0.000 C
ATOM     79   O  IDS B   4      58.695  11.837  14.0840  0.00  0.00     0.000 OA
ATOM     80   O  IDS B   4      57.835  11.143  15.9500  0.00  0.00     0.000 OA
ENDBRANCH 69 78
BRANCH 65 81
ATOM     81  O4  SGN B   5      54.590  14.018  14.0790  0.00  0.00     0.000 O
BRANCH 81 85
ATOM     82  C1  SGN B   5      51.652  12.003  11.8540  0.00  0.00     0.000 C
ATOM     83  C2  SGN B   5      52.411  11.185  12.9100  0.00  0.00     0.000 C
ATOM     84  C3  SGN B   5      53.077  12.135  13.9140  0.00  0.00     0.000 C
ATOM     85  C4  SGN B   5      53.965  13.113  13.1650  0.00  0.00     0.000 C
ATOM     86  C5  SGN B   5      53.099  13.879  12.1670  0.00  0.00     0.000 C
ATOM     87  O5  SGN B   5      52.519  12.939  11.2430  0.00  0.00     0.000 O
ATOM     88   O  SGN B   5      53.824  11.394  14.8540  0.00  0.00     0.000 O
ATOM     90  HD  SGN B   5      53.042  11.739  14.9940  0.00  0.00     0.000 HD
BRANCH 83 92
ATOM     90   N  SGN B   5      52.018   9.981  12.1530  0.00  0.00     0.000 N
ATOM     92  HD  SGN B   5      52.594   9.802  11.5320  0.00  0.00     0.000 HD
ATOM     92   S  SGN B   5      51.495   8.714  12.9750  0.00  0.00     0.000 S
ATOM     93   O  SGN B   5      51.208   7.734  11.9710  0.00  0.00     0.000 OA
ATOM     94   O  SGN B   5      52.489   8.456  13.9600  0.00  0.00     0.000 OA
ATOM     95   O  SGN B   5      50.260   9.207  13.6980  0.00  0.00     0.000 OA
ENDBRANCH 83 92
BRANCH 86 96
ATOM     96   C  SGN B   5      53.855  14.907  11.3510  0.00  0.00     0.000 C
ATOM     97   O  SGN B   5      54.813  14.269  10.5030  0.00  0.00     0.000 O
ATOM     98   S  SGN B   5      54.776  14.687   8.9550  0.00  0.00     0.000 S
ATOM     99   O  SGN B   5      55.957  14.050   8.4250  0.00  0.00     0.000 OA
ATOM    100   O  SGN B   5      53.553  14.211   8.4140  0.00  0.00     0.000 OA
ATOM    101   O  SGN B   5      54.860  16.112   8.9700  0.00  0.00     0.000 OA
ENDBRANCH 86 96
BRANCH 82 102
ATOM    102  O4  IDS B   6      50.557  12.633  12.3660  0.00  0.00     0.000 O
BRANCH 102 106
ATOM    103  C1  IDS B   6      47.030  13.448  12.7590  0.00  0.00     0.000 C
ATOM    104  C2  IDS B   6      47.522  11.998  12.8970  0.00  0.00     0.000 C
ATOM    105  C3  IDS B   6      48.460  11.531  11.8010  0.00  0.00     0.000 C
ATOM    106  C4  IDS B   6      49.472  12.591  11.4050  0.00  0.00     0.000 C
ATOM    107  C5  IDS B   6      48.782  13.954  11.3030  0.00  0.00     0.000 C
ATOM    108  O5  IDS B   6      48.126  14.311  12.5210  0.00  0.00     0.000 O
ATOM    109   O  IDS B   6      47.676  11.140  10.6860  0.00  0.00     0.000 O
ATOM    111  HD  IDS B   6      46.932  11.570  10.7940  0.00  0.00     0.000 HD
BRANCH 104 111
ATOM    111   O  IDS B   6      48.288  11.869  14.1460  0.00  0.00     0.000 O
ATOM    112   S  IDS B   6      47.611  11.088  15.3680  0.00  0.00     0.000 S
ATOM    113   O  IDS B   6      46.383  11.821  15.6360  0.00  0.00     0.000 OA
ATOM    114   O  IDS B   6      47.414   9.688  14.9730  0.00  0.00     0.000 OA
ATOM    115   O  IDS B   6      48.639  11.280  16.3680  0.00  0.00     0.000 OA
ENDBRANCH 104 111
BRANCH 107 116
ATOM    116   C  IDS B   6      49.812  15.015  10.9400  0.00  0.00     0.000 C
ATOM    117   O  IDS B   6      50.076  15.827  11.7900  0.00  0.00     0.000 OA
ATOM    118   O  IDS B   6      50.334  15.043   9.8370  0.00  0.00     0.000 OA
ENDBRANCH 107 116
BRANCH 103 119
ATOM    119  O4  SGN B   7      45.999  13.355  11.8810  0.00  0.00     0.000 O
BRANCH 119 123
ATOM    120  C1  SGN B   7      42.667  15.678  10.8860  0.00  0.00     0.000 C
ATOM    121  C2  SGN B   7      44.001  16.008  10.1890  0.00  0.00     0.000 C
ATOM    122  C3  SGN B   7      44.991  14.847  10.3450  0.00  0.00     0.000 C
ATOM    123  C4  SGN B   7      45.137  14.491  11.8150  0.00  0.00     0.000 C
ATOM    124  C5  SGN B   7      43.756  14.187  12.4190  0.00  0.00     0.000 C
ATOM    125  O5  SGN B   7      42.857  15.306  12.2500  0.00  0.00     0.000 O
ATOM    126   O  SGN B   7      46.248  15.226   9.7730  0.00  0.00     0.000 O
ATOM    128  HD  SGN B   7      45.408  15.403   9.8850  0.00  0.00     0.000 HD
BRANCH 121 130
ATOM    128   N  SGN B   7      43.195  16.566   9.1000  0.00  0.00     0.000 N
ATOM    130  HD  SGN B   7      43.007  17.259   9.5840  0.00  0.00     0.000 HD
ATOM    130   S  SGN B   7      43.689  17.822   8.2220  0.00  0.00     0.000 S
ATOM    131   O  SGN B   7      45.007  17.489   7.8040  0.00  0.00     0.000 OA
ATOM    132   O  SGN B   7      42.686  18.119   7.2630  0.00  0.00     0.000 OA
ATOM    133   O  SGN B   7      43.573  18.969   9.2830  0.00  0.00     0.000 OA
ENDBRANCH 121 130
BRANCH 124 134
ATOM    134   C  SGN B   7      43.781  13.936  13.8980  0.00  0.00     0.000 C
ATOM    135   O  SGN B   7      43.688  15.199  14.5780  0.00  0.00     0.000 O
ATOM    136   S  SGN B   7      43.544  15.143  16.1410  0.00  0.00     0.000 S
ATOM    137   O  SGN B   7      43.575  16.511  16.6010  0.00  0.00     0.000 OA
ATOM    138   O  SGN B   7      44.676  14.369  16.5980  0.00  0.00     0.000 OA
ATOM    139   O  SGN B   7      42.257  14.489  16.3140  0.00  0.00     0.000 OA
ENDBRANCH 124 134
BRANCH 120 140
ATOM    140  O4  IDS B   8      41.765  14.753  10.5410  0.00  0.00     0.000 O
BRANCH 140 144
ATOM    141  C1  IDS B   8      39.846  11.988   9.2640  0.00  0.00     0.000 C
ATOM    142  C2  IDS B   8      40.434  13.063   8.3060  0.00  0.00     0.000 C
ATOM    143  C3  IDS B   8      40.142  14.504   8.7640  0.00  0.00     0.000 C
ATOM    144  C4  IDS B   8      40.360  14.682  10.2660  0.00  0.00     0.000 C
ATOM    145  C5  IDS B   8      39.730  13.512  11.0350  0.00  0.00     0.000 C
ATOM    146  O5  IDS B   8      40.248  12.256  10.6010  0.00  0.00     0.000 O
BRANCH 142 147
ATOM    147   O  IDS B   8      41.911  12.913   8.2400  0.00  0.00     0.000 O
ATOM    148   S  IDS B   8      42.717  13.169   6.8550  0.00  0.00     0.000 S
ATOM    149   O  IDS B   8      41.753  13.147   5.7780  0.00  0.00     0.000 OA
ATOM    150   O  IDS B   8      43.354  14.463   7.0120  0.00  0.00     0.000 OA
ATOM    151   O  IDS B   8      43.665  12.076   6.7570  0.00  0.00     0.000 OA
ENDBRANCH 142 147
BRANCH 145 152
ATOM    152   C  IDS B   8      39.999  13.581  12.5250  0.00  0.00     0.000 C
ATOM    153   O  IDS B   8      40.530  12.630  13.0880  0.00  0.00     0.000 OA
ATOM    154   O  IDS B   8      39.704  14.588  13.1440  0.00  0.00     0.000 OA
ENDBRANCH 145 152
ENDBRANCH 140 144
ENDBRANCH 120 140
ENDBRANCH 119 123
ENDBRANCH 103 119
ENDBRANCH 102 106
ENDBRANCH 82 102
ENDBRANCH 81 85
ENDBRANCH 65 81
ENDBRANCH 64 68
ENDBRANCH 41 64
ENDBRANCH 40 44
ENDBRANCH 24 40
ENDBRANCH 23 27
ENDBRANCH 1 23
TORSDOF 31
ENDMDL
MODEL 9
REMARK VINA RESULT:      -6.3      9.202     15.884
ROOT
ATOM      1  C1  SGN B   1      41.614  13.955   4.4500  0.00  0.00     0.000 C
ATOM      2  C2  SGN B   1      40.854  13.157   3.3780  0.00  0.00     0.000 C
ATOM      3  C3  SGN B   1      39.450  12.787   3.8690  0.00  0.00     0.000 C
ATOM      4  C4  SGN B   1      39.538  12.029   5.1900  0.00  0.00     0.000 C
ATOM      5  C5  SGN B   1      40.423  12.811   6.1570  0.00  0.00     0.000 C
ATOM      6  O5  SGN B   1      41.705  13.056   5.5470  0.00  0.00     0.000 O
ATOM      7   O  SGN B   1      38.766  12.011   2.8930  0.00  0.00     0.000 O
ATOM      9  HD  SGN B   1      39.448  11.508   3.0710  0.00  0.00     0.000 HD
ATOM      9   O  SGN B   1      38.239  11.875   5.7310  0.00  0.00     0.000 O
ATOM     11  HD  SGN B   1      38.921  11.372   5.9100  0.00  0.00     0.000 HD
ENDROOT
BRANCH 2 13
ATOM     11   N  SGN B   1      41.885  13.118   2.3230  0.00  0.00     0.000 N
ATOM     13  HD  SGN B   1      41.600  13.875   2.6320  0.00  0.00     0.000 HD
ATOM     13   S  SGN B   1      42.060  14.302   1.2490  0.00  0.00     0.000 S
ATOM     14   O  SGN B   1      41.143  15.340   1.5160  0.00  0.00     0.000 OA
ATOM     15   O  SGN B   1      43.447  14.606   1.1350  0.00  0.00     0.000 OA
ATOM     16   O  SGN B   1      41.657  13.504  -0.0300  0.00  0.00     0.000 OA
ENDBRANCH 2 13
BRANCH 5 17
ATOM     17   C  SGN B   1      40.676  12.105   7.4660  0.00  0.00     0.000 C
ATOM     18   O  SGN B   1      41.879  12.595   8.0910  0.00  0.00     0.000 O
ATOM     19   S  SGN B   1      42.866  11.482   8.6790  0.00  0.00     0.000 S
ATOM     20   O  SGN B   1      43.851  12.220   9.4420  0.00  0.00     0.000 OA
ATOM     21   O  SGN B   1      42.012  10.647   9.4910  0.00  0.00     0.000 OA
ATOM     22   O  SGN B   1      43.414  10.813   7.5200  0.00  0.00     0.000 OA
ENDBRANCH 5 17
BRANCH 1 23
ATOM     23  O4  IDS B   2      41.821  15.239   4.8580  0.00  0.00     0.000 O
BRANCH 23 27
ATOM     24  C1  IDS B   2      39.661  18.472   6.3140  0.00  0.00     0.000 C
ATOM     25  C2  IDS B   2      39.028  17.732   5.1140  0.00  0.00     0.000 C
ATOM     26  C3  IDS B   2      39.737  16.405   4.8550  0.00  0.00     0.000 C
ATOM     27  C4  IDS B   2      41.241  16.547   4.6670  0.00  0.00     0.000 C
ATOM     28  C5  IDS B   2      41.791  17.632   5.6140  0.00  0.00     0.000 C
ATOM     29  O5  IDS B   2      40.900  17.860   6.6960  0.00  0.00     0.000 O
ATOM     30   O  IDS B   2      39.210  15.816   3.6730  0.00  0.00     0.000 O
ATOM     32  HD  IDS B   2      39.529  16.163   2.9460  0.00  0.00     0.000 HD
BRANCH 25 32
ATOM     32   O  IDS B   2      37.591  17.437   5.3330  0.00  0.00     0.000 O
ATOM     33   S  IDS B   2      36.403  18.462   4.8210  0.00  0.00     0.000 S
ATOM     34   O  IDS B   2      35.164  17.967   5.3990  0.00  0.00     0.000 OA
ATOM     35   O  IDS B   2      36.700  19.813   5.2770  0.00  0.00     0.000 OA
ATOM     36   O  IDS B   2      36.391  18.357   3.3810  0.00  0.00     0.000 OA
ENDBRANCH 25 32
BRANCH 28 37
ATOM     37   C  IDS B   2      43.210  17.438   6.1870  0.00  0.00     0.000 C
ATOM     38   O  IDS B   2      44.056  18.015   5.5460  0.00  0.00     0.000 OA
ATOM     39   O  IDS B   2      43.524  16.822   7.2350  0.00  0.00     0.000 OA
ENDBRANCH 28 37
BRANCH 24 40
ATOM     40  O4  SUS B   3      39.216  19.698   6.6590  0.00  0.00     0.000 O
BRANCH 40 44
ATOM     41  C1  SUS B   3      37.804  20.528  10.5140  0.00  0.00     0.000 C
ATOM     42  C2  SUS B   3      38.794  21.534   9.8940  0.00  0.00     0.000 C
ATOM     43  C3  SUS B   3      38.818  21.348   8.3790  0.00  0.00     0.000 C
ATOM     44  C4  SUS B   3      39.137  19.894   8.0660  0.00  0.00     0.000 C
ATOM     45  C5  SUS B   3      38.047  19.017   8.6480  0.00  0.00     0.000 C
ATOM     46  O5  SUS B   3      38.051  19.186  10.0800  0.00  0.00     0.000 O
BRANCH 42 49
ATOM     47   N  SUS B   3      38.389  22.836  10.4520  0.00  0.00     0.000 N
ATOM     49  HD  SUS B   3      38.137  23.439   9.8840  0.00  0.00     0.000 HD
ATOM     49   S  SUS B   3      39.513  23.480  11.3960  0.00  0.00     0.000 S
ATOM     50   O  SUS B   3      40.716  23.626  10.6770  0.00  0.00     0.000 OA
ATOM     51   O  SUS B   3      38.820  24.853  11.5880  0.00  0.00     0.000 OA
ATOM     52   O  SUS B   3      39.562  22.772  12.6130  0.00  0.00     0.000 OA
ENDBRANCH 42 49
BRANCH 43 53
ATOM     53   O  SUS B   3      39.872  22.223   7.8290  0.00  0.00     0.000 O
ATOM     54   S  SUS B   3      39.384  23.526   6.9540  0.00  0.00     0.000 S
ATOM     55   O  SUS B   3      38.795  24.480   7.8830  0.00  0.00     0.000 OA
ATOM     56   O  SUS B   3      40.602  24.000   6.3210  0.00  0.00     0.000 OA
ATOM     57   O  SUS B   3      38.390  23.033   5.9960  0.00  0.00     0.000 OA
ENDBRANCH 43 53
BRANCH 45 58
ATOM     58   C  SUS B   3      38.242  17.560   8.2920  0.00  0.00     0.000 C
ATOM     59   S  SUS B   3      39.426  15.419   9.0670  0.00  0.00     0.000 S
ATOM     60   O  SUS B   3      38.943  16.899   9.3590  0.00  0.00     0.000 O
ATOM     61   O  SUS B   3      40.612  15.562   8.2440  0.00  0.00     0.000 OA
ATOM     62   O  SUS B   3      39.725  14.967  10.4000  0.00  0.00     0.000 OA
ATOM     63   O  SUS B   3      38.325  14.777   8.4400  0.00  0.00     0.000 OA
ENDBRANCH 45 58
BRANCH 41 64
ATOM     64  O4  IDS B   4      36.490  20.916  10.4210  0.00  0.00     0.000 O
BRANCH 64 68
ATOM     65  C1  IDS B   4      33.084  21.684  11.4610  0.00  0.00     0.000 C
ATOM     66  C2  IDS B   4      34.274  22.341  12.1710  0.00  0.00     0.000 C
ATOM     67  C3  IDS B   4      35.391  21.380  12.5440  0.00  0.00     0.000 C
ATOM     68  C4  IDS B   4      35.667  20.350  11.4650  0.00  0.00     0.000 C
ATOM     69  C5  IDS B   4      34.321  19.815  10.9590  0.00  0.00     0.000 C
ATOM     70  O5  IDS B   4      33.570  20.892  10.3930  0.00  0.00     0.000 O
ATOM     71   O  IDS B   4      35.004  20.731  13.7370  0.00  0.00     0.000 O
ATOM     73  HD  IDS B   4      34.974  21.350  13.1320  0.00  0.00     0.000 HD
BRANCH 66 73
ATOM     73   O  IDS B   4      34.887  23.318  11.2600  0.00  0.00     0.000 O
ATOM     74   S  IDS B   4      34.852  24.878  11.6870  0.00  0.00     0.000 S
ATOM     75   O  IDS B   4      33.460  25.215  11.8970  0.00  0.00     0.000 OA
ATOM     76   O  IDS B   4      35.443  25.513  10.5370  0.00  0.00     0.000 OA
ATOM     77   O  IDS B   4      35.648  24.967  12.8880  0.00  0.00     0.000 OA
ENDBRANCH 66 73
BRANCH 69 78
ATOM     78   C  IDS B   4      34.429  18.615  10.0290  0.00  0.00     0.000 C
ATOM     79   O  IDS B   4      34.175  17.497  10.4760  0.00  0.00     0.000 OA
ATOM     80   O  IDS B   4      34.667  18.814   8.8240  0.00  0.00     0.000 OA
ENDBRANCH 69 78
BRANCH 65 81
ATOM     81  O4  SGN B   5      32.298  21.058  12.3810  0.00  0.00     0.000 O
BRANCH 81 85
ATOM     82  C1  SGN B   5      28.367  19.829  13.2010  0.00  0.00     0.000 C
ATOM     83  C2  SGN B   5      29.063  19.182  11.9950  0.00  0.00     0.000 C
ATOM     84  C3  SGN B   5      30.581  19.374  12.1130  0.00  0.00     0.000 C
ATOM     85  C4  SGN B   5      30.888  20.854  12.2580  0.00  0.00     0.000 C
ATOM     86  C5  SGN B   5      30.165  21.375  13.4970  0.00  0.00     0.000 C
ATOM     87  O5  SGN B   5      28.748  21.186  13.3180  0.00  0.00     0.000 O
ATOM     88   O  SGN B   5      31.223  18.832  10.9800  0.00  0.00     0.000 O
ATOM     90  HD  SGN B   5      31.175  18.455  11.7580  0.00  0.00     0.000 HD
BRANCH 83 92
ATOM     90   N  SGN B   5      27.774  18.463  12.0320  0.00  0.00     0.000 N
ATOM     92  HD  SGN B   5      27.122  19.003  12.2170  0.00  0.00     0.000 HD
ATOM     92   S  SGN B   5      27.468  17.407  10.8720  0.00  0.00     0.000 S
ATOM     93   O  SGN B   5      26.166  16.901  11.1870  0.00  0.00     0.000 OA
ATOM     94   O  SGN B   5      27.687  18.102   9.6500  0.00  0.00     0.000 OA
ATOM     95   O  SGN B   5      28.560  16.368  11.0010  0.00  0.00     0.000 OA
ENDBRANCH 83 92
BRANCH 86 96
ATOM     96   C  SGN B   5      30.392  22.847  13.7740  0.00  0.00     0.000 C
ATOM     97   O  SGN B   5      30.775  23.048  15.1370  0.00  0.00     0.000 O
ATOM     98   S  SGN B   5      32.092  23.931  15.3780  0.00  0.00     0.000 S
ATOM     99   O  SGN B   5      32.093  24.117  16.8090  0.00  0.00     0.000 OA
ATOM    100   O  SGN B   5      33.196  23.196  14.8750  0.00  0.00     0.000 OA
ATOM    101   O  SGN B   5      31.849  25.135  14.6510  0.00  0.00     0.000 OA
ENDBRANCH 86 96
BRANCH 82 102
ATOM    102  O4  IDS B   6      28.612  19.165  14.3660  0.00  0.00     0.000 O
BRANCH 102 106
ATOM    103  C1  IDS B   6      27.580  17.210  17.2600  0.00  0.00     0.000 C
ATOM    104  C2  IDS B   6      26.941  16.973  15.8830  0.00  0.00     0.000 C
ATOM    105  C3  IDS B   6      26.505  18.228  15.1520  0.00  0.00     0.000 C
ATOM    106  C4  IDS B   6      27.507  19.362  15.2850  0.00  0.00     0.000 C
ATOM    107  C5  IDS B   6      28.008  19.442  16.7300  0.00  0.00     0.000 C
ATOM    108  O5  IDS B   6      28.580  18.207  17.1650  0.00  0.00     0.000 O
ATOM    109   O  IDS B   6      25.237  18.615  15.6550  0.00  0.00     0.000 O
ATOM    111  HD  IDS B   6      25.205  18.251  16.4400  0.00  0.00     0.000 HD
BRANCH 104 111
ATOM    111   O  IDS B   6      27.927  16.331  15.0000  0.00  0.00     0.000 O
ATOM    112   S  IDS B   6      27.695  14.799  14.6000  0.00  0.00     0.000 S
ATOM    113   O  IDS B   6      27.659  14.090  15.8700  0.00  0.00     0.000 OA
ATOM    114   O  IDS B   6      26.461  14.706  13.8120  0.00  0.00     0.000 OA
ATOM    115   O  IDS B   6      28.902  14.572  13.8350  0.00  0.00     0.000 OA
ENDBRANCH 104 111
BRANCH 107 116
ATOM    116   C  IDS B   6      29.039  20.558  16.8450  0.00  0.00     0.000 C
ATOM    117   O  IDS B   6      30.197  20.227  16.8510  0.00  0.00     0.000 OA
ATOM    118   O  IDS B   6      28.701  21.727  16.9360  0.00  0.00     0.000 OA
ENDBRANCH 107 116
BRANCH 103 119
ATOM    119  O4  SGN B   7      26.515  17.355  18.0890  0.00  0.00     0.000 O
BRANCH 119 123
ATOM    120  C1  SGN B   7      25.744  16.671  22.1420  0.00  0.00     0.000 C
ATOM    121  C2  SGN B   7      26.941  17.572  21.7850  0.00  0.00     0.000 C
ATOM    122  C3  SGN B   7      26.845  18.043  20.3280  0.00  0.00     0.000 C
ATOM    123  C4  SGN B   7      26.684  16.842  19.4110  0.00  0.00     0.000 C
ATOM    124  C5  SGN B   7      25.472  16.006  19.8520  0.00  0.00     0.000 C
ATOM    125  O5  SGN B   7      25.605  15.584  21.2280  0.00  0.00     0.000 O
ATOM    126   O  SGN B   7      28.020  18.795  20.0030  0.00  0.00     0.000 O
ATOM    128  HD  SGN B   7      27.536  18.412  20.6110  0.00  0.00     0.000 HD
BRANCH 121 130
ATOM    128   N  SGN B   7      26.788  18.063  23.1580  0.00  0.00     0.000 N
ATOM    130  HD  SGN B   7      27.257  17.398  23.4550  0.00  0.00     0.000 HD
ATOM    130   S  SGN B   7      28.001  18.749  23.9650  0.00  0.00     0.000 S
ATOM    131   O  SGN B   7      28.516  19.744  23.0880  0.00  0.00     0.000 OA
ATOM    132   O  SGN B   7      27.534  19.103  25.2560  0.00  0.00     0.000 OA
ATOM    133   O  SGN B   7      28.920  17.503  24.2050  0.00  0.00     0.000 OA
ENDBRANCH 121 130
BRANCH 124 134
ATOM    134   C  SGN B   7      25.297  14.734  19.0760  0.00  0.00     0.000 C
ATOM    135   O  SGN B   7      23.953  14.687  18.5680  0.00  0.00     0.000 O
ATOM    136   S  SGN B   7      23.613  13.501  17.5960  0.00  0.00     0.000 S
ATOM    137   O  SGN B   7      22.202  13.605  17.3070  0.00  0.00     0.000 OA
ATOM    138   O  SGN B   7      23.952  12.302  18.3280  0.00  0.00     0.000 OA
ATOM    139   O  SGN B   7      24.473  13.775  16.4550  0.00  0.00     0.000 OA
ENDBRANCH 124 134
BRANCH 120 140
ATOM    140  O4  IDS B   8      24.457  17.017  22.2520  0.00  0.00     0.000 O
BRANCH 140 144
ATOM    141  C1  IDS B   8      21.586  17.939  24.2180  0.00  0.00     0.000 C
ATOM    142  C2  IDS B   8      22.637  16.931  24.7630  0.00  0.00     0.000 C
ATOM    143  C3  IDS B   8      22.986  15.821  23.7540  0.00  0.00     0.000 C
ATOM    144  C4  IDS B   8      23.181  16.370  22.3420  0.00  0.00     0.000 C
ATOM    145  C5  IDS B   8      22.060  17.363  22.0010  0.00  0.00     0.000 C
ATOM    146  O5  IDS B   8      21.994  18.428  22.9460  0.00  0.00     0.000 O
BRANCH 142 147
ATOM    147   O  IDS B   8      23.898  17.651  25.0780  0.00  0.00     0.000 O
ATOM    148   S  IDS B   8      24.409  17.812  26.6090  0.00  0.00     0.000 S
ATOM    149   O  IDS B   8      23.291  17.518  27.4770  0.00  0.00     0.000 OA
ATOM    150   O  IDS B   8      25.498  16.864  26.7560  0.00  0.00     0.000 OA
ATOM    151   O  IDS B   8      24.836  19.193  26.7260  0.00  0.00     0.000 OA
ENDBRANCH 142 147
BRANCH 145 152
ATOM    152   C  IDS B   8      22.253  18.018  20.6480  0.00  0.00     0.000 C
ATOM    153   O  IDS B   8      22.399  19.234  20.5800  0.00  0.00     0.000 OA
ATOM    154   O  IDS B   8      22.281  17.329  19.6440  0.00  0.00     0.000 OA
ENDBRANCH 145 152
ENDBRANCH 140 144
ENDBRANCH 120 140
ENDBRANCH 119 123
ENDBRANCH 103 119
ENDBRANCH 102 106
ENDBRANCH 82 102
ENDBRANCH 81 85
ENDBRANCH 65 81
ENDBRANCH 64 68
ENDBRANCH 41 64
ENDBRANCH 40 44
ENDBRANCH 24 40
ENDBRANCH 23 27
ENDBRANCH 1 23
TORSDOF 31
ENDMDL
MODEL 10
REMARK VINA RESULT:      -6.3      3.588      6.776
ROOT
ATOM      1  C1  SGN B   1      29.498  19.134   8.1510  0.00  0.00     0.000 C
ATOM      2  C2  SGN B   1      30.730  19.899   7.6390  0.00  0.00     0.000 C
ATOM      3  C3  SGN B   1      30.371  21.354   7.3210  0.00  0.00     0.000 C
ATOM      4  C4  SGN B   1      29.215  21.406   6.3280  0.00  0.00     0.000 C
ATOM      5  C5  SGN B   1      28.084  20.512   6.8320  0.00  0.00     0.000 C
ATOM      6  O5  SGN B   1      28.587  19.182   7.0610  0.00  0.00     0.000 O
ATOM      7   O  SGN B   1      31.502  22.047   6.8060  0.00  0.00     0.000 O
ATOM      9  HD  SGN B   1      31.395  21.422   6.2160  0.00  0.00     0.000 HD
ATOM      9   O  SGN B   1      28.762  22.741   6.2010  0.00  0.00     0.000 O
ATOM     11  HD  SGN B   1      28.655  22.116   5.6110  0.00  0.00     0.000 HD
ENDROOT
BRANCH 2 13
ATOM     11   N  SGN B   1      31.736  18.821   7.6950  0.00  0.00     0.000 N
ATOM     13  HD  SGN B   1      31.298  19.051   8.4060  0.00  0.00     0.000 HD
ATOM     13   S  SGN B   1      32.558  18.481   9.0360  0.00  0.00     0.000 S
ATOM     14   O  SGN B   1      32.129  19.312  10.0920  0.00  0.00     0.000 OA
ATOM     15   O  SGN B   1      32.563  17.068   9.2140  0.00  0.00     0.000 OA
ATOM     16   O  SGN B   1      33.978  18.887   8.5360  0.00  0.00     0.000 OA
ENDBRANCH 2 13
BRANCH 5 17
ATOM     17   C  SGN B   1      26.922  20.394   5.8770  0.00  0.00     0.000 C
ATOM     18   O  SGN B   1      26.002  19.372   6.3090  0.00  0.00     0.000 O
ATOM     19   S  SGN B   1      25.482  18.372   5.1740  0.00  0.00     0.000 S
ATOM     20   O  SGN B   1      24.419  17.615   5.8000  0.00  0.00     0.000 OA
ATOM     21   O  SGN B   1      25.026  19.244   4.1170  0.00  0.00     0.000 OA
ATOM     22   O  SGN B   1      26.633  17.571   4.8210  0.00  0.00     0.000 OA
ENDBRANCH 5 17
BRANCH 1 23
ATOM     23  O4  IDS B   2      28.849  18.839   9.3130  0.00  0.00     0.000 O
BRANCH 23 27
ATOM     24  C1  IDS B   2      26.820  19.081  12.9270  0.00  0.00     0.000 C
ATOM     25  C2  IDS B   2      26.970  20.411  12.1550  0.00  0.00     0.000 C
ATOM     26  C3  IDS B   2      27.455  20.164  10.7290  0.00  0.00     0.000 C
ATOM     27  C4  IDS B   2      28.741  19.352  10.6580  0.00  0.00     0.000 C
ATOM     28  C5  IDS B   2      28.743  18.268  11.7550  0.00  0.00     0.000 C
ATOM     29  O5  IDS B   2      27.423  17.999  12.2040  0.00  0.00     0.000 O
ATOM     30   O  IDS B   2      27.700  21.413  10.0950  0.00  0.00     0.000 O
ATOM     32  HD  IDS B   2      28.456  21.769  10.3220  0.00  0.00     0.000 HD
BRANCH 25 32
ATOM     32   O  IDS B   2      25.691  21.158  12.0710  0.00  0.00     0.000 O
ATOM     33   S  IDS B   2      25.517  22.665  12.7200  0.00  0.00     0.000 S
ATOM     34   O  IDS B   2      24.098  22.976  12.6460  0.00  0.00     0.000 OA
ATOM     35   O  IDS B   2      25.988  22.655  14.0980  0.00  0.00     0.000 OA
ATOM     36   O  IDS B   2      26.294  23.545  11.8790  0.00  0.00     0.000 OA
ENDBRANCH 25 32
BRANCH 28 37
ATOM     37   C  IDS B   2      29.431  16.924  11.4400  0.00  0.00     0.000 C
ATOM     38   O  IDS B   2      30.559  16.865  11.8700  0.00  0.00     0.000 OA
ATOM     39   O  IDS B   2      28.922  15.931  10.8670  0.00  0.00     0.000 OA
ENDBRANCH 28 37
BRANCH 24 40
ATOM     40  O4  SUS B   3      26.466  19.094  14.2280  0.00  0.00     0.000 O
BRANCH 40 44
ATOM     41  C1  SUS B   3      23.942  16.529  16.3730  0.00  0.00     0.000 C
ATOM     42  C2  SUS B   3      25.359  16.015  16.0460  0.00  0.00     0.000 C
ATOM     43  C3  SUS B   3      26.261  17.201  15.7160  0.00  0.00     0.000 C
ATOM     44  C4  SUS B   3      25.624  18.008  14.5960  0.00  0.00     0.000 C
ATOM     45  C5  SUS B   3      24.284  18.532  15.0710  0.00  0.00     0.000 C
ATOM     46  O5  SUS B   3      23.435  17.402  15.3580  0.00  0.00     0.000 O
BRANCH 42 49
ATOM     47   N  SUS B   3      25.198  15.017  17.1180  0.00  0.00     0.000 N
ATOM     49  HD  SUS B   3      25.466  15.251  17.9080  0.00  0.00     0.000 HD
ATOM     49   S  SUS B   3      25.876  13.610  16.7600  0.00  0.00     0.000 S
ATOM     50   O  SUS B   3      27.247  13.795  16.4850  0.00  0.00     0.000 OA
ATOM     51   O  SUS B   3      25.681  12.957  18.1510  0.00  0.00     0.000 OA
ATOM     52   O  SUS B   3      25.099  12.952  15.7870  0.00  0.00     0.000 OA
ENDBRANCH 42 49
BRANCH 43 53
ATOM     53   O  SUS B   3      27.566  16.671  15.2730  0.00  0.00     0.000 O
ATOM     54   S  SUS B   3      28.890  17.122  16.1350  0.00  0.00     0.000 S
ATOM     55   O  SUS B   3      28.825  16.446  17.4230  0.00  0.00     0.000 OA
ATOM     56   O  SUS B   3      30.008  16.702  15.3090  0.00  0.00     0.000 OA
ATOM     57   O  SUS B   3      28.805  18.577  16.2950  0.00  0.00     0.000 OA
ENDBRANCH 43 53
BRANCH 45 58
ATOM     58   C  SUS B   3      23.630  19.430  14.0430  0.00  0.00     0.000 C
ATOM     59   S  SUS B   3      22.154  19.380  11.9450  0.00  0.00     0.000 S
ATOM     60   O  SUS B   3      22.757  18.647  13.2130  0.00  0.00     0.000 O
ATOM     61   O  SUS B   3      23.227  19.397  10.9700  0.00  0.00     0.000 OA
ATOM     62   O  SUS B   3      21.095  18.474  11.5910  0.00  0.00     0.000 OA
ATOM     63   O  SUS B   3      21.732  20.655  12.4090  0.00  0.00     0.000 OA
ENDBRANCH 45 58
BRANCH 41 64
ATOM     64  O4  IDS B   4      23.811  17.016  17.6500  0.00  0.00     0.000 O
BRANCH 64 68
ATOM     65  C1  IDS B   4      22.270  17.871  20.8390  0.00  0.00     0.000 C
ATOM     66  C2  IDS B   4      22.251  16.422  20.3360  0.00  0.00     0.000 C
ATOM     67  C3  IDS B   4      21.847  16.268  18.8790  0.00  0.00     0.000 C
ATOM     68  C4  IDS B   4      22.444  17.339  17.9860  0.00  0.00     0.000 C
ATOM     69  C5  IDS B   4      22.292  18.692  18.6950  0.00  0.00     0.000 C
ATOM     70  O5  IDS B   4      23.013  18.660  19.9280  0.00  0.00     0.000 O
ATOM     71   O  IDS B   4      20.437  16.333  18.8260  0.00  0.00     0.000 O
ATOM     73  HD  IDS B   4      21.207  16.230  19.2100  0.00  0.00     0.000 HD
BRANCH 66 73
ATOM     73   O  IDS B   4      23.611  15.873  20.4240  0.00  0.00     0.000 O
ATOM     74   S  IDS B   4      24.067  15.197  21.8220  0.00  0.00     0.000 S
ATOM     75   O  IDS B   4      23.882  16.205  22.8440  0.00  0.00     0.000 OA
ATOM     76   O  IDS B   4      25.447  14.874  21.5590  0.00  0.00     0.000 OA
ATOM     77   O  IDS B   4      23.210  14.048  21.9920  0.00  0.00     0.000 OA
ENDBRANCH 66 73
BRANCH 69 78
ATOM     78   C  IDS B   4      22.643  19.897  17.8330  0.00  0.00     0.000 C
ATOM     79   O  IDS B   4      21.811  20.310  17.0270  0.00  0.00     0.000 OA
ATOM     80   O  IDS B   4      23.717  20.489  18.0470  0.00  0.00     0.000 OA
ENDBRANCH 69 78
BRANCH 65 81
ATOM     81  O4  SGN B   5      20.996  18.275  21.1040  0.00  0.00     0.000 O
BRANCH 81 85
ATOM     82  C1  SGN B   5      18.958  20.817  23.7530  0.00  0.00     0.000 C
ATOM     83  C2  SGN B   5      18.934  21.196  22.2650  0.00  0.00     0.000 C
ATOM     84  C3  SGN B   5      19.297  19.969  21.4170  0.00  0.00     0.000 C
ATOM     85  C4  SGN B   5      20.640  19.426  21.8730  0.00  0.00     0.000 C
ATOM     86  C5  SGN B   5      20.534  19.065  23.3520  0.00  0.00     0.000 C
ATOM     87  O5  SGN B   5      20.211  20.255  24.0960  0.00  0.00     0.000 O
ATOM     88   O  SGN B   5      19.333  20.324  20.0520  0.00  0.00     0.000 O
ATOM     90  HD  SGN B   5      18.686  19.903  20.4450  0.00  0.00     0.000 HD
BRANCH 83 92
ATOM     90   N  SGN B   5      18.659  22.588  22.6700  0.00  0.00     0.000 N
ATOM     92  HD  SGN B   5      19.395  23.032  22.7770  0.00  0.00     0.000 HD
ATOM     92   S  SGN B   5      17.497  23.377  21.9070  0.00  0.00     0.000 S
ATOM     93   O  SGN B   5      17.487  24.672  22.5180  0.00  0.00     0.000 OA
ATOM     94   O  SGN B   5      17.787  23.245  20.5200  0.00  0.00     0.000 OA
ATOM     95   O  SGN B   5      16.243  22.578  22.1850  0.00  0.00     0.000 OA
ENDBRANCH 83 92
BRANCH 86 96
ATOM     96   C  SGN B   5      21.806  18.494  23.9450  0.00  0.00     0.000 C
ATOM     97   O  SGN B   5      22.862  19.455  23.8880  0.00  0.00     0.000 O
ATOM     98   S  SGN B   5      23.651  19.719  25.2590  0.00  0.00     0.000 S
ATOM     99   O  SGN B   5      24.751  20.553  24.8370  0.00  0.00     0.000 OA
ATOM    100   O  SGN B   5      22.747  20.340  26.1590  0.00  0.00     0.000 OA
ATOM    101   O  SGN B   5      24.060  18.420  25.6880  0.00  0.00     0.000 OA
ENDBRANCH 86 96
BRANCH 82 102
ATOM    102  O4  IDS B   6      17.948  19.969  24.0950  0.00  0.00     0.000 O
BRANCH 102 106
ATOM    103  C1  IDS B   6      15.160  18.577  25.9790  0.00  0.00     0.000 C
ATOM    104  C2  IDS B   6      14.968  19.816  25.0910  0.00  0.00     0.000 C
ATOM    105  C3  IDS B   6      16.019  20.896  25.2570  0.00  0.00     0.000 C
ATOM    106  C4  IDS B   6      17.422  20.332  25.3970  0.00  0.00     0.000 C
ATOM    107  C5  IDS B   6      17.402  19.120  26.3340  0.00  0.00     0.000 C
ATOM    108  O5  IDS B   6      16.494  18.114  25.8830  0.00  0.00     0.000 O
ATOM    109   O  IDS B   6      15.675  21.676  26.3910  0.00  0.00     0.000 O
ATOM    111  HD  IDS B   6      15.173  21.150  26.8610  0.00  0.00     0.000 HD
BRANCH 104 111
ATOM    111   O  IDS B   6      15.047  19.411  23.6790  0.00  0.00     0.000 O
ATOM    112   S  IDS B   6      13.735  19.565  22.7760  0.00  0.00     0.000 S
ATOM    113   O  IDS B   6      12.730  18.756  23.4480  0.00  0.00     0.000 OA
ATOM    114   O  IDS B   6      13.406  20.992  22.6750  0.00  0.00     0.000 OA
ATOM    115   O  IDS B   6      14.228  18.986  21.5450  0.00  0.00     0.000 OA
ENDBRANCH 104 111
BRANCH 107 116
ATOM    116   C  IDS B   6      18.806  18.540  26.4380  0.00  0.00     0.000 C
ATOM    117   O  IDS B   6      19.585  19.130  27.1440  0.00  0.00     0.000 OA
ATOM    118   O  IDS B   6      19.125  17.533  25.8270  0.00  0.00     0.000 OA
ENDBRANCH 107 116
BRANCH 103 119
ATOM    119  O4  SGN B   7      14.626  18.949  27.1700  0.00  0.00     0.000 O
BRANCH 119 123
ATOM    120  C1  SGN B   7      12.708  17.048  30.3640  0.00  0.00     0.000 C
ATOM    121  C2  SGN B   7      14.241  16.924  30.2760  0.00  0.00     0.000 C
ATOM    122  C3  SGN B   7      14.813  17.979  29.3210  0.00  0.00     0.000 C
ATOM    123  C4  SGN B   7      14.110  17.890  27.9760  0.00  0.00     0.000 C
ATOM    124  C5  SGN B   7      12.590  18.017  28.1710  0.00  0.00     0.000 C
ATOM    125  O5  SGN B   7      12.096  17.004  29.0760  0.00  0.00     0.000 O
ATOM    126   O  SGN B   7      16.223  17.772  29.1870  0.00  0.00     0.000 O
ATOM    128  HD  SGN B   7      15.487  17.579  29.6010  0.00  0.00     0.000 HD
BRANCH 121 130
ATOM    128   N  SGN B   7      14.188  16.669  31.7180  0.00  0.00     0.000 N
ATOM    130  HD  SGN B   7      13.937  15.854  31.5720  0.00  0.00     0.000 HD
ATOM    130   S  SGN B   7      15.286  15.765  32.4720  0.00  0.00     0.000 S
ATOM    131   O  SGN B   7      16.545  16.286  32.0600  0.00  0.00     0.000 OA
ATOM    132   O  SGN B   7      14.949  15.709  33.8490  0.00  0.00     0.000 OA
ATOM    133   O  SGN B   7      14.914  14.349  31.9160  0.00  0.00     0.000 OA
ENDBRANCH 121 130
BRANCH 124 134
ATOM    134   C  SGN B   7      11.798  17.825  26.9120  0.00  0.00     0.000 C
ATOM    135   O  SGN B   7      10.705  16.934  27.1890  0.00  0.00     0.000 O
ATOM    136   S  SGN B   7       9.662  16.724  26.0330  0.00  0.00     0.000 S
ATOM    137   O  SGN B   7       8.732  15.724  26.5020  0.00  0.00     0.000 OA
ATOM    138   O  SGN B   7      10.440  16.282  24.8980  0.00  0.00     0.000 OA
ATOM    139   O  SGN B   7       9.083  18.050  25.8880  0.00  0.00     0.000 OA
ENDBRANCH 124 134
BRANCH 120 140
ATOM    140  O4  IDS B   8      11.993  18.041  30.9020  0.00  0.00     0.000 O
BRANCH 140 144
ATOM    141  C1  IDS B   8      10.727  21.066  32.3880  0.00  0.00     0.000 C
ATOM    142  C2  IDS B   8      11.848  20.242  33.0830  0.00  0.00     0.000 C
ATOM    143  C3  IDS B   8      11.526  18.739  33.1700  0.00  0.00     0.000 C
ATOM    144  C4  IDS B   8      10.943  18.201  31.8640  0.00  0.00     0.000 C
ATOM    145  C5  IDS B   8       9.875  19.164  31.3250  0.00  0.00     0.000 C
ATOM    146  O5  IDS B   8      10.396  20.478  31.1360  0.00  0.00     0.000 O
BRANCH 142 147
ATOM    147   O  IDS B   8      13.112  20.377  32.3130  0.00  0.00     0.000 O
ATOM    148   S  IDS B   8      14.246  21.451  32.7500  0.00  0.00     0.000 S
ATOM    149   O  IDS B   8      13.631  22.395  33.6560  0.00  0.00     0.000 OA
ATOM    150   O  IDS B   8      15.296  20.672  33.3800  0.00  0.00     0.000 OA
ATOM    151   O  IDS B   8      14.670  22.083  31.5150  0.00  0.00     0.000 OA
ENDBRANCH 142 147
BRANCH 145 152
ATOM    152   C  IDS B   8       9.329  18.735  29.9780  0.00  0.00     0.000 C
ATOM    153   O  IDS B   8       9.403  19.501  29.0240  0.00  0.00     0.000 OA
ATOM    154   O  IDS B   8       8.840  17.626  29.8520  0.00  0.00     0.000 OA
ENDBRANCH 145 152
ENDBRANCH 140 144
ENDBRANCH 120 140
ENDBRANCH 119 123
ENDBRANCH 103 119
ENDBRANCH 102 106
ENDBRANCH 82 102
ENDBRANCH 81 85
ENDBRANCH 65 81
ENDBRANCH 64 68
ENDBRANCH 41 64
ENDBRANCH 40 44
ENDBRANCH 24 40
ENDBRANCH 23 27
ENDBRANCH 1 23
TORSDOF 31
ENDMDL
MODEL 11
REMARK VINA RESULT:      -6.3      4.201      6.768
ROOT
ATOM      1  C1  SGN B   1      29.066  12.202  13.2490  0.00  0.00     0.000 C
ATOM      2  C2  SGN B   1      29.737  11.351  14.3390  0.00  0.00     0.000 C
ATOM      3  C3  SGN B   1      29.636  12.040  15.7040  0.00  0.00     0.000 C
ATOM      4  C4  SGN B   1      30.229  13.443  15.6310  0.00  0.00     0.000 C
ATOM      5  C5  SGN B   1      29.619  14.180  14.4400  0.00  0.00     0.000 C
ATOM      6  O5  SGN B   1      29.819  13.407  13.2410  0.00  0.00     0.000 O
ATOM      7   O  SGN B   1      30.297  11.271  16.7020  0.00  0.00     0.000 O
ATOM      9  HD  SGN B   1      30.947  11.451  16.1590  0.00  0.00     0.000 HD
ATOM      9   O  SGN B   1      29.946  14.137  16.8320  0.00  0.00     0.000 O
ATOM     11  HD  SGN B   1      30.596  14.317  16.2890  0.00  0.00     0.000 HD
ENDROOT
BRANCH 2 13
ATOM     11   N  SGN B   1      30.230  10.096  13.7400  0.00  0.00     0.000 N
ATOM     13  HD  SGN B   1      29.464  10.426  13.5040  0.00  0.00     0.000 HD
ATOM     13   S  SGN B   1      29.235   8.956  13.1930  0.00  0.00     0.000 S
ATOM     14   O  SGN B   1      27.895   9.373  13.3330  0.00  0.00     0.000 OA
ATOM     15   O  SGN B   1      29.704   8.522  11.9200  0.00  0.00     0.000 OA
ATOM     16   O  SGN B   1      29.593   7.838  14.2200  0.00  0.00     0.000 OA
ENDBRANCH 2 13
BRANCH 5 17
ATOM     17   C  SGN B   1      30.209  15.547  14.1970  0.00  0.00     0.000 C
ATOM     18   O  SGN B   1      29.990  16.412  15.3300  0.00  0.00     0.000 O
ATOM     19   S  SGN B   1      29.484  17.891  14.9950  0.00  0.00     0.000 S
ATOM     20   O  SGN B   1      29.569  18.610  16.2490  0.00  0.00     0.000 OA
ATOM     21   O  SGN B   1      30.411  18.363  13.9940  0.00  0.00     0.000 OA
ATOM     22   O  SGN B   1      28.130  17.727  14.5120  0.00  0.00     0.000 OA
ENDBRANCH 5 17
BRANCH 1 23
ATOM     23  O4  IDS B   2      27.853  12.385  12.6530  0.00  0.00     0.000 O
BRANCH 23 27
ATOM     24  C1  IDS B   2      25.327  14.640  15.0540  0.00  0.00     0.000 C
ATOM     25  C2  IDS B   2      25.103  13.112  15.1000  0.00  0.00     0.000 C
ATOM     26  C3  IDS B   2      26.256  12.371  14.4280  0.00  0.00     0.000 C
ATOM     27  C4  IDS B   2      26.527  12.833  13.0030  0.00  0.00     0.000 C
ATOM     28  C5  IDS B   2      26.319  14.357  12.8950  0.00  0.00     0.000 C
ATOM     29  O5  IDS B   2      26.406  14.973  14.1710  0.00  0.00     0.000 O
ATOM     30   O  IDS B   2      25.954  10.981  14.3790  0.00  0.00     0.000 O
ATOM     32  HD  IDS B   2      25.408  10.773  13.7400  0.00  0.00     0.000 HD
BRANCH 25 32
ATOM     32   O  IDS B   2      24.991  12.602  16.4890  0.00  0.00     0.000 O
ATOM     33   S  IDS B   2      23.683  11.735  16.9960  0.00  0.00     0.000 S
ATOM     34   O  IDS B   2      23.816  11.607  18.4390  0.00  0.00     0.000 OA
ATOM     35   O  IDS B   2      22.463  12.443  16.6350  0.00  0.00     0.000 OA
ATOM     36   O  IDS B   2      23.788  10.451  16.3430  0.00  0.00     0.000 OA
ENDBRANCH 25 32
BRANCH 28 37
ATOM     37   C  IDS B   2      27.220  15.139  11.9170  0.00  0.00     0.000 C
ATOM     38   O  IDS B   2      27.381  14.563  10.8660  0.00  0.00     0.000 OA
ATOM     39   O  IDS B   2      27.711  16.281  12.0910  0.00  0.00     0.000 OA
ENDBRANCH 28 37
BRANCH 24 40
ATOM     40  O4  SUS B   3      24.383  15.473  15.5390  0.00  0.00     0.000 O
BRANCH 40 44
ATOM     41  C1  SUS B   3      24.735  19.316  17.1670  0.00  0.00     0.000 C
ATOM     42  C2  SUS B   3      24.884  19.182  15.6380  0.00  0.00     0.000 C
ATOM     43  C3  SUS B   3      24.265  17.861  15.1860  0.00  0.00     0.000 C
ATOM     44  C4  SUS B   3      24.902  16.725  15.9720  0.00  0.00     0.000 C
ATOM     45  C5  SUS B   3      24.608  16.923  17.4450  0.00  0.00     0.000 C
ATOM     46  O5  SUS B   3      25.216  18.161  17.8630  0.00  0.00     0.000 O
BRANCH 42 49
ATOM     47   N  SUS B   3      25.929  19.882  14.8720  0.00  0.00     0.000 N
ATOM     49  HD  SUS B   3      26.700  19.967  15.2570  0.00  0.00     0.000 HD
ATOM     49   S  SUS B   3      25.462  21.329  14.3690  0.00  0.00     0.000 S
ATOM     50   O  SUS B   3      25.075  22.118  15.4710  0.00  0.00     0.000 OA
ATOM     51   O  SUS B   3      26.841  21.785  13.8280  0.00  0.00     0.000 OA
ATOM     52   O  SUS B   3      24.538  21.182  13.3150  0.00  0.00     0.000 OA
ENDBRANCH 42 49
BRANCH 43 53
ATOM     53   O  SUS B   3      24.547  17.695  13.7470  0.00  0.00     0.000 O
ATOM     54   S  SUS B   3      23.262  17.422  12.7590  0.00  0.00     0.000 S
ATOM     55   O  SUS B   3      22.504  18.662  12.6750  0.00  0.00     0.000 OA
ATOM     56   O  SUS B   3      23.866  17.017  11.5010  0.00  0.00     0.000 OA
ATOM     57   O  SUS B   3      22.473  16.359  13.3890  0.00  0.00     0.000 OA
ENDBRANCH 43 53
BRANCH 45 58
ATOM     58   C  SUS B   3      25.126  15.776  18.2850  0.00  0.00     0.000 C
ATOM     59   S  SUS B   3      24.803  14.603  20.5450  0.00  0.00     0.000 S
ATOM     60   O  SUS B   3      24.287  15.616  19.4420  0.00  0.00     0.000 O
ATOM     61   O  SUS B   3      25.833  15.323  21.2690  0.00  0.00     0.000 OA
ATOM     62   O  SUS B   3      23.605  14.419  21.3190  0.00  0.00     0.000 OA
ATOM     63   O  SUS B   3      25.248  13.459  19.8320  0.00  0.00     0.000 OA
ENDBRANCH 45 58
BRANCH 41 64
ATOM     64  O4  IDS B   4      23.489  19.735  17.5670  0.00  0.00     0.000 O
BRANCH 64 68
ATOM     65  C1  IDS B   4      21.108  21.725  19.4750  0.00  0.00     0.000 C
ATOM     66  C2  IDS B   4      22.399  22.363  18.9470  0.00  0.00     0.000 C
ATOM     67  C3  IDS B   4      23.652  21.539  19.1930  0.00  0.00     0.000 C
ATOM     68  C4  IDS B   4      23.434  20.054  18.9740  0.00  0.00     0.000 C
ATOM     69  C5  IDS B   4      22.107  19.664  19.6380  0.00  0.00     0.000 C
ATOM     70  O5  IDS B   4      21.040  20.386  19.0180  0.00  0.00     0.000 O
ATOM     71   O  IDS B   4      24.051  21.772  20.5280  0.00  0.00     0.000 O
ATOM     73  HD  IDS B   4      23.624  21.939  19.7930  0.00  0.00     0.000 HD
BRANCH 66 73
ATOM     73   O  IDS B   4      22.298  22.495  17.4870  0.00  0.00     0.000 O
ATOM     74   S  IDS B   4      22.118  23.980  16.8700  0.00  0.00     0.000 S
ATOM     75   O  IDS B   4      20.938  24.541  17.4920  0.00  0.00     0.000 OA
ATOM     76   O  IDS B   4      21.965  23.701  15.4650  0.00  0.00     0.000 OA
ATOM     77   O  IDS B   4      23.331  24.686  17.2070  0.00  0.00     0.000 OA
ENDBRANCH 66 73
BRANCH 69 78
ATOM     78   C  IDS B   4      21.850  18.164  19.6980  0.00  0.00     0.000 C
ATOM     79   O  IDS B   4      21.362  17.608  18.7140  0.00  0.00     0.000 OA
ATOM     80   O  IDS B   4      22.239  17.532  20.6970  0.00  0.00     0.000 OA
ENDBRANCH 69 78
BRANCH 65 81
ATOM     81  O4  SGN B   5      21.025  21.919  20.8200  0.00  0.00     0.000 O
BRANCH 81 85
ATOM     82  C1  SGN B   5      18.323  21.272  23.9710  0.00  0.00     0.000 C
ATOM     83  C2  SGN B   5      19.628  20.461  23.9920  0.00  0.00     0.000 C
ATOM     84  C3  SGN B   5      20.664  21.131  23.0800  0.00  0.00     0.000 C
ATOM     85  C4  SGN B   5      20.080  21.286  21.6870  0.00  0.00     0.000 C
ATOM     86  C5  SGN B   5      18.809  22.125  21.7910  0.00  0.00     0.000 C
ATOM     87  O5  SGN B   5      17.870  21.438  22.6400  0.00  0.00     0.000 O
ATOM     88   O  SGN B   5      21.846  20.361  23.0500  0.00  0.00     0.000 O
ATOM     90  HD  SGN B   5      21.731  21.086  23.5100  0.00  0.00     0.000 HD
BRANCH 83 92
ATOM     90   N  SGN B   5      18.967  20.023  25.2370  0.00  0.00     0.000 N
ATOM     92  HD  SGN B   5      18.124  19.875  25.1050  0.00  0.00     0.000 HD
ATOM     92   S  SGN B   5      19.712  18.935  26.1400  0.00  0.00     0.000 S
ATOM     93   O  SGN B   5      18.826  18.725  27.2450  0.00  0.00     0.000 OA
ATOM     94   O  SGN B   5      20.029  17.858  25.2660  0.00  0.00     0.000 OA
ATOM     95   O  SGN B   5      21.015  19.593  26.5370  0.00  0.00     0.000 OA
ENDBRANCH 83 92
BRANCH 86 96
ATOM     96   C  SGN B   5      18.119  22.374  20.4650  0.00  0.00     0.000 C
ATOM     97   O  SGN B   5      17.668  21.143  19.8960  0.00  0.00     0.000 O
ATOM     98   S  SGN B   5      16.134  21.101  19.4290  0.00  0.00     0.000 S
ATOM     99   O  SGN B   5      16.048  19.841  18.7310  0.00  0.00     0.000 OA
ATOM    100   O  SGN B   5      15.331  21.188  20.5950  0.00  0.00     0.000 OA
ATOM    101   O  SGN B   5      15.993  22.233  18.5720  0.00  0.00     0.000 OA
ENDBRANCH 86 96
BRANCH 82 102
ATOM    102  O4  IDS B   6      18.449  22.483  24.5840  0.00  0.00     0.000 O
BRANCH 102 106
ATOM    103  C1  IDS B   6      17.178  24.721  27.1600  0.00  0.00     0.000 C
ATOM    104  C2  IDS B   6      16.941  23.205  27.2490  0.00  0.00     0.000 C
ATOM    105  C3  IDS B   6      16.448  22.556  25.9700  0.00  0.00     0.000 C
ATOM    106  C4  IDS B   6      17.143  23.096  24.7320  0.00  0.00     0.000 C
ATOM    107  C5  IDS B   6      17.264  24.619  24.8300  0.00  0.00     0.000 C
ATOM    108  O5  IDS B   6      17.952  25.024  26.0150  0.00  0.00     0.000 O
ATOM    109   O  IDS B   6      15.046  22.753  25.8870  0.00  0.00     0.000 O
ATOM    111  HD  IDS B   6      14.903  23.447  26.3850  0.00  0.00     0.000 HD
BRANCH 104 111
ATOM    111   O  IDS B   6      18.215  22.537  27.5570  0.00  0.00     0.000 O
ATOM    112   S  IDS B   6      18.423  21.956  29.0340  0.00  0.00     0.000 S
ATOM    113   O  IDS B   6      18.265  23.109  29.9070  0.00  0.00     0.000 OA
ATOM    114   O  IDS B   6      17.445  20.884  29.2530  0.00  0.00     0.000 OA
ATOM    115   O  IDS B   6      19.788  21.494  28.9130  0.00  0.00     0.000 OA
ENDBRANCH 104 111
BRANCH 107 116
ATOM    116   C  IDS B   6      17.994  25.147  23.6020  0.00  0.00     0.000 C
ATOM    117   O  IDS B   6      17.362  25.202  22.5780  0.00  0.00     0.000 OA
ATOM    118   O  IDS B   6      19.165  25.487  23.6570  0.00  0.00     0.000 OA
ENDBRANCH 107 116
BRANCH 103 119
ATOM    119  O4  SGN B   7      15.941  25.250  27.3370  0.00  0.00     0.000 O
BRANCH 119 123
ATOM    120  C1  SGN B   7      14.394  28.914  28.6300  0.00  0.00     0.000 C
ATOM    121  C2  SGN B   7      14.724  28.768  27.1330  0.00  0.00     0.000 C
ATOM    122  C3  SGN B   7      14.886  27.289  26.7600  0.00  0.00     0.000 C
ATOM    123  C4  SGN B   7      15.904  26.636  27.6810  0.00  0.00     0.000 C
ATOM    124  C5  SGN B   7      15.490  26.843  29.1470  0.00  0.00     0.000 C
ATOM    125  O5  SGN B   7      15.350  28.248  29.4540  0.00  0.00     0.000 O
ATOM    126   O  SGN B   7      15.288  27.195  25.3890  0.00  0.00     0.000 O
ATOM    128  HD  SGN B   7      14.997  27.689  26.0380  0.00  0.00     0.000 HD
BRANCH 121 130
ATOM    128   N  SGN B   7      13.865  29.949  27.0150  0.00  0.00     0.000 N
ATOM    130  HD  SGN B   7      14.554  30.467  27.1060  0.00  0.00     0.000 HD
ATOM    130   S  SGN B   7      13.854  30.875  25.6980  0.00  0.00     0.000 S
ATOM    131   O  SGN B   7      13.685  29.973  24.6100  0.00  0.00     0.000 OA
ATOM    132   O  SGN B   7      12.929  31.931  25.9030  0.00  0.00     0.000 OA
ATOM    133   O  SGN B   7      15.261  31.552  25.8180  0.00  0.00     0.000 OA
ENDBRANCH 121 130
BRANCH 124 134
ATOM    134   C  SGN B   7      16.493  26.332  30.1390  0.00  0.00     0.000 C
ATOM    135   O  SGN B   7      16.013  26.618  31.4640  0.00  0.00     0.000 O
ATOM    136   S  SGN B   7      16.850  26.025  32.6540  0.00  0.00     0.000 S
ATOM    137   O  SGN B   7      16.244  26.525  33.8650  0.00  0.00     0.000 OA
ATOM    138   O  SGN B   7      18.195  26.516  32.4520  0.00  0.00     0.000 OA
ATOM    139   O  SGN B   7      16.696  24.592  32.4620  0.00  0.00     0.000 OA
ENDBRANCH 124 134
BRANCH 120 140
ATOM    140  O4  IDS B   8      13.277  28.546  29.2670  0.00  0.00     0.000 O
BRANCH 140 144
ATOM    141  C1  IDS B   8      10.061  28.223  30.8530  0.00  0.00     0.000 C
ATOM    142  C2  IDS B   8      11.368  27.862  31.6150  0.00  0.00     0.000 C
ATOM    143  C3  IDS B   8      12.307  26.950  30.8040  0.00  0.00     0.000 C
ATOM    144  C4  IDS B   8      12.424  27.397  29.3480  0.00  0.00     0.000 C
ATOM    145  C5  IDS B   8      11.035  27.731  28.7830  0.00  0.00     0.000 C
ATOM    146  O5  IDS B   8      10.375  28.728  29.5610  0.00  0.00     0.000 O
BRANCH 142 147
ATOM    147   O  IDS B   8      12.122  29.106  31.9230  0.00  0.00     0.000 O
ATOM    148   S  IDS B   8      13.134  29.178  33.1890  0.00  0.00     0.000 S
ATOM    149   O  IDS B   8      12.831  28.063  34.0570  0.00  0.00     0.000 OA
ATOM    150   O  IDS B   8      14.468  29.103  32.6230  0.00  0.00     0.000 OA
ATOM    151   O  IDS B   8      12.858  30.451  33.8270  0.00  0.00     0.000 OA
ENDBRANCH 142 147
BRANCH 145 152
ATOM    152   C  IDS B   8      11.095  28.277  27.3710  0.00  0.00     0.000 C
ATOM    153   O  IDS B   8      11.473  27.551  26.4580  0.00  0.00     0.000 OA
ATOM    154   O  IDS B   8      10.747  29.424  27.1530  0.00  0.00     0.000 OA
ENDBRANCH 145 152
ENDBRANCH 140 144
ENDBRANCH 120 140
ENDBRANCH 119 123
ENDBRANCH 103 119
ENDBRANCH 102 106
ENDBRANCH 82 102
ENDBRANCH 81 85
ENDBRANCH 65 81
ENDBRANCH 64 68
ENDBRANCH 41 64
ENDBRANCH 40 44
ENDBRANCH 24 40
ENDBRANCH 23 27
ENDBRANCH 1 23
TORSDOF 31
ENDMDL
MODEL 12
REMARK VINA RESULT:      -6.2     11.176     15.592
ROOT
ATOM      1  C1  SGN B   1      37.895  17.451  27.8540  0.00  0.00     0.000 C
ATOM      2  C2  SGN B   1      38.776  18.048  26.7450  0.00  0.00     0.000 C
ATOM      3  C3  SGN B   1      38.853  17.099  25.5430  0.00  0.00     0.000 C
ATOM      4  C4  SGN B   1      39.347  15.726  25.9870  0.00  0.00     0.000 C
ATOM      5  C5  SGN B   1      38.517  15.260  27.1820  0.00  0.00     0.000 C
ATOM      6  O5  SGN B   1      38.569  16.255  28.2220  0.00  0.00     0.000 O
ATOM      7   O  SGN B   1      39.704  17.634  24.5370  0.00  0.00     0.000 O
ATOM      9  HD  SGN B   1      40.250  17.553  25.2050  0.00  0.00     0.000 HD
ATOM      9   O  SGN B   1      39.218  14.810  24.9150  0.00  0.00     0.000 O
ATOM     11  HD  SGN B   1      39.764  14.729  25.5830  0.00  0.00     0.000 HD
ENDROOT
BRANCH 2 13
ATOM     11   N  SGN B   1      39.156  19.319  27.3880  0.00  0.00     0.000 N
ATOM     13  HD  SGN B   1      38.322  19.119  27.2680  0.00  0.00     0.000 HD
ATOM     13   S  SGN B   1      38.236  20.636  27.3010  0.00  0.00     0.000 S
ATOM     14   O  SGN B   1      37.051  20.353  26.5890  0.00  0.00     0.000 OA
ATOM     15   O  SGN B   1      38.151  21.213  28.6000  0.00  0.00     0.000 OA
ATOM     16   O  SGN B   1      39.202  21.528  26.4630  0.00  0.00     0.000 OA
ENDBRANCH 2 13
BRANCH 5 17
ATOM     17   C  SGN B   1      38.984  13.957  27.7820  0.00  0.00     0.000 C
ATOM     18   O  SGN B   1      38.173  12.858  27.3220  0.00  0.00     0.000 O
ATOM     19   S  SGN B   1      37.699  11.819  28.4420  0.00  0.00     0.000 S
ATOM     20   O  SGN B   1      37.119  10.714  27.7070  0.00  0.00     0.000 OA
ATOM     21   O  SGN B   1      38.916  11.474  29.1390  0.00  0.00     0.000 OA
ATOM     22   O  SGN B   1      36.743  12.544  29.2500  0.00  0.00     0.000 OA
ENDBRANCH 5 17
BRANCH 1 23
ATOM     23  O4  IDS B   2      36.596  17.420  28.2660  0.00  0.00     0.000 O
BRANCH 23 27
ATOM     24  C1  IDS B   2      33.049  17.707  30.4040  0.00  0.00     0.000 C
ATOM     25  C2  IDS B   2      33.239  18.753  29.2830  0.00  0.00     0.000 C
ATOM     26  C3  IDS B   2      34.412  18.379  28.3810  0.00  0.00     0.000 C
ATOM     27  C4  IDS B   2      35.714  18.159  29.1380  0.00  0.00     0.000 C
ATOM     28  C5  IDS B   2      35.429  17.471  30.4880  0.00  0.00     0.000 C
ATOM     29  O5  IDS B   2      34.170  16.816  30.4680  0.00  0.00     0.000 O
ATOM     30   O  IDS B   2      34.632  19.426  27.4420  0.00  0.00     0.000 O
ATOM     32  HD  IDS B   2      35.064  20.098  27.7750  0.00  0.00     0.000 HD
BRANCH 25 32
ATOM     32   O  IDS B   2      32.035  18.880  28.4250  0.00  0.00     0.000 O
ATOM     33   S  IDS B   2      31.218  20.306  28.2750  0.00  0.00     0.000 S
ATOM     34   O  IDS B   2      29.994  19.997  27.5530  0.00  0.00     0.000 OA
ATOM     35   O  IDS B   2      30.935  20.843  29.5990  0.00  0.00     0.000 OA
ATOM     36   O  IDS B   2      32.081  21.171  27.5040  0.00  0.00     0.000 OA
ENDBRANCH 25 32
BRANCH 28 37
ATOM     37   C  IDS B   2      36.483  16.483  31.0300  0.00  0.00     0.000 C
ATOM     38   O  IDS B   2      37.253  16.998  31.8050  0.00  0.00     0.000 OA
ATOM     39   O  IDS B   2      36.555  15.252  30.7930  0.00  0.00     0.000 OA
ENDBRANCH 28 37
BRANCH 24 40
ATOM     40  O4  SUS B   3      32.103  17.896  31.3470  0.00  0.00     0.000 O
BRANCH 40 44
ATOM     41  C1  SUS B   3      29.588  15.138  33.2500  0.00  0.00     0.000 C
ATOM     42  C2  SUS B   3      31.058  15.187  33.7120  0.00  0.00     0.000 C
ATOM     43  C3  SUS B   3      31.675  16.517  33.2860  0.00  0.00     0.000 C
ATOM     44  C4  SUS B   3      31.493  16.687  31.7860  0.00  0.00     0.000 C
ATOM     45  C5  SUS B   3      30.011  16.714  31.4720  0.00  0.00     0.000 C
ATOM     46  O5  SUS B   3      29.446  15.445  31.8580  0.00  0.00     0.000 O
BRANCH 42 49
ATOM     47   N  SUS B   3      30.946  13.778  34.1240  0.00  0.00     0.000 N
ATOM     49  HD  SUS B   3      30.145  13.460  34.2040  0.00  0.00     0.000 HD
ATOM     49   S  SUS B   3      31.742  13.466  35.4790  0.00  0.00     0.000 S
ATOM     50   O  SUS B   3      31.274  14.301  36.5140  0.00  0.00     0.000 OA
ATOM     51   O  SUS B   3      31.219  12.019  35.6660  0.00  0.00     0.000 OA
ATOM     52   O  SUS B   3      33.127  13.464  35.2180  0.00  0.00     0.000 OA
ENDBRANCH 42 49
BRANCH 43 53
ATOM     53   O  SUS B   3      33.113  16.478  33.6150  0.00  0.00     0.000 O
ATOM     54   S  SUS B   3      33.646  17.515  34.7740  0.00  0.00     0.000 S
ATOM     55   O  SUS B   3      33.133  17.042  36.0520  0.00  0.00     0.000 OA
ATOM     56   O  SUS B   3      35.092  17.453  34.6640  0.00  0.00     0.000 OA
ATOM     57   O  SUS B   3      33.097  18.832  34.4370  0.00  0.00     0.000 OA
ENDBRANCH 43 53
BRANCH 45 58
ATOM     58   C  SUS B   3      29.747  16.981  30.0060  0.00  0.00     0.000 C
ATOM     59   S  SUS B   3      29.238  15.800  27.7850  0.00  0.00     0.000 S
ATOM     60   O  SUS B   3      29.347  15.758  29.3650  0.00  0.00     0.000 O
ATOM     61   O  SUS B   3      30.606  15.719  27.3090  0.00  0.00     0.000 OA
ATOM     62   O  SUS B   3      28.490  14.597  27.5360  0.00  0.00     0.000 OA
ATOM     63   O  SUS B   3      28.560  17.011  27.4830  0.00  0.00     0.000 OA
ENDBRANCH 45 58
BRANCH 41 64
ATOM     64  O4  IDS B   4      28.728  15.827  34.0680  0.00  0.00     0.000 O
BRANCH 64 68
ATOM     65  C1  IDS B   4      25.799  15.311  36.1730  0.00  0.00     0.000 C
ATOM     66  C2  IDS B   4      26.566  14.109  35.6080  0.00  0.00     0.000 C
ATOM     67  C3  IDS B   4      26.903  14.217  34.1310  0.00  0.00     0.000 C
ATOM     68  C4  IDS B   4      27.341  15.612  33.7260  0.00  0.00     0.000 C
ATOM     69  C5  IDS B   4      26.386  16.620  34.3800  0.00  0.00     0.000 C
ATOM     70  O5  IDS B   4      26.475  16.499  35.8020  0.00  0.00     0.000 O
ATOM     71   O  IDS B   4      25.745  13.852  33.4080  0.00  0.00     0.000 O
ATOM     73  HD  IDS B   4      26.256  13.898  34.1060  0.00  0.00     0.000 HD
BRANCH 66 73
ATOM     73   O  IDS B   4      27.859  14.006  36.2980  0.00  0.00     0.000 O
ATOM     74   S  IDS B   4      27.978  12.970  37.5340  0.00  0.00     0.000 S
ATOM     75   O  IDS B   4      26.950  13.342  38.4820  0.00  0.00     0.000 OA
ATOM     76   O  IDS B   4      29.321  13.215  37.9980  0.00  0.00     0.000 OA
ATOM     77   O  IDS B   4      27.779  11.660  36.9600  0.00  0.00     0.000 OA
ENDBRANCH 66 73
BRANCH 69 78
ATOM     78   C  IDS B   4      26.557  18.054  33.8960  0.00  0.00     0.000 C
ATOM     79   O  IDS B   4      25.639  18.852  34.0780  0.00  0.00     0.000 OA
ATOM     80   O  IDS B   4      27.658  18.397  33.4280  0.00  0.00     0.000 OA
ENDBRANCH 69 78
BRANCH 65 81
ATOM     81  O4  SGN B   5      24.486  15.217  35.8210  0.00  0.00     0.000 O
BRANCH 81 85
ATOM     82  C1  SGN B   5      20.573  15.813  37.2260  0.00  0.00     0.000 C
ATOM     83  C2  SGN B   5      21.319  17.046  36.6930  0.00  0.00     0.000 C
ATOM     84  C3  SGN B   5      22.497  16.595  35.8180  0.00  0.00     0.000 C
ATOM     85  C4  SGN B   5      23.386  15.659  36.6190  0.00  0.00     0.000 C
ATOM     86  C5  SGN B   5      22.544  14.469  37.0710  0.00  0.00     0.000 C
ATOM     87  O5  SGN B   5      21.470  14.951  37.9010  0.00  0.00     0.000 O
ATOM     88   O  SGN B   5      23.221  17.721  35.3720  0.00  0.00     0.000 O
ATOM     90  HD  SGN B   5      22.652  17.270  34.9000  0.00  0.00     0.000 HD
BRANCH 83 92
ATOM     90   N  SGN B   5      20.114  17.738  36.1940  0.00  0.00     0.000 N
ATOM     92  HD  SGN B   5      19.446  17.190  36.1300  0.00  0.00     0.000 HD
ATOM     92   S  SGN B   5      19.760  19.169  36.8100  0.00  0.00     0.000 S
ATOM     93   O  SGN B   5      18.559  19.558  36.1350  0.00  0.00     0.000 OA
ATOM     94   O  SGN B   5      19.760  18.992  38.2220  0.00  0.00     0.000 OA
ATOM     95   O  SGN B   5      20.948  20.041  36.4650  0.00  0.00     0.000 OA
ENDBRANCH 83 92
BRANCH 86 96
ATOM     96   C  SGN B   5      23.309  13.438  37.8760  0.00  0.00     0.000 C
ATOM     97   O  SGN B   5      22.808  12.125  37.6160  0.00  0.00     0.000 O
ATOM     98   S  SGN B   5      23.900  11.016  37.2290  0.00  0.00     0.000 S
ATOM     99   O  SGN B   5      23.129   9.796  37.2330  0.00  0.00     0.000 OA
ATOM    100   O  SGN B   5      24.439  11.372  35.9660  0.00  0.00     0.000 OA
ATOM    101   O  SGN B   5      24.860  11.082  38.2820  0.00  0.00     0.000 OA
ENDBRANCH 86 96
BRANCH 82 102
ATOM    102  O4  IDS B   6      19.912  15.136  36.2450  0.00  0.00     0.000 O
BRANCH 102 106
ATOM    103  C1  IDS B   6      16.945  13.945  34.5020  0.00  0.00     0.000 C
ATOM    104  C2  IDS B   6      17.030  15.394  35.0090  0.00  0.00     0.000 C
ATOM    105  C3  IDS B   6      17.519  15.548  36.4360  0.00  0.00     0.000 C
ATOM    106  C4  IDS B   6      18.666  14.609  36.7680  0.00  0.00     0.000 C
ATOM    107  C5  IDS B   6      18.379  13.219  36.1940  0.00  0.00     0.000 C
ATOM    108  O5  IDS B   6      18.151  13.261  34.7840  0.00  0.00     0.000 O
ATOM    109   O  IDS B   6      16.420  15.328  37.3050  0.00  0.00     0.000 O
ATOM    111  HD  IDS B   6      15.872  14.853  36.8310  0.00  0.00     0.000 HD
BRANCH 104 111
ATOM    111   O  IDS B   6      17.999  16.133  34.1850  0.00  0.00     0.000 O
ATOM    112   S  IDS B   6      17.432  17.120  33.0590  0.00  0.00     0.000 S
ATOM    113   O  IDS B   6      16.625  16.269  32.1990  0.00  0.00     0.000 OA
ATOM    114   O  IDS B   6      16.692  18.201  33.7200  0.00  0.00     0.000 OA
ATOM    115   O  IDS B   6      18.683  17.539  32.4640  0.00  0.00     0.000 OA
ENDBRANCH 104 111
BRANCH 107 116
ATOM    116   C  IDS B   6      19.550  12.295  36.5010  0.00  0.00     0.000 C
ATOM    117   O  IDS B   6      20.295  12.042  35.5880  0.00  0.00     0.000 OA
ATOM    118   O  IDS B   6      19.716  11.829  37.6170  0.00  0.00     0.000 OA
ENDBRANCH 107 116
BRANCH 103 119
ATOM    119  O4  SGN B   7      15.754  13.506  34.9850  0.00  0.00     0.000 O
BRANCH 119 123
ATOM    120  C1  SGN B   7      12.964  10.570  33.9420  0.00  0.00     0.000 C
ATOM    121  C2  SGN B   7      14.191  10.129  34.7630  0.00  0.00     0.000 C
ATOM    122  C3  SGN B   7      14.881  11.345  35.3940  0.00  0.00     0.000 C
ATOM    123  C4  SGN B   7      15.196  12.372  34.3200  0.00  0.00     0.000 C
ATOM    124  C5  SGN B   7      13.914  12.740  33.5560  0.00  0.00     0.000 C
ATOM    125  O5  SGN B   7      13.299  11.567  32.9780  0.00  0.00     0.000 O
ATOM    126   O  SGN B   7      16.069  10.910  36.0650  0.00  0.00     0.000 O
ATOM    128  HD  SGN B   7      15.331  10.698  35.6660  0.00  0.00     0.000 HD
BRANCH 121 130
ATOM    128   N  SGN B   7      13.386   8.918  34.9360  0.00  0.00     0.000 N
ATOM    130  HD  SGN B   7      13.816   8.531  34.2910  0.00  0.00     0.000 HD
ATOM    130   S  SGN B   7      13.983   7.575  35.5950  0.00  0.00     0.000 S
ATOM    131   O  SGN B   7      14.595   7.997  36.8080  0.00  0.00     0.000 OA
ATOM    132   O  SGN B   7      12.960   6.593  35.6110  0.00  0.00     0.000 OA
ATOM    133   O  SGN B   7      14.957   7.114  34.4580  0.00  0.00     0.000 OA
ENDBRANCH 121 130
BRANCH 124 134
ATOM    134   C  SGN B   7      14.141  13.664  32.3960  0.00  0.00     0.000 C
ATOM    135   O  SGN B   7      13.591  13.059  31.2140  0.00  0.00     0.000 O
ATOM    136   S  SGN B   7      13.591  13.939  29.9130  0.00  0.00     0.000 S
ATOM    137   O  SGN B   7      13.095  13.095  28.8520  0.00  0.00     0.000 OA
ATOM    138   O  SGN B   7      14.968  14.334  29.7230  0.00  0.00     0.000 OA
ATOM    139   O  SGN B   7      12.696  15.028  30.2710  0.00  0.00     0.000 OA
ENDBRANCH 124 134
BRANCH 120 140
ATOM    140  O4  IDS B   8      11.817  11.091  34.3920  0.00  0.00     0.000 O
BRANCH 140 144
ATOM    141  C1  IDS B   8       9.009  11.296  36.6350  0.00  0.00     0.000 C
ATOM    142  C2  IDS B   8       9.628   9.922  36.2520  0.00  0.00     0.000 C
ATOM    143  C3  IDS B   8       9.832   9.753  34.7350  0.00  0.00     0.000 C
ATOM    144  C4  IDS B   8      10.418  11.009  34.0930  0.00  0.00     0.000 C
ATOM    145  C5  IDS B   8       9.693  12.259  34.6150  0.00  0.00     0.000 C
ATOM    146  O5  IDS B   8       9.755  12.349  36.0360  0.00  0.00     0.000 O
BRANCH 142 147
ATOM    147   O  IDS B   8      10.962   9.783  36.8940  0.00  0.00     0.000 O
ATOM    148   S  IDS B   8      11.105   9.239  38.4150  0.00  0.00     0.000 S
ATOM    149   O  IDS B   8       9.804   9.332  39.0380  0.00  0.00     0.000 OA
ATOM    150   O  IDS B   8      11.574   7.871  38.2940  0.00  0.00     0.000 OA
ATOM    151   O  IDS B   8      12.072  10.118  39.0450  0.00  0.00     0.000 OA
ENDBRANCH 142 147
BRANCH 145 152
ATOM    152   C  IDS B   8      10.296  13.546  34.0890  0.00  0.00     0.000 C
ATOM    153   O  IDS B   8       9.995  13.940  32.9680  0.00  0.00     0.000 OA
ATOM    154   O  IDS B   8      11.057  14.185  34.7930  0.00  0.00     0.000 OA
ENDBRANCH 145 152
ENDBRANCH 140 144
ENDBRANCH 120 140
ENDBRANCH 119 123
ENDBRANCH 103 119
ENDBRANCH 102 106
ENDBRANCH 82 102
ENDBRANCH 81 85
ENDBRANCH 65 81
ENDBRANCH 64 68
ENDBRANCH 41 64
ENDBRANCH 40 44
ENDBRANCH 24 40
ENDBRANCH 23 27
ENDBRANCH 1 23
TORSDOF 31
ENDMDL
MODEL 13
REMARK VINA RESULT:      -6.2     11.197     15.320
ROOT
ATOM      1  C1  SGN B   1      35.724  17.145  30.9720  0.00  0.00     0.000 C
ATOM      2  C2  SGN B   1      35.924  15.650  30.6740  0.00  0.00     0.000 C
ATOM      3  C3  SGN B   1      34.792  14.818  31.2860  0.00  0.00     0.000 C
ATOM      4  C4  SGN B   1      34.688  15.092  32.7830  0.00  0.00     0.000 C
ATOM      5  C5  SGN B   1      34.635  16.601  33.0120  0.00  0.00     0.000 C
ATOM      6  O5  SGN B   1      35.777  17.222  32.3910  0.00  0.00     0.000 O
ATOM      7   O  SGN B   1      35.004  13.432  31.0460  0.00  0.00     0.000 O
ATOM      9  HD  SGN B   1      35.705  13.639  31.5100  0.00  0.00     0.000 HD
ATOM      9   O  SGN B   1      33.518  14.480  33.2930  0.00  0.00     0.000 O
ATOM     11  HD  SGN B   1      34.219  14.687  33.7570  0.00  0.00     0.000 HD
ENDROOT
BRANCH 2 13
ATOM     11   N  SGN B   1      37.171  15.655  29.8860  0.00  0.00     0.000 N
ATOM     13  HD  SGN B   1      36.503  16.157  29.6560  0.00  0.00     0.000 HD
ATOM     13   S  SGN B   1      37.192  15.989  28.3120  0.00  0.00     0.000 S
ATOM     14   O  SGN B   1      35.893  16.308  27.8660  0.00  0.00     0.000 OA
ATOM     15   O  SGN B   1      38.262  16.895  28.0590  0.00  0.00     0.000 OA
ATOM     16   O  SGN B   1      37.643  14.588  27.7930  0.00  0.00     0.000 OA
ENDBRANCH 2 13
BRANCH 5 17
ATOM     17   C  SGN B   1      34.641  17.002  34.4660  0.00  0.00     0.000 C
ATOM     18   O  SGN B   1      35.987  17.216  34.9360  0.00  0.00     0.000 O
ATOM     19   S  SGN B   1      36.347  16.570  36.3540  0.00  0.00     0.000 S
ATOM     20   O  SGN B   1      37.642  17.116  36.6970  0.00  0.00     0.000 OA
ATOM     21   O  SGN B   1      35.283  17.014  37.2230  0.00  0.00     0.000 OA
ATOM     22   O  SGN B   1      36.362  15.142  36.1240  0.00  0.00     0.000 OA
ENDBRANCH 5 17
BRANCH 1 23
ATOM     23  O4  IDS B   2      35.126  18.253  30.4490  0.00  0.00     0.000 O
BRANCH 23 27
ATOM     24  C1  IDS B   2      31.032  18.353  31.1310  0.00  0.00     0.000 C
ATOM     25  C2  IDS B   2      31.470  17.721  29.7910  0.00  0.00     0.000 C
ATOM     26  C3  IDS B   2      32.975  17.465  29.7740  0.00  0.00     0.000 C
ATOM     27  C4  IDS B   2      33.805  18.704  30.0820  0.00  0.00     0.000 C
ATOM     28  C5  IDS B   2      33.101  19.557  31.1560  0.00  0.00     0.000 C
ATOM     29  O5  IDS B   2      32.170  18.778  31.8930  0.00  0.00     0.000 O
ATOM     30   O  IDS B   2      33.356  17.002  28.4840  0.00  0.00     0.000 O
ATOM     32  HD  IDS B   2      33.428  17.637  27.9000  0.00  0.00     0.000 HD
BRANCH 25 32
ATOM     32   O  IDS B   2      30.792  16.427  29.5330  0.00  0.00     0.000 O
ATOM     33   S  IDS B   2      30.062  16.098  28.0910  0.00  0.00     0.000 S
ATOM     34   O  IDS B   2      29.326  14.858  28.2830  0.00  0.00     0.000 OA
ATOM     35   O  IDS B   2      29.173  17.195  27.7370  0.00  0.00     0.000 OA
ATOM     36   O  IDS B   2      31.136  15.930  27.1390  0.00  0.00     0.000 OA
ENDBRANCH 25 32
BRANCH 28 37
ATOM     37   C  IDS B   2      33.985  20.330  32.1570  0.00  0.00     0.000 C
ATOM     38   O  IDS B   2      34.616  21.218  31.6330  0.00  0.00     0.000 OA
ATOM     39   O  IDS B   2      34.046  20.161  33.3990  0.00  0.00     0.000 OA
ENDBRANCH 28 37
BRANCH 24 40
ATOM     40  O4  SUS B   3      29.746  18.717  31.3140  0.00  0.00     0.000 O
BRANCH 40 44
ATOM     41  C1  SUS B   3      27.404  18.720  34.7870  0.00  0.00     0.000 C
ATOM     42  C2  SUS B   3      28.420  19.868  34.6210  0.00  0.00     0.000 C
ATOM     43  C3  SUS B   3      28.813  19.982  33.1500  0.00  0.00     0.000 C
ATOM     44  C4  SUS B   3      29.323  18.632  32.6710  0.00  0.00     0.000 C
ATOM     45  C5  SUS B   3      28.208  17.614  32.7990  0.00  0.00     0.000 C
ATOM     46  O5  SUS B   3      27.862  17.499  34.1940  0.00  0.00     0.000 O
BRANCH 42 49
ATOM     47   N  SUS B   3      28.470  19.990  36.0880  0.00  0.00     0.000 N
ATOM     49  HD  SUS B   3      27.825  19.617  36.5300  0.00  0.00     0.000 HD
ATOM     49   S  SUS B   3      28.594  21.511  36.5770  0.00  0.00     0.000 S
ATOM     50   O  SUS B   3      27.514  22.265  36.0760  0.00  0.00     0.000 OA
ATOM     51   O  SUS B   3      28.407  21.229  38.0900  0.00  0.00     0.000 OA
ATOM     52   O  SUS B   3      29.896  21.981  36.3160  0.00  0.00     0.000 OA
ENDBRANCH 42 49
BRANCH 43 53
ATOM     53   O  SUS B   3      29.886  20.990  33.0430  0.00  0.00     0.000 O
ATOM     54   S  SUS B   3      29.538  22.371  32.2230  0.00  0.00     0.000 S
ATOM     55   O  SUS B   3      28.615  23.145  33.0410  0.00  0.00     0.000 OA
ATOM     56   O  SUS B   3      30.831  23.006  32.0380  0.00  0.00     0.000 OA
ATOM     57   O  SUS B   3      28.912  21.958  30.9630  0.00  0.00     0.000 OA
ENDBRANCH 43 53
BRANCH 45 58
ATOM     58   C  SUS B   3      28.608  16.263  32.2470  0.00  0.00     0.000 C
ATOM     59   S  SUS B   3      30.186  14.283  32.6630  0.00  0.00     0.000 S
ATOM     60   O  SUS B   3      29.495  15.613  33.1730  0.00  0.00     0.000 O
ATOM     61   O  SUS B   3      31.260  14.723  31.7920  0.00  0.00     0.000 OA
ATOM     62   O  SUS B   3      30.666  13.738  33.9040  0.00  0.00     0.000 OA
ATOM     63   O  SUS B   3      29.157  13.538  32.0300  0.00  0.00     0.000 OA
ENDBRANCH 45 58
BRANCH 41 64
ATOM     64  O4  IDS B   4      26.119  19.063  34.4450  0.00  0.00     0.000 O
BRANCH 64 68
ATOM     65  C1  IDS B   4      22.567  18.914  35.2420  0.00  0.00     0.000 C
ATOM     66  C2  IDS B   4      23.615  18.668  36.3350  0.00  0.00     0.000 C
ATOM     67  C3  IDS B   4      24.733  17.722  35.9300  0.00  0.00     0.000 C
ATOM     68  C4  IDS B   4      25.208  17.944  34.5070  0.00  0.00     0.000 C
ATOM     69  C5  IDS B   4      23.972  18.112  33.6120  0.00  0.00     0.000 C
ATOM     70  O5  IDS B   4      23.234  19.259  34.0410  0.00  0.00     0.000 O
ATOM     71   O  IDS B   4      24.239  16.405  36.0690  0.00  0.00     0.000 O
ATOM     73  HD  IDS B   4      24.248  17.261  36.2010  0.00  0.00     0.000 HD
BRANCH 66 73
ATOM     73   O  IDS B   4      24.276  19.941  36.6530  0.00  0.00     0.000 O
ATOM     74   S  IDS B   4      24.209  20.469  38.1810  0.00  0.00     0.000 S
ATOM     75   O  IDS B   4      22.806  20.550  38.5250  0.00  0.00     0.000 OA
ATOM     76   O  IDS B   4      24.864  21.749  38.0800  0.00  0.00     0.000 OA
ATOM     77   O  IDS B   4      24.932  19.491  38.9580  0.00  0.00     0.000 OA
ENDBRANCH 66 73
BRANCH 69 78
ATOM     78   C  IDS B   4      24.273  18.125  32.1200  0.00  0.00     0.000 C
ATOM     79   O  IDS B   4      25.157  18.872  31.7010  0.00  0.00     0.000 OA
ATOM     80   O  IDS B   4      23.690  17.305  31.3870  0.00  0.00     0.000 OA
ENDBRANCH 69 78
BRANCH 65 81
ATOM     81  O4  SGN B   5      21.712  17.856  35.1870  0.00  0.00     0.000 O
BRANCH 81 85
ATOM     82  C1  SGN B   5      17.740  16.748  34.3910  0.00  0.00     0.000 C
ATOM     83  C2  SGN B   5      18.547  17.338  33.2240  0.00  0.00     0.000 C
ATOM     84  C3  SGN B   5      20.046  17.248  33.5400  0.00  0.00     0.000 C
ATOM     85  C4  SGN B   5      20.321  17.936  34.8660  0.00  0.00     0.000 C
ATOM     86  C5  SGN B   5      19.486  17.251  35.9440  0.00  0.00     0.000 C
ATOM     87  O5  SGN B   5      18.093  17.385  35.6040  0.00  0.00     0.000 O
ATOM     88   O  SGN B   5      20.792  17.840  32.4990  0.00  0.00     0.000 O
ATOM     90  HD  SGN B   5      20.681  16.989  32.6160  0.00  0.00     0.000 HD
BRANCH 83 92
ATOM     90   N  SGN B   5      18.033  16.600  32.0540  0.00  0.00     0.000 N
ATOM     92  HD  SGN B   5      17.760  15.810  32.2800  0.00  0.00     0.000 HD
ATOM     92   S  SGN B   5      17.080  17.379  31.0340  0.00  0.00     0.000 S
ATOM     93   O  SGN B   5      16.756  16.404  30.0370  0.00  0.00     0.000 OA
ATOM     94   O  SGN B   5      16.050  17.954  31.8300  0.00  0.00     0.000 OA
ATOM     95   O  SGN B   5      17.929  18.515  30.5060  0.00  0.00     0.000 OA
ENDBRANCH 83 92
BRANCH 86 96
ATOM     96   C  SGN B   5      19.669  17.829  37.3320  0.00  0.00     0.000 C
ATOM     97   O  SGN B   5      18.401  18.061  37.9510  0.00  0.00     0.000 O
ATOM     98   S  SGN B   5      18.215  17.460  39.4260  0.00  0.00     0.000 S
ATOM     99   O  SGN B   5      16.953  18.022  39.8420  0.00  0.00     0.000 OA
ATOM    100   O  SGN B   5      18.225  16.045  39.3140  0.00  0.00     0.000 OA
ATOM    101   O  SGN B   5      19.330  17.967  40.1590  0.00  0.00     0.000 OA
ENDBRANCH 86 96
BRANCH 82 102
ATOM    102  O4  IDS B   6      17.891  15.398  34.5020  0.00  0.00     0.000 O
BRANCH 102 106
ATOM    103  C1  IDS B   6      16.074  12.349  35.3140  0.00  0.00     0.000 C
ATOM    104  C2  IDS B   6      15.321  13.643  34.9680  0.00  0.00     0.000 C
ATOM    105  C3  IDS B   6      15.821  14.886  35.6790  0.00  0.00     0.000 C
ATOM    106  C4  IDS B   6      17.336  14.945  35.7630  0.00  0.00     0.000 C
ATOM    107  C5  IDS B   6      17.887  13.566  36.1370  0.00  0.00     0.000 C
ATOM    108  O5  IDS B   6      17.470  12.558  35.2150  0.00  0.00     0.000 O
ATOM    109   O  IDS B   6      15.242  14.917  36.9730  0.00  0.00     0.000 O
ATOM    111  HD  IDS B   6      15.041  14.090  37.1310  0.00  0.00     0.000 HD
BRANCH 104 111
ATOM    111   O  IDS B   6      15.485  13.924  33.5330  0.00  0.00     0.000 O
ATOM    112   S  IDS B   6      14.168  14.009  32.6280  0.00  0.00     0.000 S
ATOM    113   O  IDS B   6      13.527  12.713  32.7900  0.00  0.00     0.000 OA
ATOM    114   O  IDS B   6      13.365  15.151  33.0820  0.00  0.00     0.000 OA
ATOM    115   O  IDS B   6      14.786  14.200  31.3340  0.00  0.00     0.000 OA
ENDBRANCH 104 111
BRANCH 107 116
ATOM    116   C  IDS B   6      19.408  13.627  36.1830  0.00  0.00     0.000 C
ATOM    117   O  IDS B   6      19.905  13.959  37.2290  0.00  0.00     0.000 OA
ATOM    118   O  IDS B   6      20.085  13.359  35.2030  0.00  0.00     0.000 OA
ENDBRANCH 107 116
BRANCH 103 119
ATOM    119  O4  SGN B   7      15.501  11.946  36.4770  0.00  0.00     0.000 O
BRANCH 119 123
ATOM    120  C1  SGN B   7      14.765   8.294  38.3780  0.00  0.00     0.000 C
ATOM    121  C2  SGN B   7      16.162   8.919  38.5510  0.00  0.00     0.000 C
ATOM    122  C3  SGN B   7      16.142  10.400  38.1510  0.00  0.00     0.000 C
ATOM    123  C4  SGN B   7      15.572  10.546  36.7500  0.00  0.00     0.000 C
ATOM    124  C5  SGN B   7      14.185   9.886  36.6790  0.00  0.00     0.000 C
ATOM    125  O5  SGN B   7      14.251   8.494  37.0620  0.00  0.00     0.000 O
ATOM    126   O  SGN B   7      17.473  10.922  38.2290  0.00  0.00     0.000 O
ATOM    128  HD  SGN B   7      16.927  10.272  38.3990  0.00  0.00     0.000 HD
BRANCH 121 130
ATOM    128   N  SGN B   7      16.559   7.656  39.1790  0.00  0.00     0.000 N
ATOM    130  HD  SGN B   7      17.326   7.689  38.7770  0.00  0.00     0.000 HD
ATOM    130   S  SGN B   7      17.644   7.591  40.3670  0.00  0.00     0.000 S
ATOM    131   O  SGN B   7      17.213   8.557  41.3180  0.00  0.00     0.000 OA
ATOM    132   O  SGN B   7      17.809   6.234  40.7470  0.00  0.00     0.000 OA
ATOM    133   O  SGN B   7      18.949   7.941  39.5750  0.00  0.00     0.000 OA
ENDBRANCH 121 130
BRANCH 124 134
ATOM    134   C  SGN B   7      13.586   9.876  35.3030  0.00  0.00     0.000 C
ATOM    135   O  SGN B   7      12.565   8.866  35.2550  0.00  0.00     0.000 O
ATOM    136   S  SGN B   7      11.708   8.799  33.9400  0.00  0.00     0.000 S
ATOM    137   O  SGN B   7      10.834   7.659  34.0830  0.00  0.00     0.000 OA
ATOM    138   O  SGN B   7      12.668   8.643  32.8710  0.00  0.00     0.000 OA
ATOM    139   O  SGN B   7      11.018  10.079  33.9500  0.00  0.00     0.000 OA
ENDBRANCH 124 134
BRANCH 120 140
ATOM    140  O4  IDS B   8      13.655   8.552  39.0780  0.00  0.00     0.000 O
BRANCH 140 144
ATOM    141  C1  IDS B   8      11.263  10.572  40.8550  0.00  0.00     0.000 C
ATOM    142  C2  IDS B   8      12.786  10.876  40.9400  0.00  0.00     0.000 C
ATOM    143  C3  IDS B   8      13.634   9.627  41.2450  0.00  0.00     0.000 C
ATOM    144  C4  IDS B   8      13.187   8.417  40.4250  0.00  0.00     0.000 C
ATOM    145  C5  IDS B   8      11.655   8.302  40.4430  0.00  0.00     0.000 C
ATOM    146  O5  IDS B   8      11.032   9.491  39.9610  0.00  0.00     0.000 O
BRANCH 142 147
ATOM    147   O  IDS B   8      13.256  11.421  39.6400  0.00  0.00     0.000 O
ATOM    148   S  IDS B   8      13.428  13.018  39.4160  0.00  0.00     0.000 S
ATOM    149   O  IDS B   8      12.704  13.689  40.4720  0.00  0.00     0.000 OA
ATOM    150   O  IDS B   8      14.857  13.265  39.4700  0.00  0.00     0.000 OA
ATOM    151   O  IDS B   8      12.853  13.285  38.1110  0.00  0.00     0.000 OA
ENDBRANCH 142 147
BRANCH 145 152
ATOM    152   C  IDS B   8      11.145   7.178  39.5650  0.00  0.00     0.000 C
ATOM    153   O  IDS B   8      10.504   7.444  38.5540  0.00  0.00     0.000 OA
ATOM    154   O  IDS B   8      11.393   6.023  39.8610  0.00  0.00     0.000 OA
ENDBRANCH 145 152
ENDBRANCH 140 144
ENDBRANCH 120 140
ENDBRANCH 119 123
ENDBRANCH 103 119
ENDBRANCH 102 106
ENDBRANCH 82 102
ENDBRANCH 81 85
ENDBRANCH 65 81
ENDBRANCH 64 68
ENDBRANCH 41 64
ENDBRANCH 40 44
ENDBRANCH 24 40
ENDBRANCH 23 27
ENDBRANCH 1 23
TORSDOF 31
ENDMDL
MODEL 14
REMARK VINA RESULT:      -6.2     11.225     15.594
ROOT
ATOM      1  C1  SGN B   1      35.741  17.161  30.9340  0.00  0.00     0.000 C
ATOM      2  C2  SGN B   1      35.932  15.656  30.6830  0.00  0.00     0.000 C
ATOM      3  C3  SGN B   1      34.805  14.850  31.3380  0.00  0.00     0.000 C
ATOM      4  C4  SGN B   1      34.721  15.174  32.8260  0.00  0.00     0.000 C
ATOM      5  C5  SGN B   1      34.677  16.690  33.0040  0.00  0.00     0.000 C
ATOM      6  O5  SGN B   1      35.812  17.286  32.3470  0.00  0.00     0.000 O
ATOM      7   O  SGN B   1      35.009  13.455  31.1420  0.00  0.00     0.000 O
ATOM      9  HD  SGN B   1      35.717  13.676  31.5890  0.00  0.00     0.000 HD
ATOM      9   O  SGN B   1      33.556  14.584  33.3710  0.00  0.00     0.000 O
ATOM     11  HD  SGN B   1      34.264  14.805  33.8190  0.00  0.00     0.000 HD
ENDROOT
BRANCH 2 13
ATOM     11   N  SGN B   1      37.173  15.672  29.8870  0.00  0.00     0.000 N
ATOM     13  HD  SGN B   1      36.482  16.127  29.6330  0.00  0.00     0.000 HD
ATOM     13   S  SGN B   1      37.171  15.910  28.2960  0.00  0.00     0.000 S
ATOM     14   O  SGN B   1      35.855  16.140  27.8410  0.00  0.00     0.000 OA
ATOM     15   O  SGN B   1      38.195  16.848  27.9790  0.00  0.00     0.000 OA
ATOM     16   O  SGN B   1      37.684  14.503  27.8590  0.00  0.00     0.000 OA
ENDBRANCH 2 13
BRANCH 5 17
ATOM     17   C  SGN B   1      34.703  17.140  34.4440  0.00  0.00     0.000 C
ATOM     18   O  SGN B   1      35.463  16.224  35.2560  0.00  0.00     0.000 O
ATOM     19   S  SGN B   1      34.802  15.808  36.6510  0.00  0.00     0.000 S
ATOM     20   O  SGN B   1      35.841  15.093  37.3610  0.00  0.00     0.000 OA
ATOM     21   O  SGN B   1      34.446  17.068  37.2620  0.00  0.00     0.000 OA
ATOM     22   O  SGN B   1      33.666  14.984  36.3010  0.00  0.00     0.000 OA
ENDBRANCH 5 17
BRANCH 1 23
ATOM     23  O4  IDS B   2      35.140  18.253  30.3810  0.00  0.00     0.000 O
BRANCH 23 27
ATOM     24  C1  IDS B   2      31.054  18.356  31.1050  0.00  0.00     0.000 C
ATOM     25  C2  IDS B   2      31.478  17.714  29.7660  0.00  0.00     0.000 C
ATOM     26  C3  IDS B   2      32.982  17.459  29.7350  0.00  0.00     0.000 C
ATOM     27  C4  IDS B   2      33.815  18.700  30.0240  0.00  0.00     0.000 C
ATOM     28  C5  IDS B   2      33.122  19.561  31.1000  0.00  0.00     0.000 C
ATOM     29  O5  IDS B   2      32.200  18.787  31.8520  0.00  0.00     0.000 O
ATOM     30   O  IDS B   2      33.350  16.985  28.4450  0.00  0.00     0.000 O
ATOM     32  HD  IDS B   2      33.415  17.616  27.8550  0.00  0.00     0.000 HD
BRANCH 25 32
ATOM     32   O  IDS B   2      30.798  16.417  29.5260  0.00  0.00     0.000 O
ATOM     33   S  IDS B   2      29.989  16.104  28.1220  0.00  0.00     0.000 S
ATOM     34   O  IDS B   2      29.277  14.855  28.3350  0.00  0.00     0.000 OA
ATOM     35   O  IDS B   2      29.071  17.198  27.8380  0.00  0.00     0.000 OA
ATOM     36   O  IDS B   2      31.008  15.963  27.1080  0.00  0.00     0.000 OA
ENDBRANCH 25 32
BRANCH 28 37
ATOM     37   C  IDS B   2      34.017  20.342  32.0840  0.00  0.00     0.000 C
ATOM     38   O  IDS B   2      33.625  20.275  33.2260  0.00  0.00     0.000 OA
ATOM     39   O  IDS B   2      35.084  20.947  31.8180  0.00  0.00     0.000 OA
ENDBRANCH 28 37
BRANCH 24 40
ATOM     40  O4  SUS B   3      29.770  18.721  31.3000  0.00  0.00     0.000 O
BRANCH 40 44
ATOM     41  C1  SUS B   3      27.446  18.681  34.7850  0.00  0.00     0.000 C
ATOM     42  C2  SUS B   3      28.447  19.842  34.6180  0.00  0.00     0.000 C
ATOM     43  C3  SUS B   3      28.831  19.967  33.1460  0.00  0.00     0.000 C
ATOM     44  C4  SUS B   3      29.354  18.625  32.6580  0.00  0.00     0.000 C
ATOM     45  C5  SUS B   3      28.253  17.593  32.7880  0.00  0.00     0.000 C
ATOM     46  O5  SUS B   3      27.915  17.469  34.1850  0.00  0.00     0.000 O
BRANCH 42 49
ATOM     47   N  SUS B   3      27.894  21.074  35.2060  0.00  0.00     0.000 N
ATOM     49  HD  SUS B   3      27.878  21.773  34.6950  0.00  0.00     0.000 HD
ATOM     49   S  SUS B   3      28.611  21.479  36.5800  0.00  0.00     0.000 S
ATOM     50   O  SUS B   3      29.997  21.634  36.3710  0.00  0.00     0.000 OA
ATOM     51   O  SUS B   3      27.925  22.860  36.7410  0.00  0.00     0.000 OA
ATOM     52   O  SUS B   3      28.199  20.597  37.5990  0.00  0.00     0.000 OA
ENDBRANCH 42 49
BRANCH 43 53
ATOM     53   O  SUS B   3      29.891  20.988  33.0380  0.00  0.00     0.000 O
ATOM     54   S  SUS B   3      29.514  22.379  32.2470  0.00  0.00     0.000 S
ATOM     55   O  SUS B   3      28.598  23.129  33.0960  0.00  0.00     0.000 OA
ATOM     56   O  SUS B   3      30.796  23.031  32.0510  0.00  0.00     0.000 OA
ATOM     57   O  SUS B   3      28.870  21.982  30.9920  0.00  0.00     0.000 OA
ENDBRANCH 43 53
BRANCH 45 58
ATOM     58   C  SUS B   3      28.666  16.250  32.2280  0.00  0.00     0.000 C
ATOM     59   S  SUS B   3      30.241  14.268  32.6520  0.00  0.00     0.000 S
ATOM     60   O  SUS B   3      29.537  15.591  33.1630  0.00  0.00     0.000 O
ATOM     61   O  SUS B   3      31.329  14.720  31.8060  0.00  0.00     0.000 OA
ATOM     62   O  SUS B   3      30.698  13.710  33.8960  0.00  0.00     0.000 OA
ATOM     63   O  SUS B   3      29.225  13.528  31.9910  0.00  0.00     0.000 OA
ENDBRANCH 45 58
BRANCH 41 64
ATOM     64  O4  IDS B   4      26.155  19.011  34.4510  0.00  0.00     0.000 O
BRANCH 64 68
ATOM     65  C1  IDS B   4      22.611  18.901  35.2870  0.00  0.00     0.000 C
ATOM     66  C2  IDS B   4      23.669  18.710  36.3810  0.00  0.00     0.000 C
ATOM     67  C3  IDS B   4      24.784  17.745  36.0140  0.00  0.00     0.000 C
ATOM     68  C4  IDS B   4      25.245  17.896  34.5770  0.00  0.00     0.000 C
ATOM     69  C5  IDS B   4      24.001  18.019  33.6870  0.00  0.00     0.000 C
ATOM     70  O5  IDS B   4      23.266  19.185  34.0640  0.00  0.00     0.000 O
ATOM     71   O  IDS B   4      24.292  16.437  36.2230  0.00  0.00     0.000 O
ATOM     73  HD  IDS B   4      24.301  17.298  36.3120  0.00  0.00     0.000 HD
BRANCH 66 73
ATOM     73   O  IDS B   4      24.332  19.998  36.6290  0.00  0.00     0.000 O
ATOM     74   S  IDS B   4      24.169  20.664  38.0940  0.00  0.00     0.000 S
ATOM     75   O  IDS B   4      22.748  20.796  38.3290  0.00  0.00     0.000 OA
ATOM     76   O  IDS B   4      24.856  21.921  37.9250  0.00  0.00     0.000 OA
ATOM     77   O  IDS B   4      24.817  19.752  39.0060  0.00  0.00     0.000 OA
ENDBRANCH 66 73
BRANCH 69 78
ATOM     78   C  IDS B   4      24.288  17.957  32.1930  0.00  0.00     0.000 C
ATOM     79   O  IDS B   4      23.656  18.695  31.4380  0.00  0.00     0.000 OA
ATOM     80   O  IDS B   4      25.225  17.240  31.7950  0.00  0.00     0.000 OA
ENDBRANCH 69 78
BRANCH 65 81
ATOM     81  O4  SGN B   5      21.756  17.841  35.2930  0.00  0.00     0.000 O
BRANCH 81 85
ATOM     82  C1  SGN B   5      17.794  16.685  34.5140  0.00  0.00     0.000 C
ATOM     83  C2  SGN B   5      18.588  17.287  33.3450  0.00  0.00     0.000 C
ATOM     84  C3  SGN B   5      20.090  17.215  33.6530  0.00  0.00     0.000 C
ATOM     85  C4  SGN B   5      20.363  17.904  34.9790  0.00  0.00     0.000 C
ATOM     86  C5  SGN B   5      19.541  17.207  36.0600  0.00  0.00     0.000 C
ATOM     87  O5  SGN B   5      18.145  17.325  35.7270  0.00  0.00     0.000 O
ATOM     88   O  SGN B   5      20.823  17.818  32.6100  0.00  0.00     0.000 O
ATOM     90  HD  SGN B   5      20.723  16.966  32.7260  0.00  0.00     0.000 HD
BRANCH 83 92
ATOM     90   N  SGN B   5      18.124  16.565  32.1450  0.00  0.00     0.000 N
ATOM     92  HD  SGN B   5      17.912  15.747  32.3370  0.00  0.00     0.000 HD
ATOM     92   S  SGN B   5      17.109  17.314  31.1630  0.00  0.00     0.000 S
ATOM     93   O  SGN B   5      16.854  16.362  30.1240  0.00  0.00     0.000 OA
ATOM     94   O  SGN B   5      16.044  17.774  31.9860  0.00  0.00     0.000 OA
ATOM     95   O  SGN B   5      17.868  18.532  30.6820  0.00  0.00     0.000 OA
ENDBRANCH 83 92
BRANCH 86 96
ATOM     96   C  SGN B   5      19.724  17.785  37.4480  0.00  0.00     0.000 C
ATOM     97   O  SGN B   5      19.830  16.740  38.4170  0.00  0.00     0.000 O
ATOM     98   S  SGN B   5      21.082  16.827  39.4160  0.00  0.00     0.000 S
ATOM     99   O  SGN B   5      20.800  15.783  40.3720  0.00  0.00     0.000 OA
ATOM    100   O  SGN B   5      22.256  16.624  38.6460  0.00  0.00     0.000 OA
ATOM    101   O  SGN B   5      21.001  18.139  39.9720  0.00  0.00     0.000 OA
ENDBRANCH 86 96
BRANCH 82 102
ATOM    102  O4  IDS B   6      17.962  15.337  34.6230  0.00  0.00     0.000 O
BRANCH 102 106
ATOM    103  C1  IDS B   6      15.982  12.369  35.3520  0.00  0.00     0.000 C
ATOM    104  C2  IDS B   6      15.302  13.716  35.0630  0.00  0.00     0.000 C
ATOM    105  C3  IDS B   6      15.881  14.903  35.8100  0.00  0.00     0.000 C
ATOM    106  C4  IDS B   6      17.397  14.871  35.8750  0.00  0.00     0.000 C
ATOM    107  C5  IDS B   6      17.872  13.450  36.1920  0.00  0.00     0.000 C
ATOM    108  O5  IDS B   6      17.387  12.502  35.2410  0.00  0.00     0.000 O
ATOM    109   O  IDS B   6      15.321  14.920  37.1130  0.00  0.00     0.000 O
ATOM    111  HD  IDS B   6      15.074  14.100  37.2440  0.00  0.00     0.000 HD
BRANCH 104 111
ATOM    111   O  IDS B   6      15.464  14.039  33.6370  0.00  0.00     0.000 O
ATOM    112   S  IDS B   6      14.152  14.080  32.7200  0.00  0.00     0.000 S
ATOM    113   O  IDS B   6      13.576  12.750  32.8460  0.00  0.00     0.000 OA
ATOM    114   O  IDS B   6      13.290  15.169  33.1930  0.00  0.00     0.000 OA
ATOM    115   O  IDS B   6      14.771  14.332  31.4370  0.00  0.00     0.000 OA
ENDBRANCH 104 111
BRANCH 107 116
ATOM    116   C  IDS B   6      19.395  13.422  36.2190  0.00  0.00     0.000 C
ATOM    117   O  IDS B   6      19.944  12.900  35.2820  0.00  0.00     0.000 OA
ATOM    118   O  IDS B   6      20.023  13.899  37.1510  0.00  0.00     0.000 OA
ENDBRANCH 107 116
BRANCH 103 119
ATOM    119  O4  SGN B   7      15.401  11.958  36.5090  0.00  0.00     0.000 O
BRANCH 119 123
ATOM    120  C1  SGN B   7      14.660   8.294  38.3840  0.00  0.00     0.000 C
ATOM    121  C2  SGN B   7      16.058   8.916  38.5610  0.00  0.00     0.000 C
ATOM    122  C3  SGN B   7      16.040  10.400  38.1710  0.00  0.00     0.000 C
ATOM    123  C4  SGN B   7      15.470  10.556  36.7710  0.00  0.00     0.000 C
ATOM    124  C5  SGN B   7      14.082   9.899  36.6960  0.00  0.00     0.000 C
ATOM    125  O5  SGN B   7      14.146   8.505  37.0700  0.00  0.00     0.000 O
ATOM    126   O  SGN B   7      17.372  10.919  38.2540  0.00  0.00     0.000 O
ATOM    128  HD  SGN B   7      16.825  10.269  38.4190  0.00  0.00     0.000 HD
BRANCH 121 130
ATOM    128   N  SGN B   7      16.503   7.644  39.1360  0.00  0.00     0.000 N
ATOM    130  HD  SGN B   7      17.283   7.745  38.7730  0.00  0.00     0.000 HD
ATOM    130   S  SGN B   7      17.537   7.573  40.3680  0.00  0.00     0.000 S
ATOM    131   O  SGN B   7      17.006   8.455  41.3510  0.00  0.00     0.000 OA
ATOM    132   O  SGN B   7      17.768   6.208  40.6790  0.00  0.00     0.000 OA
ATOM    133   O  SGN B   7      18.852   8.045  39.6590  0.00  0.00     0.000 OA
ENDBRANCH 121 130
BRANCH 124 134
ATOM    134   C  SGN B   7      13.483   9.900  35.3200  0.00  0.00     0.000 C
ATOM    135   O  SGN B   7      12.599   8.772  35.2050  0.00  0.00     0.000 O
ATOM    136   S  SGN B   7      11.753   8.679  33.8850  0.00  0.00     0.000 S
ATOM    137   O  SGN B   7      11.032   7.430  33.9520  0.00  0.00     0.000 OA
ATOM    138   O  SGN B   7      12.720   8.716  32.8120  0.00  0.00     0.000 OA
ATOM    139   O  SGN B   7      10.904   9.857  33.9730  0.00  0.00     0.000 OA
ENDBRANCH 124 134
BRANCH 120 140
ATOM    140  O4  IDS B   8      13.550   8.550  39.0850  0.00  0.00     0.000 O
BRANCH 140 144
ATOM    141  C1  IDS B   8      11.453   7.428  41.7880  0.00  0.00     0.000 C
ATOM    142  C2  IDS B   8      12.196   6.410  40.8770  0.00  0.00     0.000 C
ATOM    143  C3  IDS B   8      12.018   6.701  39.3750  0.00  0.00     0.000 C
ATOM    144  C4  IDS B   8      12.164   8.189  39.0590  0.00  0.00     0.000 C
ATOM    145  C5  IDS B   8      11.381   9.027  40.0810  0.00  0.00     0.000 C
ATOM    146  O5  IDS B   8      11.800   8.756  41.4170  0.00  0.00     0.000 O
BRANCH 142 147
ATOM    147   O  IDS B   8      13.654   6.459  41.1640  0.00  0.00     0.000 O
ATOM    148   S  IDS B   8      14.380   5.279  42.0060  0.00  0.00     0.000 S
ATOM    149   O  IDS B   8      13.349   4.520  42.6770  0.00  0.00     0.000 OA
ATOM    150   O  IDS B   8      15.106   4.494  41.0250  0.00  0.00     0.000 OA
ATOM    151   O  IDS B   8      15.250   5.960  42.9460  0.00  0.00     0.000 OA
ENDBRANCH 142 147
BRANCH 145 152
ATOM    152   C  IDS B   8      11.567  10.517  39.8800  0.00  0.00     0.000 C
ATOM    153   O  IDS B   8      11.791  11.234  40.8480  0.00  0.00     0.000 OA
ATOM    154   O  IDS B   8      11.514  10.984  38.7560  0.00  0.00     0.000 OA
ENDBRANCH 145 152
ENDBRANCH 140 144
ENDBRANCH 120 140
ENDBRANCH 119 123
ENDBRANCH 103 119
ENDBRANCH 102 106
ENDBRANCH 82 102
ENDBRANCH 81 85
ENDBRANCH 65 81
ENDBRANCH 64 68
ENDBRANCH 41 64
ENDBRANCH 40 44
ENDBRANCH 24 40
ENDBRANCH 23 27
ENDBRANCH 1 23
TORSDOF 31
ENDMDL
MODEL 15
REMARK VINA RESULT:      -6.2      4.886      8.527
ROOT
ATOM      1  C1  SGN B   1      30.064  18.353   9.4000  0.00  0.00     0.000 C
ATOM      2  C2  SGN B   1      30.447  19.710   8.7860  0.00  0.00     0.000 C
ATOM      3  C3  SGN B   1      29.909  20.863   9.6400  0.00  0.00     0.000 C
ATOM      4  C4  SGN B   1      28.400  20.725   9.8210  0.00  0.00     0.000 C
ATOM      5  C5  SGN B   1      28.083  19.309  10.2970  0.00  0.00     0.000 C
ATOM      6  O5  SGN B   1      28.643  18.354   9.3740  0.00  0.00     0.000 O
ATOM      7   O  SGN B   1      30.227  22.116   9.0460  0.00  0.00     0.000 O
ATOM      9  HD  SGN B   1      29.738  21.750   8.4320  0.00  0.00     0.000 HD
ATOM      9   O  SGN B   1      27.952  21.672  10.7730  0.00  0.00     0.000 O
ATOM     11  HD  SGN B   1      27.462  21.305  10.1590  0.00  0.00     0.000 HD
ENDROOT
BRANCH 2 13
ATOM     11   N  SGN B   1      31.219  19.343   7.5840  0.00  0.00     0.000 N
ATOM     13  HD  SGN B   1      31.411  18.995   8.3530  0.00  0.00     0.000 HD
ATOM     13   S  SGN B   1      32.758  18.880   7.6580  0.00  0.00     0.000 S
ATOM     14   O  SGN B   1      33.188  18.840   9.0010  0.00  0.00     0.000 OA
ATOM     15   O  SGN B   1      32.922  17.729   6.8360  0.00  0.00     0.000 OA
ATOM     16   O  SGN B   1      33.390  20.085   6.8950  0.00  0.00     0.000 OA
ENDBRANCH 2 13
BRANCH 5 17
ATOM     17   C  SGN B   1      26.607  19.015  10.4070  0.00  0.00     0.000 C
ATOM     18   O  SGN B   1      25.901  19.477   9.2390  0.00  0.00     0.000 O
ATOM     19   S  SGN B   1      24.540  20.272   9.5110  0.00  0.00     0.000 S
ATOM     20   O  SGN B   1      23.921  20.412   8.2100  0.00  0.00     0.000 OA
ATOM     21   O  SGN B   1      23.805  19.414  10.4110  0.00  0.00     0.000 OA
ATOM     22   O  SGN B   1      24.947  21.529  10.0980  0.00  0.00     0.000 OA
ENDBRANCH 5 17
BRANCH 1 23
ATOM     23  O4  IDS B   2      30.532  17.427  10.2840  0.00  0.00     0.000 O
BRANCH 23 27
ATOM     24  C1  IDS B   2      29.526  18.217  14.2330  0.00  0.00     0.000 C
ATOM     25  C2  IDS B   2      30.862  18.826  13.7500  0.00  0.00     0.000 C
ATOM     26  C3  IDS B   2      30.987  18.731  12.2320  0.00  0.00     0.000 C
ATOM     27  C4  IDS B   2      30.814  17.317  11.6950  0.00  0.00     0.000 C
ATOM     28  C5  IDS B   2      29.733  16.574  12.5050  0.00  0.00     0.000 C
ATOM     29  O5  IDS B   2      28.883  17.491  13.1780  0.00  0.00     0.000 O
ATOM     30   O  IDS B   2      32.277  19.185  11.8390  0.00  0.00     0.000 O
ATOM     32  HD  IDS B   2      32.898  18.593  11.9570  0.00  0.00     0.000 HD
BRANCH 25 32
ATOM     32   O  IDS B   2      30.994  20.256  14.1230  0.00  0.00     0.000 O
ATOM     33   S  IDS B   2      32.316  20.827  14.9290  0.00  0.00     0.000 S
ATOM     34   O  IDS B   2      31.996  22.193  15.3140  0.00  0.00     0.000 OA
ATOM     35   O  IDS B   2      32.571  19.992  16.0940  0.00  0.00     0.000 OA
ATOM     36   O  IDS B   2      33.400  20.789  13.9760  0.00  0.00     0.000 OA
ENDBRANCH 25 32
BRANCH 28 37
ATOM     37   C  IDS B   2      28.851  15.550  11.7610  0.00  0.00     0.000 C
ATOM     38   O  IDS B   2      27.709  15.924  11.6330  0.00  0.00     0.000 OA
ATOM     39   O  IDS B   2      29.219  14.462  11.2550  0.00  0.00     0.000 OA
ENDBRANCH 28 37
BRANCH 24 40
ATOM     40  O4  SUS B   3      29.259  18.145  15.5540  0.00  0.00     0.000 O
BRANCH 40 44
ATOM     41  C1  SUS B   3      25.612  18.383  17.6010  0.00  0.00     0.000 C
ATOM     42  C2  SUS B   3      25.839  17.148  16.7070  0.00  0.00     0.000 C
ATOM     43  C3  SUS B   3      27.335  16.985  16.4440  0.00  0.00     0.000 C
ATOM     44  C4  SUS B   3      27.875  18.280  15.8580  0.00  0.00     0.000 C
ATOM     45  C5  SUS B   3      27.676  19.394  16.8650  0.00  0.00     0.000 C
ATOM     46  O5  SUS B   3      26.260  19.552  17.0870  0.00  0.00     0.000 O
BRANCH 42 49
ATOM     47   N  SUS B   3      25.065  16.113  17.4130  0.00  0.00     0.000 N
ATOM     49  HD  SUS B   3      25.516  15.450  17.7420  0.00  0.00     0.000 HD
ATOM     49   S  SUS B   3      23.876  15.514  16.5220  0.00  0.00     0.000 S
ATOM     50   O  SUS B   3      24.396  14.983  15.3240  0.00  0.00     0.000 OA
ATOM     51   O  SUS B   3      23.477  14.377  17.4960  0.00  0.00     0.000 OA
ATOM     52   O  SUS B   3      22.844  16.468  16.4200  0.00  0.00     0.000 OA
ENDBRANCH 42 49
BRANCH 43 53
ATOM     53   O  SUS B   3      27.509  15.885  15.4760  0.00  0.00     0.000 O
ATOM     54   S  SUS B   3      28.145  14.480  16.0450  0.00  0.00     0.000 S
ATOM     55   O  SUS B   3      27.134  13.852  16.8840  0.00  0.00     0.000 OA
ATOM     56   O  SUS B   3      28.461  13.726  14.8450  0.00  0.00     0.000 OA
ATOM     57   O  SUS B   3      29.330  14.847  16.8260  0.00  0.00     0.000 OA
ENDBRANCH 43 53
BRANCH 45 58
ATOM     58   C  SUS B   3      28.280  20.699  16.3930  0.00  0.00     0.000 C
ATOM     59   S  SUS B   3      27.811  22.736  14.9050  0.00  0.00     0.000 S
ATOM     60   O  SUS B   3      27.294  21.443  15.6590  0.00  0.00     0.000 O
ATOM     61   O  SUS B   3      28.470  22.241  13.7110  0.00  0.00     0.000 OA
ATOM     62   O  SUS B   3      26.565  23.396  14.6190  0.00  0.00     0.000 OA
ATOM     63   O  SUS B   3      28.654  23.404  15.8320  0.00  0.00     0.000 OA
ENDBRANCH 45 58
BRANCH 41 64
ATOM     64  O4  IDS B   4      25.847  18.152  18.9350  0.00  0.00     0.000 O
BRANCH 64 68
ATOM     65  C1  IDS B   4      25.262  18.260  22.5290  0.00  0.00     0.000 C
ATOM     66  C2  IDS B   4      24.119  17.898  21.5710  0.00  0.00     0.000 C
ATOM     67  C3  IDS B   4      23.994  18.817  20.3680  0.00  0.00     0.000 C
ATOM     68  C4  IDS B   4      25.338  19.206  19.7810  0.00  0.00     0.000 C
ATOM     69  C5  IDS B   4      26.278  19.568  20.9390  0.00  0.00     0.000 C
ATOM     70  O5  IDS B   4      26.451  18.424  21.7790  0.00  0.00     0.000 O
ATOM     71   O  IDS B   4      23.306  19.975  20.7940  0.00  0.00     0.000 O
ATOM     73  HD  IDS B   4      23.572  19.153  20.8480  0.00  0.00     0.000 HD
BRANCH 66 73
ATOM     73   O  IDS B   4      24.372  16.561  21.0180  0.00  0.00     0.000 O
ATOM     74   S  IDS B   4      23.406  15.351  21.4860  0.00  0.00     0.000 S
ATOM     75   O  IDS B   4      23.482  15.301  22.9300  0.00  0.00     0.000 OA
ATOM     76   O  IDS B   4      24.007  14.219  20.8270  0.00  0.00     0.000 OA
ATOM     77   O  IDS B   4      22.092  15.695  20.9950  0.00  0.00     0.000 OA
ENDBRANCH 66 73
BRANCH 69 78
ATOM     78   C  IDS B   4      27.599  20.190  20.5060  0.00  0.00     0.000 C
ATOM     79   O  IDS B   4      28.636  19.551  20.6720  0.00  0.00     0.000 OA
ATOM     80   O  IDS B   4      27.575  21.279  19.9030  0.00  0.00     0.000 OA
ENDBRANCH 69 78
BRANCH 65 81
ATOM     81  O4  SGN B   5      24.881  19.307  23.3130  0.00  0.00     0.000 O
BRANCH 81 85
ATOM     82  C1  SGN B   5      25.737  20.695  27.1830  0.00  0.00     0.000 C
ATOM     83  C2  SGN B   5      25.937  21.686  26.0260  0.00  0.00     0.000 C
ATOM     84  C3  SGN B   5      25.161  21.200  24.7940  0.00  0.00     0.000 C
ATOM     85  C4  SGN B   5      25.598  19.787  24.4520  0.00  0.00     0.000 C
ATOM     86  C5  SGN B   5      25.331  18.896  25.6630  0.00  0.00     0.000 C
ATOM     87  O5  SGN B   5      26.099  19.388  26.7770  0.00  0.00     0.000 O
ATOM     88   O  SGN B   5      25.385  22.075  23.7100  0.00  0.00     0.000 O
ATOM     90  HD  SGN B   5      24.675  22.061  24.2060  0.00  0.00     0.000 HD
BRANCH 83 92
ATOM     90   N  SGN B   5      26.919  22.443  26.8260  0.00  0.00     0.000 N
ATOM     92  HD  SGN B   5      27.727  22.188  26.6480  0.00  0.00     0.000 HD
ATOM     92   S  SGN B   5      26.722  24.023  26.9590  0.00  0.00     0.000 S
ATOM     93   O  SGN B   5      27.820  24.450  27.7740  0.00  0.00     0.000 OA
ATOM     94   O  SGN B   5      26.591  24.509  25.6280  0.00  0.00     0.000 OA
ATOM     95   O  SGN B   5      25.378  24.188  27.6350  0.00  0.00     0.000 OA
ENDBRANCH 83 92
BRANCH 86 96
ATOM     96   C  SGN B   5      25.711  17.443  25.4600  0.00  0.00     0.000 C
ATOM     97   O  SGN B   5      27.131  17.285  25.5010  0.00  0.00     0.000 O
ATOM     98   S  SGN B   5      27.687  16.147  26.4830  0.00  0.00     0.000 S
ATOM     99   O  SGN B   5      29.091  16.098  26.1510  0.00  0.00     0.000 OA
ATOM    100   O  SGN B   5      27.407  16.557  27.8120  0.00  0.00     0.000 OA
ATOM    101   O  SGN B   5      26.975  14.970  26.1030  0.00  0.00     0.000 OA
ENDBRANCH 86 96
BRANCH 82 102
ATOM    102  O4  IDS B   6      24.464  20.706  27.6700  0.00  0.00     0.000 O
BRANCH 102 106
ATOM    103  C1  IDS B   6      21.822  20.980  30.1590  0.00  0.00     0.000 C
ATOM    104  C2  IDS B   6      22.836  22.118  29.9610  0.00  0.00     0.000 C
ATOM    105  C3  IDS B   6      24.287  21.681  29.8940  0.00  0.00     0.000 C
ATOM    106  C4  IDS B   6      24.479  20.408  29.0890  0.00  0.00     0.000 C
ATOM    107  C5  IDS B   6      23.382  19.400  29.4450  0.00  0.00     0.000 C
ATOM    108  O5  IDS B   6      22.076  19.938  29.2370  0.00  0.00     0.000 O
ATOM    109   O  IDS B   6      24.759  21.514  31.2210  0.00  0.00     0.000 O
ATOM    111  HD  IDS B   6      24.039  21.380  31.6830  0.00  0.00     0.000 HD
BRANCH 104 111
ATOM    111   O  IDS B   6      22.570  22.779  28.6750  0.00  0.00     0.000 O
ATOM    112   S  IDS B   6      21.870  24.219  28.6990  0.00  0.00     0.000 S
ATOM    113   O  IDS B   6      20.611  24.002  29.3940  0.00  0.00     0.000 OA
ATOM    114   O  IDS B   6      22.778  25.165  29.3570  0.00  0.00     0.000 OA
ATOM    115   O  IDS B   6      21.726  24.433  27.2750  0.00  0.00     0.000 OA
ENDBRANCH 104 111
BRANCH 107 116
ATOM    116   C  IDS B   6      23.563  18.141  28.6060  0.00  0.00     0.000 C
ATOM    117   O  IDS B   6      22.776  17.970  27.7100  0.00  0.00     0.000 OA
ATOM    118   O  IDS B   6      24.457  17.344  28.8410  0.00  0.00     0.000 OA
ENDBRANCH 107 116
BRANCH 103 119
ATOM    119  O4  SGN B   7      21.844  20.759  31.4990  0.00  0.00     0.000 O
BRANCH 119 123
ATOM    120  C1  SGN B   7      19.166  19.338  34.3790  0.00  0.00     0.000 C
ATOM    121  C2  SGN B   7      19.912  18.297  33.5230  0.00  0.00     0.000 C
ATOM    122  C3  SGN B   7      21.117  18.939  32.8240  0.00  0.00     0.000 C
ATOM    123  C4  SGN B   7      20.668  20.166  32.0490  0.00  0.00     0.000 C
ATOM    124  C5  SGN B   7      19.931  21.136  32.9870  0.00  0.00     0.000 C
ATOM    125  O5  SGN B   7      18.805  20.491  33.6210  0.00  0.00     0.000 O
ATOM    126   O  SGN B   7      21.726  17.971  31.9620  0.00  0.00     0.000 O
ATOM    128  HD  SGN B   7      21.154  18.140  32.5890  0.00  0.00     0.000 HD
BRANCH 121 130
ATOM    128   N  SGN B   7      19.150  17.355  34.3470  0.00  0.00     0.000 N
ATOM    130  HD  SGN B   7      18.781  17.022  33.6380  0.00  0.00     0.000 HD
ATOM    130   S  SGN B   7      19.502  15.785  34.4050  0.00  0.00     0.000 S
ATOM    131   O  SGN B   7      20.899  15.726  34.6670  0.00  0.00     0.000 OA
ATOM    132   O  SGN B   7      18.581  15.153  35.2810  0.00  0.00     0.000 OA
ATOM    133   O  SGN B   7      19.051  15.342  32.9720  0.00  0.00     0.000 OA
ENDBRANCH 121 130
BRANCH 124 134
ATOM    134   C  SGN B   7      19.346  22.329  32.2890  0.00  0.00     0.000 C
ATOM    135   O  SGN B   7      18.761  23.195  33.2760  0.00  0.00     0.000 O
ATOM    136   S  SGN B   7      18.228  24.581  32.7630  0.00  0.00     0.000 S
ATOM    137   O  SGN B   7      17.601  25.219  33.8960  0.00  0.00     0.000 OA
ATOM    138   O  SGN B   7      17.293  24.259  31.7080  0.00  0.00     0.000 OA
ATOM    139   O  SGN B   7      19.444  25.237  32.3110  0.00  0.00     0.000 OA
ENDBRANCH 124 134
BRANCH 120 140
ATOM    140  O4  IDS B   8      19.593  19.945  35.4920  0.00  0.00     0.000 O
BRANCH 140 144
ATOM    141  C1  IDS B   8      21.987  21.495  37.6890  0.00  0.00     0.000 C
ATOM    142  C2  IDS B   8      22.390  20.294  36.7870  0.00  0.00     0.000 C
ATOM    143  C3  IDS B   8      21.399  19.117  36.8710  0.00  0.00     0.000 C
ATOM    144  C4  IDS B   8      19.946  19.588  36.8340  0.00  0.00     0.000 C
ATOM    145  C5  IDS B   8      19.756  20.793  37.7680  0.00  0.00     0.000 C
ATOM    146  O5  IDS B   8      20.637  21.863  37.4340  0.00  0.00     0.000 O
BRANCH 142 147
ATOM    147   O  IDS B   8      22.433  20.732  35.3670  0.00  0.00     0.000 O
ATOM    148   S  IDS B   8      23.834  21.145  34.6620  0.00  0.00     0.000 S
ATOM    149   O  IDS B   8      24.803  21.370  35.7110  0.00  0.00     0.000 OA
ATOM    150   O  IDS B   8      24.181  20.025  33.8070  0.00  0.00     0.000 OA
ATOM    151   O  IDS B   8      23.546  22.358  33.9210  0.00  0.00     0.000 OA
ENDBRANCH 142 147
BRANCH 145 152
ATOM    152   C  IDS B   8      18.356  21.368  37.7000  0.00  0.00     0.000 C
ATOM    153   O  IDS B   8      17.410  20.707  38.1150  0.00  0.00     0.000 OA
ATOM    154   O  IDS B   8      18.187  22.488  37.2540  0.00  0.00     0.000 OA
ENDBRANCH 145 152
ENDBRANCH 140 144
ENDBRANCH 120 140
ENDBRANCH 119 123
ENDBRANCH 103 119
ENDBRANCH 102 106
ENDBRANCH 82 102
ENDBRANCH 81 85
ENDBRANCH 65 81
ENDBRANCH 64 68
ENDBRANCH 41 64
ENDBRANCH 40 44
ENDBRANCH 24 40
ENDBRANCH 23 27
ENDBRANCH 1 23
TORSDOF 31
ENDMDL
MODEL 16
REMARK VINA RESULT:      -6.2      7.725     11.897
ROOT
ATOM      1  C1  SGN B   1      39.995  25.751  16.4810  0.00  0.00     0.000 C
ATOM      2  C2  SGN B   1      40.924  26.394  17.5230  0.00  0.00     0.000 C
ATOM      3  C3  SGN B   1      40.252  26.432  18.9000  0.00  0.00     0.000 C
ATOM      4  C4  SGN B   1      38.910  27.151  18.8110  0.00  0.00     0.000 C
ATOM      5  C5  SGN B   1      38.098  26.554  17.6640  0.00  0.00     0.000 C
ATOM      6  O5  SGN B   1      38.867  26.615  16.4470  0.00  0.00     0.000 O
ATOM      7   O  SGN B   1      41.097  27.067  19.8520  0.00  0.00     0.000 O
ATOM      9  HD  SGN B   1      40.970  27.702  19.2770  0.00  0.00     0.000 HD
ATOM      9   O  SGN B   1      38.213  27.000  20.0340  0.00  0.00     0.000 O
ATOM     11  HD  SGN B   1      38.086  27.635  19.4590  0.00  0.00     0.000 HD
ENDROOT
BRANCH 2 13
ATOM     11   N  SGN B   1      42.142  26.718  16.7560  0.00  0.00     0.000 N
ATOM     13  HD  SGN B   1      41.795  25.926  16.7160  0.00  0.00     0.000 HD
ATOM     13   S  SGN B   1      43.241  25.606  16.3780  0.00  0.00     0.000 S
ATOM     14   O  SGN B   1      42.827  24.338  16.8380  0.00  0.00     0.000 OA
ATOM     15   O  SGN B   1      43.597  25.772  15.0090  0.00  0.00     0.000 OA
ATOM     16   O  SGN B   1      44.423  26.162  17.2320  0.00  0.00     0.000 OA
ENDBRANCH 2 13
BRANCH 5 17
ATOM     17   C  SGN B   1      36.790  27.258  17.4050  0.00  0.00     0.000 C
ATOM     18   O  SGN B   1      36.946  28.688  17.5090  0.00  0.00     0.000 O
ATOM     19   S  SGN B   1      35.817  29.458  18.3390  0.00  0.00     0.000 S
ATOM     20   O  SGN B   1      36.066  30.863  18.0970  0.00  0.00     0.000 OA
ATOM     21   O  SGN B   1      34.576  28.984  17.7710  0.00  0.00     0.000 OA
ATOM     22   O  SGN B   1      36.023  29.061  19.7150  0.00  0.00     0.000 OA
ENDBRANCH 5 17
BRANCH 1 23
ATOM     23  O4  IDS B   2      39.688  24.532  15.9530  0.00  0.00     0.000 O
BRANCH 23 27
ATOM     24  C1  IDS B   2      36.897  22.418  18.1840  0.00  0.00     0.000 C
ATOM     25  C2  IDS B   2      38.376  22.158  18.5460  0.00  0.00     0.000 C
ATOM     26  C3  IDS B   2      39.289  23.188  17.8870  0.00  0.00     0.000 C
ATOM     27  C4  IDS B   2      39.112  23.278  16.3770  0.00  0.00     0.000 C
ATOM     28  C5  IDS B   2      37.625  23.103  16.0090  0.00  0.00     0.000 C
ATOM     29  O5  IDS B   2      36.790  23.378  17.1240  0.00  0.00     0.000 O
ATOM     30   O  IDS B   2      40.645  22.843  18.1410  0.00  0.00     0.000 O
ATOM     32  HD  IDS B   2      40.938  22.210  17.6270  0.00  0.00     0.000 HD
BRANCH 25 32
ATOM     32   O  IDS B   2      38.614  22.220  20.0090  0.00  0.00     0.000 O
ATOM     33   S  IDS B   2      38.940  20.867  20.8970  0.00  0.00     0.000 S
ATOM     34   O  IDS B   2      38.889  21.276  22.2910  0.00  0.00     0.000 OA
ATOM     35   O  IDS B   2      37.945  19.845  20.6050  0.00  0.00     0.000 OA
ATOM     36   O  IDS B   2      40.273  20.462  20.5150  0.00  0.00     0.000 OA
ENDBRANCH 25 32
BRANCH 28 37
ATOM     37   C  IDS B   2      37.086  23.886  14.7940  0.00  0.00     0.000 C
ATOM     38   O  IDS B   2      37.428  23.405  13.7390  0.00  0.00     0.000 OA
ATOM     39   O  IDS B   2      36.317  24.878  14.8160  0.00  0.00     0.000 OA
ENDBRANCH 28 37
BRANCH 24 40
ATOM     40  O4  SUS B   3      35.939  21.572  18.6160  0.00  0.00     0.000 O
BRANCH 40 44
ATOM     41  C1  SUS B   3      31.919  22.276  19.5580  0.00  0.00     0.000 C
ATOM     42  C2  SUS B   3      32.341  22.458  18.0860  0.00  0.00     0.000 C
ATOM     43  C3  SUS B   3      33.654  21.718  17.8440  0.00  0.00     0.000 C
ATOM     44  C4  SUS B   3      34.687  22.207  18.8480  0.00  0.00     0.000 C
ATOM     45  C5  SUS B   3      34.199  21.889  20.2470  0.00  0.00     0.000 C
ATOM     46  O5  SUS B   3      32.971  22.612  20.4700  0.00  0.00     0.000 O
BRANCH 42 49
ATOM     47   N  SUS B   3      32.083  23.213  16.8480  0.00  0.00     0.000 N
ATOM     49  HD  SUS B   3      32.412  24.013  16.8070  0.00  0.00     0.000 HD
ATOM     49   S  SUS B   3      30.524  23.298  16.4890  0.00  0.00     0.000 S
ATOM     50   O  SUS B   3      29.817  23.885  17.5580  0.00  0.00     0.000 OA
ATOM     51   O  SUS B   3      30.665  24.297  15.3130  0.00  0.00     0.000 OA
ATOM     52   O  SUS B   3      30.083  22.043  16.0250  0.00  0.00     0.000 OA
ENDBRANCH 42 49
BRANCH 43 53
ATOM     53   O  SUS B   3      34.103  22.025  16.4720  0.00  0.00     0.000 O
ATOM     54   S  SUS B   3      34.141  20.780  15.4000  0.00  0.00     0.000 S
ATOM     55   O  SUS B   3      32.762  20.431  15.0870  0.00  0.00     0.000 OA
ATOM     56   O  SUS B   3      34.881  21.312  14.2690  0.00  0.00     0.000 OA
ATOM     57   O  SUS B   3      34.829  19.674  16.0720  0.00  0.00     0.000 OA
ENDBRANCH 43 53
BRANCH 45 58
ATOM     58   C  SUS B   3      35.221  22.257  21.3000  0.00  0.00     0.000 C
ATOM     59   S  SUS B   3      36.155  24.251  22.6180  0.00  0.00     0.000 S
ATOM     60   O  SUS B   3      35.037  23.630  21.6830  0.00  0.00     0.000 O
ATOM     61   O  SUS B   3      37.268  24.544  21.7350  0.00  0.00     0.000 OA
ATOM     62   O  SUS B   3      35.487  25.437  23.0820  0.00  0.00     0.000 OA
ATOM     63   O  SUS B   3      36.409  23.268  23.6110  0.00  0.00     0.000 OA
ENDBRANCH 45 58
BRANCH 41 64
ATOM     64  O4  IDS B   4      31.315  21.070  19.8160  0.00  0.00     0.000 O
BRANCH 64 68
ATOM     65  C1  IDS B   4      28.498  18.834  20.3960  0.00  0.00     0.000 C
ATOM     66  C2  IDS B   4      28.382  19.974  19.3760  0.00  0.00     0.000 C
ATOM     67  C3  IDS B   4      28.893  21.315  19.8730  0.00  0.00     0.000 C
ATOM     68  C4  IDS B   4      30.169  21.196  20.6860  0.00  0.00     0.000 C
ATOM     69  C5  IDS B   4      30.007  20.019  21.6570  0.00  0.00     0.000 C
ATOM     70  O5  IDS B   4      29.817  18.815  20.9110  0.00  0.00     0.000 O
ATOM     71   O  IDS B   4      27.873  21.885  20.6670  0.00  0.00     0.000 O
ATOM     73  HD  IDS B   4      28.202  21.342  20.0780  0.00  0.00     0.000 HD
BRANCH 66 73
ATOM     73   O  IDS B   4      29.210  19.648  18.2070  0.00  0.00     0.000 O
ATOM     74   S  IDS B   4      28.490  18.945  16.9400  0.00  0.00     0.000 S
ATOM     75   O  IDS B   4      27.863  17.741  17.4420  0.00  0.00     0.000 OA
ATOM     76   O  IDS B   4      29.607  18.702  16.0620  0.00  0.00     0.000 OA
ATOM     77   O  IDS B   4      27.545  19.917  16.4450  0.00  0.00     0.000 OA
ENDBRANCH 66 73
BRANCH 69 78
ATOM     78   C  IDS B   4      31.115  19.903  22.6960  0.00  0.00     0.000 C
ATOM     79   O  IDS B   4      31.888  20.848  22.8430  0.00  0.00     0.000 OA
ATOM     80   O  IDS B   4      31.136  18.901  23.4350  0.00  0.00     0.000 OA
ENDBRANCH 69 78
BRANCH 65 81
ATOM     81  O4  SGN B   5      27.487  18.933  21.3030  0.00  0.00     0.000 O
BRANCH 81 85
ATOM     82  C1  SGN B   5      24.902  16.647  23.6970  0.00  0.00     0.000 C
ATOM     83  C2  SGN B   5      26.261  17.027  24.3040  0.00  0.00     0.000 C
ATOM     84  C3  SGN B   5      26.859  18.207  23.5250  0.00  0.00     0.000 C
ATOM     85  C4  SGN B   5      26.942  17.844  22.0530  0.00  0.00     0.000 C
ATOM     86  C5  SGN B   5      25.537  17.510  21.5600  0.00  0.00     0.000 C
ATOM     87  O5  SGN B   5      25.038  16.388  22.3130  0.00  0.00     0.000 O
ATOM     88   O  SGN B   5      28.133  18.526  24.0400  0.00  0.00     0.000 O
ATOM     90  HD  SGN B   5      27.402  18.960  24.2050  0.00  0.00     0.000 HD
BRANCH 83 92
ATOM     90   N  SGN B   5      25.829  17.136  25.7110  0.00  0.00     0.000 N
ATOM     92  HD  SGN B   5      24.971  17.248  25.7640  0.00  0.00     0.000 HD
ATOM     92   S  SGN B   5      26.444  16.108  26.7680  0.00  0.00     0.000 S
ATOM     93   O  SGN B   5      25.831  16.467  28.0110  0.00  0.00     0.000 OA
ATOM     94   O  SGN B   5      26.233  14.814  26.2160  0.00  0.00     0.000 OA
ATOM     95   O  SGN B   5      27.934  16.373  26.7390  0.00  0.00     0.000 OA
ENDBRANCH 83 92
BRANCH 86 96
ATOM     96   C  SGN B   5      25.464  17.138  20.0940  0.00  0.00     0.000 C
ATOM     97   O  SGN B   5      25.735  15.746  19.9150  0.00  0.00     0.000 O
ATOM     98   S  SGN B   5      24.671  14.926  19.0390  0.00  0.00     0.000 S
ATOM     99   O  SGN B   5      25.314  13.645  18.8750  0.00  0.00     0.000 OA
ATOM    100   O  SGN B   5      23.456  14.890  19.7700  0.00  0.00     0.000 OA
ATOM    101   O  SGN B   5      24.566  15.667  17.8240  0.00  0.00     0.000 OA
ENDBRANCH 86 96
BRANCH 82 102
ATOM    102  O4  IDS B   6      23.948  17.596  23.9110  0.00  0.00     0.000 O
BRANCH 102 106
ATOM    103  C1  IDS B   6      20.802  18.836  25.2610  0.00  0.00     0.000 C
ATOM    104  C2  IDS B   6      21.722  17.942  26.1070  0.00  0.00     0.000 C
ATOM    105  C3  IDS B   6      22.241  16.704  25.4020  0.00  0.00     0.000 C
ATOM    106  C4  IDS B   6      22.639  16.973  23.9610  0.00  0.00     0.000 C
ATOM    107  C5  IDS B   6      21.587  17.861  23.2910  0.00  0.00     0.000 C
ATOM    108  O5  IDS B   6      21.394  19.086  24.0010  0.00  0.00     0.000 O
ATOM    109   O  IDS B   6      21.238  15.704  25.4690  0.00  0.00     0.000 O
ATOM    111  HD  IDS B   6      20.505  16.152  25.5870  0.00  0.00     0.000 HD
BRANCH 104 111
ATOM    111   O  IDS B   6      22.921  18.707  26.4820  0.00  0.00     0.000 O
ATOM    112   S  IDS B   6      23.072  19.172  28.0060  0.00  0.00     0.000 S
ATOM    113   O  IDS B   6      21.890  19.981  28.2610  0.00  0.00     0.000 OA
ATOM    114   O  IDS B   6      23.187  17.975  28.8470  0.00  0.00     0.000 OA
ATOM    115   O  IDS B   6      24.296  19.937  27.8970  0.00  0.00     0.000 OA
ENDBRANCH 104 111
BRANCH 107 116
ATOM    116   C  IDS B   6      22.013  18.155  21.8590  0.00  0.00     0.000 C
ATOM    117   O  IDS B   6      22.416  19.267  21.6300  0.00  0.00     0.000 OA
ATOM    118   O  IDS B   6      21.939  17.304  20.9870  0.00  0.00     0.000 OA
ENDBRANCH 107 116
BRANCH 103 119
ATOM    119  O4  SGN B   7      19.588  18.236  25.3640  0.00  0.00     0.000 O
BRANCH 119 123
ATOM    120  C1  SGN B   7      15.585  19.435  25.1960  0.00  0.00     0.000 C
ATOM    121  C2  SGN B   7      16.420  19.555  23.9070  0.00  0.00     0.000 C
ATOM    122  C3  SGN B   7      17.703  18.721  24.0180  0.00  0.00     0.000 C
ATOM    123  C4  SGN B   7      18.458  19.105  25.2790  0.00  0.00     0.000 C
ATOM    124  C5  SGN B   7      17.540  18.959  26.5040  0.00  0.00     0.000 C
ATOM    125  O5  SGN B   7      16.347  19.762  26.3570  0.00  0.00     0.000 O
ATOM    126   O  SGN B   7      18.500  18.933  22.8470  0.00  0.00     0.000 O
ATOM    128  HD  SGN B   7      17.741  19.043  23.2510  0.00  0.00     0.000 HD
BRANCH 121 130
ATOM    128   N  SGN B   7      15.295  20.300  23.3370  0.00  0.00     0.000 N
ATOM    130  HD  SGN B   7      15.844  20.838  22.9390  0.00  0.00     0.000 HD
ATOM    130   S  SGN B   7      14.902  20.202  21.7780  0.00  0.00     0.000 S
ATOM    131   O  SGN B   7      14.827  18.809  21.4990  0.00  0.00     0.000 OA
ATOM    132   O  SGN B   7      13.782  21.042  21.5470  0.00  0.00     0.000 OA
ATOM    133   O  SGN B   7      16.109  20.967  21.1360  0.00  0.00     0.000 OA
ENDBRANCH 121 130
BRANCH 124 134
ATOM    134   C  SGN B   7      18.161  19.427  27.7870  0.00  0.00     0.000 C
ATOM    135   O  SGN B   7      17.304  20.421  28.3750  0.00  0.00     0.000 O
ATOM    136   S  SGN B   7      17.701  20.929  29.8070  0.00  0.00     0.000 S
ATOM    137   O  SGN B   7      16.769  21.981  30.1370  0.00  0.00     0.000 OA
ATOM    138   O  SGN B   7      19.061  21.400  29.6780  0.00  0.00     0.000 OA
ATOM    139   O  SGN B   7      17.552  19.730  30.6170  0.00  0.00     0.000 OA
ENDBRANCH 124 134
BRANCH 120 140
ATOM    140  O4  IDS B   8      14.943  18.359  25.6630  0.00  0.00     0.000 O
BRANCH 140 144
ATOM    141  C1  IDS B   8      12.460  16.752  27.7170  0.00  0.00     0.000 C
ATOM    142  C2  IDS B   8      13.775  16.017  27.3290  0.00  0.00     0.000 C
ATOM    143  C3  IDS B   8      14.092  16.101  25.8250  0.00  0.00     0.000 C
ATOM    144  C4  IDS B   8      13.862  17.505  25.2680  0.00  0.00     0.000 C
ATOM    145  C5  IDS B   8      12.529  18.068  25.7830  0.00  0.00     0.000 C
ATOM    146  O5  IDS B   8      12.477  18.080  27.2070  0.00  0.00     0.000 O
BRANCH 142 147
ATOM    147   O  IDS B   8      14.918  16.631  28.0540  0.00  0.00     0.000 O
ATOM    148   S  IDS B   8      15.591  15.892  29.3310  0.00  0.00     0.000 S
ATOM    149   O  IDS B   8      14.670  14.875  29.7850  0.00  0.00     0.000 OA
ATOM    150   O  IDS B   8      16.842  15.340  28.8440  0.00  0.00     0.000 OA
ATOM    151   O  IDS B   8      15.778  16.935  30.3220  0.00  0.00     0.000 OA
ENDBRANCH 142 147
BRANCH 145 152
ATOM    152   C  IDS B   8      12.291  19.498  25.3440  0.00  0.00     0.000 C
ATOM    153   O  IDS B   8      12.209  20.383  26.1880  0.00  0.00     0.000 OA
ATOM    154   O  IDS B   8      12.206  19.757  24.1570  0.00  0.00     0.000 OA
ENDBRANCH 145 152
ENDBRANCH 140 144
ENDBRANCH 120 140
ENDBRANCH 119 123
ENDBRANCH 103 119
ENDBRANCH 102 106
ENDBRANCH 82 102
ENDBRANCH 81 85
ENDBRANCH 65 81
ENDBRANCH 64 68
ENDBRANCH 41 64
ENDBRANCH 40 44
ENDBRANCH 24 40
ENDBRANCH 23 27
ENDBRANCH 1 23
TORSDOF 31
ENDMDL
MODEL 17
REMARK VINA RESULT:      -6.1     20.920     34.076
ROOT
ATOM      1  C1  SGN B   1      40.443  10.602  27.8040  0.00  0.00     0.000 C
ATOM      2  C2  SGN B   1      39.836  11.210  29.0790  0.00  0.00     0.000 C
ATOM      3  C3  SGN B   1      40.812  11.092  30.2550  0.00  0.00     0.000 C
ATOM      4  C4  SGN B   1      41.221   9.637  30.4560  0.00  0.00     0.000 C
ATOM      5  C5  SGN B   1      41.679   9.058  29.1200  0.00  0.00     0.000 C
ATOM      6  O5  SGN B   1      40.641   9.234  28.1370  0.00  0.00     0.000 O
ATOM      7   O  SGN B   1      40.230  11.616  31.4430  0.00  0.00     0.000 O
ATOM      9  HD  SGN B   1      39.685  10.971  31.2490  0.00  0.00     0.000 HD
ATOM      9   O  SGN B   1      42.271   9.570  31.4040  0.00  0.00     0.000 O
ATOM     11  HD  SGN B   1      41.726   8.924  31.2100  0.00  0.00     0.000 HD
ENDROOT
BRANCH 2 13
ATOM     11   N  SGN B   1      38.537  11.632  28.5210  0.00  0.00     0.000 N
ATOM     13  HD  SGN B   1      39.277  11.942  28.1960  0.00  0.00     0.000 HD
ATOM     13   S  SGN B   1      38.326  13.068  27.8270  0.00  0.00     0.000 S
ATOM     14   O  SGN B   1      39.543  13.780  27.8040  0.00  0.00     0.000 OA
ATOM     15   O  SGN B   1      37.601  12.880  26.6160  0.00  0.00     0.000 OA
ATOM     16   O  SGN B   1      37.334  13.674  28.8680  0.00  0.00     0.000 OA
ENDBRANCH 2 13
BRANCH 5 17
ATOM     17   C  SGN B   1      42.007   7.586  29.1680  0.00  0.00     0.000 C
ATOM     18   O  SGN B   1      41.398   6.960  30.3150  0.00  0.00     0.000 O
ATOM     19   S  SGN B   1      42.333   5.970  31.1530  0.00  0.00     0.000 S
ATOM     20   O  SGN B   1      41.441   5.308  32.0820  0.00  0.00     0.000 OA
ATOM     21   O  SGN B   1      42.891   5.086  30.1570  0.00  0.00     0.000 OA
ATOM     22   O  SGN B   1      43.308   6.824  31.7950  0.00  0.00     0.000 OA
ENDBRANCH 5 17
BRANCH 1 23
ATOM     23  O4  IDS B   2      41.203  10.953  26.7280  0.00  0.00     0.000 O
BRANCH 23 27
ATOM     24  C1  IDS B   2      42.949  11.493  23.0010  0.00  0.00     0.000 C
ATOM     25  C2  IDS B   2      41.820  12.486  23.3590  0.00  0.00     0.000 C
ATOM     26  C3  IDS B   2      41.461  12.392  24.8390  0.00  0.00     0.000 C
ATOM     27  C4  IDS B   2      41.101  10.982  25.2890  0.00  0.00     0.000 C
ATOM     28  C5  IDS B   2      41.994   9.954  24.5650  0.00  0.00     0.000 C
ATOM     29  O5  IDS B   2      43.176  10.567  24.0720  0.00  0.00     0.000 O
ATOM     30   O  IDS B   2      40.339  13.226  25.1020  0.00  0.00     0.000 O
ATOM     32  HD  IDS B   2      39.585  12.870  24.8660  0.00  0.00     0.000 HD
BRANCH 25 32
ATOM     32   O  IDS B   2      42.200  13.892  23.0780  0.00  0.00     0.000 O
ATOM     33   S  IDS B   2      41.234  14.895  22.1940  0.00  0.00     0.000 S
ATOM     34   O  IDS B   2      42.019  16.093  21.9390  0.00  0.00     0.000 OA
ATOM     35   O  IDS B   2      40.855  14.234  20.9530  0.00  0.00     0.000 OA
ATOM     36   O  IDS B   2      40.095  15.182  23.0350  0.00  0.00     0.000 OA
ENDBRANCH 25 32
BRANCH 28 37
ATOM     37   C  IDS B   2      42.395   8.679  25.3360  0.00  0.00     0.000 C
ATOM     38   O  IDS B   2      43.504   8.748  25.8100  0.00  0.00     0.000 OA
ATOM     39   O  IDS B   2      41.679   7.670  25.5490  0.00  0.00     0.000 OA
ENDBRANCH 28 37
BRANCH 24 40
ATOM     40  O4  SUS B   3      43.362  11.378  21.7220  0.00  0.00     0.000 O
BRANCH 40 44
ATOM     41  C1  SUS B   3      47.200  10.772  20.1570  0.00  0.00     0.000 C
ATOM     42  C2  SUS B   3      46.620   9.659  21.0520  0.00  0.00     0.000 C
ATOM     43  C3  SUS B   3      45.102   9.811  21.1240  0.00  0.00     0.000 C
ATOM     44  C4  SUS B   3      44.771  11.218  21.5950  0.00  0.00     0.000 C
ATOM     45  C5  SUS B   3      45.313  12.212  20.5880  0.00  0.00     0.000 C
ATOM     46  O5  SUS B   3      46.747  12.073  20.5460  0.00  0.00     0.000 O
BRANCH 42 49
ATOM     47   N  SUS B   3      46.889   8.539  21.9710  0.00  0.00     0.000 N
ATOM     49  HD  SUS B   3      46.967   8.738  22.8100  0.00  0.00     0.000 HD
ATOM     49   S  SUS B   3      48.171   7.681  21.5400  0.00  0.00     0.000 S
ATOM     50   O  SUS B   3      49.305   8.516  21.4670  0.00  0.00     0.000 OA
ATOM     51   O  SUS B   3      48.228   6.794  22.8100  0.00  0.00     0.000 OA
ATOM     52   O  SUS B   3      47.856   6.907  20.4060  0.00  0.00     0.000 OA
ENDBRANCH 42 49
BRANCH 43 53
ATOM     53   O  SUS B   3      44.592   8.824  22.0950  0.00  0.00     0.000 O
ATOM     54   S  SUS B   3      43.676   7.594  21.5030  0.00  0.00     0.000 S
ATOM     55   O  SUS B   3      44.562   6.708  20.7620  0.00  0.00     0.000 OA
ATOM     56   O  SUS B   3      43.095   6.986  22.6870  0.00  0.00     0.000 OA
ATOM     57   O  SUS B   3      42.678   8.207  20.6210  0.00  0.00     0.000 OA
ENDBRANCH 43 53
BRANCH 45 58
ATOM     58   C  SUS B   3      44.935  13.635  20.9360  0.00  0.00     0.000 C
ATOM     59   S  SUS B   3      45.772  15.712  22.1910  0.00  0.00     0.000 S
ATOM     60   O  SUS B   3      46.053  14.285  21.5630  0.00  0.00     0.000 O
ATOM     61   O  SUS B   3      45.097  15.447  23.4470  0.00  0.00     0.000 OA
ATOM     62   O  SUS B   3      47.115  16.194  22.3720  0.00  0.00     0.000 OA
ATOM     63   O  SUS B   3      45.002  16.408  21.2220  0.00  0.00     0.000 OA
ENDBRANCH 45 58
BRANCH 41 64
ATOM     64  O4  IDS B   4      47.086  10.516  18.8120  0.00  0.00     0.000 O
BRANCH 64 68
ATOM     65  C1  IDS B   4      47.971  10.240  15.2890  0.00  0.00     0.000 C
ATOM     66  C2  IDS B   4      48.750   9.446  16.3450  0.00  0.00     0.000 C
ATOM     67  C3  IDS B   4      49.160  10.257  17.5630  0.00  0.00     0.000 C
ATOM     68  C4  IDS B   4      48.078  11.214  18.0260  0.00  0.00     0.000 C
ATOM     69  C5  IDS B   4      47.496  11.912  16.7900  0.00  0.00     0.000 C
ATOM     70  O5  IDS B   4      46.913  10.933  15.9270  0.00  0.00     0.000 O
ATOM     71   O  IDS B   4      50.321  10.982  17.2130  0.00  0.00     0.000 O
ATOM     73  HD  IDS B   4      49.727  10.358  17.1280  0.00  0.00     0.000 HD
BRANCH 66 73
ATOM     73   O  IDS B   4      47.889   8.373  16.8610  0.00  0.00     0.000 O
ATOM     74   S  IDS B   4      48.423   6.851  16.7460  0.00  0.00     0.000 S
ATOM     75   O  IDS B   4      48.702   6.619  15.3450  0.00  0.00     0.000 OA
ATOM     76   O  IDS B   4      47.300   6.103  17.2520  0.00  0.00     0.000 OA
ATOM     77   O  IDS B   4      49.600   6.791  17.5800  0.00  0.00     0.000 OA
ENDBRANCH 66 73
BRANCH 69 78
ATOM     78   C  IDS B   4      46.551  13.063  17.1030  0.00  0.00     0.000 C
ATOM     79   O  IDS B   4      46.946  13.970  17.8350  0.00  0.00     0.000 OA
ATOM     80   O  IDS B   4      45.449  13.104  16.5250  0.00  0.00     0.000 OA
ENDBRANCH 69 78
BRANCH 65 81
ATOM     81  O4  SGN B   5      48.839  10.989  14.5540  0.00  0.00     0.000 O
BRANCH 81 85
ATOM     82  C1  SGN B   5      49.320  12.816  10.8030  0.00  0.00     0.000 C
ATOM     83  C2  SGN B   5      47.943  12.946  11.4710  0.00  0.00     0.000 C
ATOM     84  C3  SGN B   5      48.071  12.652  12.9720  0.00  0.00     0.000 C
ATOM     85  C4  SGN B   5      48.700  11.282  13.1620  0.00  0.00     0.000 C
ATOM     86  C5  SGN B   5      50.065  11.282  12.4790  0.00  0.00     0.000 C
ATOM     87  O5  SGN B   5      49.879  11.544  11.0750  0.00  0.00     0.000 O
ATOM     88   O  SGN B   5      46.801  12.714  13.5830  0.00  0.00     0.000 O
ATOM     90  HD  SGN B   5      47.406  13.333  13.6170  0.00  0.00     0.000 HD
BRANCH 83 92
ATOM     90   N  SGN B   5      47.779  13.772  10.2590  0.00  0.00     0.000 N
ATOM     92  HD  SGN B   5      48.166  13.404   9.5770  0.00  0.00     0.000 HD
ATOM     92   S  SGN B   5      46.337  14.394   9.9640  0.00  0.00     0.000 S
ATOM     93   O  SGN B   5      46.507  15.119   8.7400  0.00  0.00     0.000 OA
ATOM     94   O  SGN B   5      45.426  13.303  10.0250  0.00  0.00     0.000 OA
ATOM     95   O  SGN B   5      46.052  15.287  11.1520  0.00  0.00     0.000 OA
ENDBRANCH 83 92
BRANCH 86 96
ATOM     96   C  SGN B   5      50.819   9.974  12.5980  0.00  0.00     0.000 C
ATOM     97   O  SGN B   5      52.173  10.209  12.9900  0.00  0.00     0.000 O
ATOM     98   S  SGN B   5      52.704   9.355  14.2400  0.00  0.00     0.000 S
ATOM     99   O  SGN B   5      54.116   9.657  14.2540  0.00  0.00     0.000 OA
ATOM    100   O  SGN B   5      51.994   9.793  15.3870  0.00  0.00     0.000 OA
ATOM    101   O  SGN B   5      52.419   8.001  13.8910  0.00  0.00     0.000 OA
ENDBRANCH 86 96
BRANCH 82 102
ATOM    102  O4  IDS B   6      50.181  13.803  11.1780  0.00  0.00     0.000 O
BRANCH 102 106
ATOM    103  C1  IDS B   6      52.714  16.170  10.0640  0.00  0.00     0.000 C
ATOM    104  C2  IDS B   6      51.693  15.587   9.0740  0.00  0.00     0.000 C
ATOM    105  C3  IDS B   6      51.505  14.085   9.1540  0.00  0.00     0.000 C
ATOM    106  C4  IDS B   6      51.483  13.571  10.5830  0.00  0.00     0.000 C
ATOM    107  C5  IDS B   6      52.584  14.258  11.3960  0.00  0.00     0.000 C
ATOM    108  O5  IDS B   6      52.459  15.681  11.3670  0.00  0.00     0.000 O
ATOM    109   O  IDS B   6      52.547  13.470   8.4140  0.00  0.00     0.000 O
ATOM    111  HD  IDS B   6      53.174  14.067   8.4000  0.00  0.00     0.000 HD
BRANCH 104 111
ATOM    111   O  IDS B   6      50.369  16.160   9.3600  0.00  0.00     0.000 O
ATOM    112   S  IDS B   6      49.744  17.181   8.2960  0.00  0.00     0.000 S
ATOM    113   O  IDS B   6      50.719  18.256   8.2050  0.00  0.00     0.000 OA
ATOM    114   O  IDS B   6      49.510  16.458   7.0410  0.00  0.00     0.000 OA
ATOM    115   O  IDS B   6      48.534  17.543   9.0020  0.00  0.00     0.000 OA
ENDBRANCH 104 111
BRANCH 107 116
ATOM    116   C  IDS B   6      52.530  13.764  12.8360  0.00  0.00     0.000 C
ATOM    117   O  IDS B   6      53.352  12.944  13.1590  0.00  0.00     0.000 OA
ATOM    118   O  IDS B   6      51.688  14.175  13.6180  0.00  0.00     0.000 OA
ENDBRANCH 107 116
BRANCH 103 119
ATOM    119  O4  SGN B   7      53.909  15.962   9.4530  0.00  0.00     0.000 O
BRANCH 119 123
ATOM    120  C1  SGN B   7      57.907  16.935  10.2010  0.00  0.00     0.000 C
ATOM    121  C2  SGN B   7      57.310  15.736  10.9620  0.00  0.00     0.000 C
ATOM    122  C3  SGN B   7      56.009  15.270  10.2960  0.00  0.00     0.000 C
ATOM    123  C4  SGN B   7      55.055  16.445  10.1530  0.00  0.00     0.000 C
ATOM    124  C5  SGN B   7      55.744  17.587   9.3890  0.00  0.00     0.000 C
ATOM    125  O5  SGN B   7      56.963  17.994  10.0510  0.00  0.00     0.000 O
ATOM    126   O  SGN B   7      55.432  14.222  11.0840  0.00  0.00     0.000 O
ATOM    128  HD  SGN B   7      56.111  14.736  10.9280  0.00  0.00     0.000 HD
BRANCH 121 130
ATOM    128   N  SGN B   7      58.556  15.730  11.7320  0.00  0.00     0.000 N
ATOM    130  HD  SGN B   7      58.113  15.588  12.4620  0.00  0.00     0.000 HD
ATOM    130   S  SGN B   7      59.188  14.376  12.3340  0.00  0.00     0.000 S
ATOM    131   O  SGN B   7      59.220  13.463  11.2440  0.00  0.00     0.000 OA
ATOM    132   O  SGN B   7      60.380  14.710  13.0270  0.00  0.00     0.000 OA
ATOM    133   O  SGN B   7      58.150  14.061  13.4640  0.00  0.00     0.000 OA
ENDBRANCH 121 130
BRANCH 124 134
ATOM    134   C  SGN B   7      54.922  18.838   9.2970  0.00  0.00     0.000 C
ATOM    135   O  SGN B   7      55.452  19.658   8.2410  0.00  0.00     0.000 O
ATOM    136   S  SGN B   7      54.635  20.950   7.8800  0.00  0.00     0.000 S
ATOM    137   O  SGN B   7      55.406  21.653   6.8830  0.00  0.00     0.000 OA
ATOM    138   O  SGN B   7      54.517  21.681   9.1210  0.00  0.00     0.000 OA
ATOM    139   O  SGN B   7      53.383  20.400   7.3830  0.00  0.00     0.000 OA
ENDBRANCH 124 134
BRANCH 120 140
ATOM    140  O4  IDS B   8      58.434  16.949   8.9720  0.00  0.00     0.000 O
BRANCH 140 144
ATOM    141  C1  IDS B   8      58.884  15.594   5.6670  0.00  0.00     0.000 C
ATOM    142  C2  IDS B   8      58.695  14.660   6.8950  0.00  0.00     0.000 C
ATOM    143  C3  IDS B   8      59.606  15.030   8.0810  0.00  0.00     0.000 C
ATOM    144  C4  IDS B   8      59.644  16.538   8.3240  0.00  0.00     0.000 C
ATOM    145  C5  IDS B   8      59.810  17.285   6.9920  0.00  0.00     0.000 C
ATOM    146  O5  IDS B   8      58.775  16.954   6.0690  0.00  0.00     0.000 O
BRANCH 142 147
ATOM    147   O  IDS B   8      57.291  14.748   7.3750  0.00  0.00     0.000 O
ATOM    148   S  IDS B   8      56.223  13.570   7.0540  0.00  0.00     0.000 S
ATOM    149   O  IDS B   8      56.768  12.763   5.9850  0.00  0.00     0.000 OA
ATOM    150   O  IDS B   8      56.075  12.833   8.2950  0.00  0.00     0.000 OA
ATOM    151   O  IDS B   8      55.009  14.255   6.6510  0.00  0.00     0.000 OA
ENDBRANCH 142 147
BRANCH 145 152
ATOM    152   C  IDS B   8      59.756  18.791   7.1570  0.00  0.00     0.000 C
ATOM    153   O  IDS B   8      60.767  19.399   7.4880  0.00  0.00     0.000 OA
ATOM    154   O  IDS B   8      58.714  19.383   6.9400  0.00  0.00     0.000 OA
ENDBRANCH 145 152
ENDBRANCH 140 144
ENDBRANCH 120 140
ENDBRANCH 119 123
ENDBRANCH 103 119
ENDBRANCH 102 106
ENDBRANCH 82 102
ENDBRANCH 81 85
ENDBRANCH 65 81
ENDBRANCH 64 68
ENDBRANCH 41 64
ENDBRANCH 40 44
ENDBRANCH 24 40
ENDBRANCH 23 27
ENDBRANCH 1 23
TORSDOF 31
ENDMDL
MODEL 18
REMARK VINA RESULT:      -6.1     15.161     19.317
ROOT
ATOM      1  C1  SGN B   1      38.763  14.889  33.5750  0.00  0.00     0.000 C
ATOM      2  C2  SGN B   1      38.908  14.322  32.1530  0.00  0.00     0.000 C
ATOM      3  C3  SGN B   1      40.338  13.832  31.9070  0.00  0.00     0.000 C
ATOM      4  C4  SGN B   1      41.334  14.955  32.1780  0.00  0.00     0.000 C
ATOM      5  C5  SGN B   1      41.040  15.563  33.5480  0.00  0.00     0.000 C
ATOM      6  O5  SGN B   1      39.664  15.987  33.6010  0.00  0.00     0.000 O
ATOM      7   O  SGN B   1      40.480  13.350  30.5760  0.00  0.00     0.000 O
ATOM      9  HD  SGN B   1      40.264  14.177  30.4410  0.00  0.00     0.000 HD
ATOM      9   O  SGN B   1      42.650  14.434  32.1470  0.00  0.00     0.000 O
ATOM     11  HD  SGN B   1      42.434  15.262  32.0120  0.00  0.00     0.000 HD
ENDROOT
BRANCH 2 13
ATOM     11   N  SGN B   1      37.523  14.544  31.6950  0.00  0.00     0.000 N
ATOM     13  HD  SGN B   1      37.684  14.040  32.3810  0.00  0.00     0.000 HD
ATOM     13   S  SGN B   1      36.359  13.456  31.9210  0.00  0.00     0.000 S
ATOM     14   O  SGN B   1      36.861  12.349  32.6370  0.00  0.00     0.000 OA
ATOM     15   O  SGN B   1      35.198  14.130  32.3970  0.00  0.00     0.000 OA
ATOM     16   O  SGN B   1      36.099  13.095  30.4260  0.00  0.00     0.000 OA
ENDBRANCH 2 13
BRANCH 5 17
ATOM     17   C  SGN B   1      41.893  16.761  33.8840  0.00  0.00     0.000 C
ATOM     18   O  SGN B   1      42.015  17.641  32.7490  0.00  0.00     0.000 O
ATOM     19   S  SGN B   1      43.486  18.187  32.4390  0.00  0.00     0.000 S
ATOM     20   O  SGN B   1      43.303  19.208  31.4300  0.00  0.00     0.000 OA
ATOM     21   O  SGN B   1      43.945  18.703  33.7080  0.00  0.00     0.000 OA
ATOM     22   O  SGN B   1      44.226  17.035  31.9710  0.00  0.00     0.000 OA
ENDBRANCH 5 17
BRANCH 1 23
ATOM     23  O4  IDS B   2      38.448  14.490  34.8410  0.00  0.00     0.000 O
BRANCH 23 27
ATOM     24  C1  IDS B   2      34.500  14.087  36.0560  0.00  0.00     0.000 C
ATOM     25  C2  IDS B   2      35.003  15.538  35.8930  0.00  0.00     0.000 C
ATOM     26  C3  IDS B   2      36.345  15.573  35.1670  0.00  0.00     0.000 C
ATOM     27  C4  IDS B   2      37.411  14.703  35.8210  0.00  0.00     0.000 C
ATOM     28  C5  IDS B   2      36.774  13.410  36.3670  0.00  0.00     0.000 C
ATOM     29  O5  IDS B   2      35.533  13.147  35.7300  0.00  0.00     0.000 O
ATOM     30   O  IDS B   2      36.833  16.909  35.1480  0.00  0.00     0.000 O
ATOM     32  HD  IDS B   2      37.197  17.151  35.8960  0.00  0.00     0.000 HD
BRANCH 25 32
ATOM     32   O  IDS B   2      34.054  16.378  35.1200  0.00  0.00     0.000 O
ATOM     33   S  IDS B   2      33.345  17.717  35.7730  0.00  0.00     0.000 S
ATOM     34   O  IDS B   2      32.329  18.141  34.8230  0.00  0.00     0.000 OA
ATOM     35   O  IDS B   2      32.759  17.375  37.0610  0.00  0.00     0.000 OA
ATOM     36   O  IDS B   2      34.398  18.699  35.8900  0.00  0.00     0.000 OA
ENDBRANCH 25 32
BRANCH 28 37
ATOM     37   C  IDS B   2      37.619  12.120  36.3320  0.00  0.00     0.000 C
ATOM     38   O  IDS B   2      38.456  12.085  37.2040  0.00  0.00     0.000 OA
ATOM     39   O  IDS B   2      37.471  11.140  35.5610  0.00  0.00     0.000 OA
ENDBRANCH 28 37
BRANCH 24 40
ATOM     40  O4  SUS B   3      33.359  13.842  36.7330  0.00  0.00     0.000 O
BRANCH 40 44
ATOM     41  C1  SUS B   3      30.463  10.865  36.1870  0.00  0.00     0.000 C
ATOM     42  C2  SUS B   3      31.828  10.426  36.7540  0.00  0.00     0.000 C
ATOM     43  C3  SUS B   3      32.551  11.643  37.3260  0.00  0.00     0.000 C
ATOM     44  C4  SUS B   3      32.645  12.711  36.2480  0.00  0.00     0.000 C
ATOM     45  C5  SUS B   3      31.244  13.122  35.8410  0.00  0.00     0.000 C
ATOM     46  O5  SUS B   3      30.581  11.970  35.2830  0.00  0.00     0.000 O
BRANCH 42 49
ATOM     47   N  SUS B   3      31.471   9.083  36.2660  0.00  0.00     0.000 N
ATOM     49  HD  SUS B   3      30.625   8.912  36.1850  0.00  0.00     0.000 HD
ATOM     49   S  SUS B   3      32.133   7.912  37.1370  0.00  0.00     0.000 S
ATOM     50   O  SUS B   3      31.749   8.043  38.4870  0.00  0.00     0.000 OA
ATOM     51   O  SUS B   3      31.376   6.738  36.4650  0.00  0.00     0.000 OA
ATOM     52   O  SUS B   3      33.511   7.843  36.8540  0.00  0.00     0.000 OA
ENDBRANCH 42 49
BRANCH 43 53
ATOM     53   O  SUS B   3      33.905  11.219  37.7320  0.00  0.00     0.000 O
ATOM     54   S  SUS B   3      34.286  11.351  39.3250  0.00  0.00     0.000 S
ATOM     55   O  SUS B   3      33.532  10.329  40.0400  0.00  0.00     0.000 OA
ATOM     56   O  SUS B   3      35.723  11.150  39.3610  0.00  0.00     0.000 OA
ATOM     57   O  SUS B   3      33.879  12.697  39.7390  0.00  0.00     0.000 OA
ENDBRANCH 43 53
BRANCH 45 58
ATOM     58   C  SUS B   3      31.254  14.256  34.8400  0.00  0.00     0.000 C
ATOM     59   S  SUS B   3      30.663  14.826  32.4090  0.00  0.00     0.000 S
ATOM     60   O  SUS B   3      30.564  13.845  33.6480  0.00  0.00     0.000 O
ATOM     61   O  SUS B   3      31.979  14.595  31.8450  0.00  0.00     0.000 OA
ATOM     62   O  SUS B   3      29.605  14.316  31.5780  0.00  0.00     0.000 OA
ATOM     63   O  SUS B   3      30.447  16.127  32.9360  0.00  0.00     0.000 OA
ENDBRANCH 45 58
BRANCH 41 64
ATOM     64  O4  IDS B   4      29.491  11.024  37.1440  0.00  0.00     0.000 O
BRANCH 64 68
ATOM     65  C1  IDS B   4      26.240  11.078  38.7890  0.00  0.00     0.000 C
ATOM     66  C2  IDS B   4      26.940   9.743  38.5060  0.00  0.00     0.000 C
ATOM     67  C3  IDS B   4      27.505   9.616  37.1010  0.00  0.00     0.000 C
ATOM     68  C4  IDS B   4      28.156  10.895  36.6090  0.00  0.00     0.000 C
ATOM     69  C5  IDS B   4      27.236  12.068  36.9720  0.00  0.00     0.000 C
ATOM     70  O5  IDS B   4      27.096  12.134  38.3930  0.00  0.00     0.000 O
ATOM     71   O  IDS B   4      26.434   9.266  36.2480  0.00  0.00     0.000 O
ATOM     73  HD  IDS B   4      26.837   9.358  37.0090  0.00  0.00     0.000 HD
BRANCH 66 73
ATOM     73   O  IDS B   4      28.095   9.614  39.4050  0.00  0.00     0.000 O
ATOM     74   S  IDS B   4      28.249   8.244  40.2510  0.00  0.00     0.000 S
ATOM     75   O  IDS B   4      27.025   8.090  41.0070  0.00  0.00     0.000 OA
ATOM     76   O  IDS B   4      29.408   8.524  41.0610  0.00  0.00     0.000 OA
ATOM     77   O  IDS B   4      28.448   7.205  39.2690  0.00  0.00     0.000 OA
ENDBRANCH 66 73
BRANCH 69 78
ATOM     78   C  IDS B   4      27.640  13.400  36.3540  0.00  0.00     0.000 C
ATOM     79   O  IDS B   4      28.110  14.272  37.0840  0.00  0.00     0.000 OA
ATOM     80   O  IDS B   4      27.582  13.524  35.1170  0.00  0.00     0.000 OA
ENDBRANCH 69 78
BRANCH 65 81
ATOM     81  O4  SGN B   5      24.993  11.060  38.2410  0.00  0.00     0.000 O
BRANCH 81 85
ATOM     82  C1  SGN B   5      21.265  12.986  38.4180  0.00  0.00     0.000 C
ATOM     83  C2  SGN B   5      22.253  13.475  37.3480  0.00  0.00     0.000 C
ATOM     84  C3  SGN B   5      23.326  12.403  37.1120  0.00  0.00     0.000 C
ATOM     85  C4  SGN B   5      23.995  12.065  38.4330  0.00  0.00     0.000 C
ATOM     86  C5  SGN B   5      22.923  11.572  39.4010  0.00  0.00     0.000 C
ATOM     87  O5  SGN B   5      21.958  12.624  39.5970  0.00  0.00     0.000 O
ATOM     88   O  SGN B   5      24.270  12.868  36.1720  0.00  0.00     0.000 O
ATOM     90  HD  SGN B   5      23.628  12.311  36.0060  0.00  0.00     0.000 HD
BRANCH 83 92
ATOM     90   N  SGN B   5      21.252  13.856  36.3330  0.00  0.00     0.000 N
ATOM     92  HD  SGN B   5      20.492  13.471  36.4860  0.00  0.00     0.000 HD
ATOM     92   S  SGN B   5      21.158  15.395  35.9110  0.00  0.00     0.000 S
ATOM     93   O  SGN B   5      20.110  15.432  34.9360  0.00  0.00     0.000 OA
ATOM     94   O  SGN B   5      21.026  16.121  37.1280  0.00  0.00     0.000 OA
ATOM     95   O  SGN B   5      22.520  15.720  35.3370  0.00  0.00     0.000 OA
ENDBRANCH 83 92
BRANCH 86 96
ATOM     96   C  SGN B   5      23.451  11.184  40.7670  0.00  0.00     0.000 C
ATOM     97   O  SGN B   5      24.121  12.289  41.3790  0.00  0.00     0.000 O
ATOM     98   S  SGN B   5      23.669  12.648  42.8750  0.00  0.00     0.000 S
ATOM     99   O  SGN B   5      24.642  13.638  43.2720  0.00  0.00     0.000 OA
ATOM    100   O  SGN B   5      22.333  13.122  42.8150  0.00  0.00     0.000 OA
ATOM    101   O  SGN B   5      23.792  11.418  43.5870  0.00  0.00     0.000 OA
ENDBRANCH 86 96
BRANCH 82 102
ATOM    102  O4  IDS B   6      20.493  11.950  37.9840  0.00  0.00     0.000 O
BRANCH 102 106
ATOM    103  C1  IDS B   6      17.254  10.432  37.3020  0.00  0.00     0.000 C
ATOM    104  C2  IDS B   6      17.471  11.941  37.1080  0.00  0.00     0.000 C
ATOM    105  C3  IDS B   6      18.174  12.642  38.2540  0.00  0.00     0.000 C
ATOM    106  C4  IDS B   6      19.319  11.827  38.8270  0.00  0.00     0.000 C
ATOM    107  C5  IDS B   6      18.895  10.361  38.9600  0.00  0.00     0.000 C
ATOM    108  O5  IDS B   6      18.461   9.817  37.7120  0.00  0.00     0.000 O
ATOM    109   O  IDS B   6      17.209  12.928  39.2540  0.00  0.00     0.000 O
ATOM    111  HD  IDS B   6      16.578  12.354  39.1050  0.00  0.00     0.000 HD
BRANCH 104 111
ATOM    111   O  IDS B   6      18.334  12.154  35.9360  0.00  0.00     0.000 O
ATOM    112   S  IDS B   6      17.658  12.703  34.5930  0.00  0.00     0.000 S
ATOM    113   O  IDS B   6      16.641  11.716  34.2640  0.00  0.00     0.000 OA
ATOM    114   O  IDS B   6      17.141  14.052  34.8520  0.00  0.00     0.000 OA
ATOM    115   O  IDS B   6      18.812  12.671  33.7200  0.00  0.00     0.000 OA
ENDBRANCH 104 111
BRANCH 107 116
ATOM    116   C  IDS B   6      20.062   9.545  39.5010  0.00  0.00     0.000 C
ATOM    117   O  IDS B   6      20.668   8.872  38.7060  0.00  0.00     0.000 OA
ATOM    118   O  IDS B   6      20.360   9.570  40.6850  0.00  0.00     0.000 OA
ENDBRANCH 107 116
BRANCH 103 119
ATOM    119  O4  SGN B   7      16.133  10.365  38.0650  0.00  0.00     0.000 O
BRANCH 119 123
ATOM    120  C1  SGN B   7      13.113   7.559  38.7700  0.00  0.00     0.000 C
ATOM    121  C2  SGN B   7      14.445   7.377  39.5210  0.00  0.00     0.000 C
ATOM    122  C3  SGN B   7      15.271   8.669  39.4720  0.00  0.00     0.000 C
ATOM    123  C4  SGN B   7      15.434   9.120  38.0300  0.00  0.00     0.000 C
ATOM    124  C5  SGN B   7      14.054   9.265  37.3690  0.00  0.00     0.000 C
ATOM    125  O5  SGN B   7      13.313   8.026  37.4370  0.00  0.00     0.000 O
ATOM    126   O  SGN B   7      16.540   8.434  40.0930  0.00  0.00     0.000 O
ATOM    128  HD  SGN B   7      15.738   8.151  39.9280  0.00  0.00     0.000 HD
BRANCH 121 130
ATOM    128   N  SGN B   7      13.931   6.074  39.9490  0.00  0.00     0.000 N
ATOM    130  HD  SGN B   7      14.714   5.720  39.8380  0.00  0.00     0.000 HD
ATOM    130   S  SGN B   7      14.297   5.434  41.3810  0.00  0.00     0.000 S
ATOM    131   O  SGN B   7      14.025   6.461  42.3280  0.00  0.00     0.000 OA
ATOM    132   O  SGN B   7      13.653   4.174  41.4850  0.00  0.00     0.000 OA
ATOM    133   O  SGN B   7      15.808   5.089  41.1570  0.00  0.00     0.000 OA
ENDBRANCH 121 130
BRANCH 124 134
ATOM    134   C  SGN B   7      14.113   9.596  35.9070  0.00  0.00     0.000 C
ATOM    135   O  SGN B   7      13.117   8.819  35.2200  0.00  0.00     0.000 O
ATOM    136   S  SGN B   7      12.913   9.133  33.6950  0.00  0.00     0.000 S
ATOM    137   O  SGN B   7      11.953   8.171  33.2070  0.00  0.00     0.000 OA
ATOM    138   O  SGN B   7      14.220   8.978  33.0980  0.00  0.00     0.000 OA
ATOM    139   O  SGN B   7      12.420  10.501  33.7200  0.00  0.00     0.000 OA
ENDBRANCH 124 134
BRANCH 120 140
ATOM    140  O4  IDS B   8      12.076   8.332  39.1090  0.00  0.00     0.000 O
BRANCH 140 144
ATOM    141  C1  IDS B   8      10.441  11.247  40.4490  0.00  0.00     0.000 C
ATOM    142  C2  IDS B   8      11.747  10.697  41.0890  0.00  0.00     0.000 C
ATOM    143  C3  IDS B   8      11.703   9.179  41.3440  0.00  0.00     0.000 C
ATOM    144  C4  IDS B   8      11.107   8.417  40.1610  0.00  0.00     0.000 C
ATOM    145  C5  IDS B   8       9.841   9.128  39.6570  0.00  0.00     0.000 C
ATOM    146  O5  IDS B   8      10.105  10.482  39.2980  0.00  0.00     0.000 O
BRANCH 142 147
ATOM    147   O  IDS B   8      12.893  10.957  40.1790  0.00  0.00     0.000 O
ATOM    148   S  IDS B   8      13.871  12.231  40.4080  0.00  0.00     0.000 S
ATOM    149   O  IDS B   8      13.197  13.145  41.3020  0.00  0.00     0.000 OA
ATOM    150   O  IDS B   8      15.090  11.685  40.9760  0.00  0.00     0.000 OA
ATOM    151   O  IDS B   8      14.065  12.806  39.0900  0.00  0.00     0.000 OA
ENDBRANCH 142 147
BRANCH 145 152
ATOM    152   C  IDS B   8       9.258   8.474  38.4210  0.00  0.00     0.000 C
ATOM    153   O  IDS B   8       8.891   7.306  38.4710  0.00  0.00     0.000 OA
ATOM    154   O  IDS B   8       9.142   9.122  37.3960  0.00  0.00     0.000 OA
ENDBRANCH 145 152
ENDBRANCH 140 144
ENDBRANCH 120 140
ENDBRANCH 119 123
ENDBRANCH 103 119
ENDBRANCH 102 106
ENDBRANCH 82 102
ENDBRANCH 81 85
ENDBRANCH 65 81
ENDBRANCH 64 68
ENDBRANCH 41 64
ENDBRANCH 40 44
ENDBRANCH 24 40
ENDBRANCH 23 27
ENDBRANCH 1 23
TORSDOF 31
ENDMDL
MODEL 19
REMARK VINA RESULT:      -6.0     14.989     19.326
ROOT
ATOM      1  C1  SGN B   1      38.450  15.430  33.2410  0.00  0.00     0.000 C
ATOM      2  C2  SGN B   1      38.684  14.729  31.8920  0.00  0.00     0.000 C
ATOM      3  C3  SGN B   1      40.162  14.361  31.7220  0.00  0.00     0.000 C
ATOM      4  C4  SGN B   1      41.036  15.601  31.8800  0.00  0.00     0.000 C
ATOM      5  C5  SGN B   1      40.650  16.322  33.1690  0.00  0.00     0.000 C
ATOM      6  O5  SGN B   1      39.238  16.610  33.1560  0.00  0.00     0.000 O
ATOM      7   O  SGN B   1      40.383  13.753  30.4550  0.00  0.00     0.000 O
ATOM      9  HD  SGN B   1      40.090  14.535  30.2260  0.00  0.00     0.000 HD
ATOM      9   O  SGN B   1      42.397  15.215  31.9250  0.00  0.00     0.000 O
ATOM     11  HD  SGN B   1      42.103  15.997  31.6960  0.00  0.00     0.000 HD
ENDROOT
BRANCH 2 13
ATOM     11   N  SGN B   1      37.294  14.763  31.4010  0.00  0.00     0.000 N
ATOM     13  HD  SGN B   1      37.491  14.348  32.1350  0.00  0.00     0.000 HD
ATOM     13   S  SGN B   1      36.240  13.591  31.7230  0.00  0.00     0.000 S
ATOM     14   O  SGN B   1      36.835  12.617  32.5530  0.00  0.00     0.000 OA
ATOM     15   O  SGN B   1      35.009  14.188  32.1170  0.00  0.00     0.000 OA
ATOM     16   O  SGN B   1      36.048  13.057  30.2700  0.00  0.00     0.000 OA
ENDBRANCH 2 13
BRANCH 5 17
ATOM     17   C  SGN B   1      41.372  17.630  33.3820  0.00  0.00     0.000 C
ATOM     18   O  SGN B   1      41.435  18.388  32.1570  0.00  0.00     0.000 O
ATOM     19   S  SGN B   1      42.852  19.042  31.8090  0.00  0.00     0.000 S
ATOM     20   O  SGN B   1      42.593  19.923  30.6900  0.00  0.00     0.000 OA
ATOM     21   O  SGN B   1      43.226  19.738  33.0180  0.00  0.00     0.000 OA
ATOM     22   O  SGN B   1      43.712  17.926  31.4820  0.00  0.00     0.000 OA
ENDBRANCH 5 17
BRANCH 1 23
ATOM     23  O4  IDS B   2      38.145  15.142  34.5380  0.00  0.00     0.000 O
BRANCH 23 27
ATOM     24  C1  IDS B   2      34.192  14.644  35.7040  0.00  0.00     0.000 C
ATOM     25  C2  IDS B   2      34.634  16.102  35.4480  0.00  0.00     0.000 C
ATOM     26  C3  IDS B   2      35.989  16.148  34.7480  0.00  0.00     0.000 C
ATOM     27  C4  IDS B   2      37.078  15.376  35.4810  0.00  0.00     0.000 C
ATOM     28  C5  IDS B   2      36.487  14.096  36.1050  0.00  0.00     0.000 C
ATOM     29  O5  IDS B   2      35.273  13.733  35.4650  0.00  0.00     0.000 O
ATOM     30   O  IDS B   2      36.417  17.500  34.6430  0.00  0.00     0.000 O
ATOM     32  HD  IDS B   2      36.753  17.810  35.3790  0.00  0.00     0.000 HD
BRANCH 25 32
ATOM     32   O  IDS B   2      33.666  16.841  34.6000  0.00  0.00     0.000 O
ATOM     33   S  IDS B   2      32.896  18.198  35.1370  0.00  0.00     0.000 S
ATOM     34   O  IDS B   2      31.879  18.507  34.1440  0.00  0.00     0.000 OA
ATOM     35   O  IDS B   2      32.303  17.935  36.4410  0.00  0.00     0.000 OA
ATOM     36   O  IDS B   2      33.909  19.227  35.1900  0.00  0.00     0.000 OA
ENDBRANCH 25 32
BRANCH 28 37
ATOM     37   C  IDS B   2      37.389  12.847  36.1780  0.00  0.00     0.000 C
ATOM     38   O  IDS B   2      38.325  12.989  36.9290  0.00  0.00     0.000 OA
ATOM     39   O  IDS B   2      37.202  11.745  35.6050  0.00  0.00     0.000 OA
ENDBRANCH 28 37
BRANCH 24 40
ATOM     40  O4  SUS B   3      33.049  14.395  36.3750  0.00  0.00     0.000 O
BRANCH 40 44
ATOM     41  C1  SUS B   3      30.265  11.295  35.9400  0.00  0.00     0.000 C
ATOM     42  C2  SUS B   3      31.675  10.913  36.4350  0.00  0.00     0.000 C
ATOM     43  C3  SUS B   3      32.370  12.157  36.9840  0.00  0.00     0.000 C
ATOM     44  C4  SUS B   3      32.362  13.237  35.9130  0.00  0.00     0.000 C
ATOM     45  C5  SUS B   3      30.927  13.588  35.5800  0.00  0.00     0.000 C
ATOM     46  O5  SUS B   3      30.289  12.411  35.0430  0.00  0.00     0.000 O
BRANCH 42 49
ATOM     47   N  SUS B   3      31.342   9.735  37.2540  0.00  0.00     0.000 N
ATOM     49  HD  SUS B   3      31.450   9.815  38.1090  0.00  0.00     0.000 HD
ATOM     49   S  SUS B   3      32.110   8.413  36.7760  0.00  0.00     0.000 S
ATOM     50   O  SUS B   3      33.503   8.631  36.8040  0.00  0.00     0.000 OA
ATOM     51   O  SUS B   3      31.674   7.514  37.9610  0.00  0.00     0.000 OA
ATOM     52   O  SUS B   3      31.545   7.955  35.5690  0.00  0.00     0.000 OA
ENDBRANCH 42 49
BRANCH 43 53
ATOM     53   O  SUS B   3      33.760  11.792  37.3180  0.00  0.00     0.000 O
ATOM     54   S  SUS B   3      34.159  11.741  38.9120  0.00  0.00     0.000 S
ATOM     55   O  SUS B   3      33.499  10.578  39.4900  0.00  0.00     0.000 OA
ATOM     56   O  SUS B   3      35.608  11.652  38.9090  0.00  0.00     0.000 OA
ATOM     57   O  SUS B   3      33.657  12.984  39.5050  0.00  0.00     0.000 OA
ENDBRANCH 43 53
BRANCH 45 58
ATOM     58   C  SUS B   3      30.837  14.729  34.5910  0.00  0.00     0.000 C
ATOM     59   S  SUS B   3      30.611  15.235  32.0850  0.00  0.00     0.000 S
ATOM     60   O  SUS B   3      30.531  14.207  33.2870  0.00  0.00     0.000 O
ATOM     61   O  SUS B   3      32.027  15.379  31.8030  0.00  0.00     0.000 OA
ATOM     62   O  SUS B   3      29.912  14.505  31.0620  0.00  0.00     0.000 OA
ATOM     63   O  SUS B   3      29.961  16.410  32.5460  0.00  0.00     0.000 OA
ENDBRANCH 45 58
BRANCH 41 64
ATOM     64  O4  IDS B   4      29.336  11.402  36.9450  0.00  0.00     0.000 O
BRANCH 64 68
ATOM     65  C1  IDS B   4      26.182  11.215  38.7600  0.00  0.00     0.000 C
ATOM     66  C2  IDS B   4      26.956   9.934  38.4230  0.00  0.00     0.000 C
ATOM     67  C3  IDS B   4      27.452   9.860  36.9890  0.00  0.00     0.000 C
ATOM     68  C4  IDS B   4      27.985  11.186  36.4790  0.00  0.00     0.000 C
ATOM     69  C5  IDS B   4      27.008  12.289  36.9060  0.00  0.00     0.000 C
ATOM     70  O5  IDS B   4      26.941  12.332  38.3340  0.00  0.00     0.000 O
ATOM     71   O  IDS B   4      26.363   9.445  36.1900  0.00  0.00     0.000 O
ATOM     73  HD  IDS B   4      26.799   9.558  36.9300  0.00  0.00     0.000 HD
BRANCH 66 73
ATOM     73   O  IDS B   4      28.164   9.878  39.2580  0.00  0.00     0.000 O
ATOM     74   S  IDS B   4      28.382   8.573  40.1890  0.00  0.00     0.000 S
ATOM     75   O  IDS B   4      27.207   8.467  41.0270  0.00  0.00     0.000 OA
ATOM     76   O  IDS B   4      29.584   8.918  40.9050  0.00  0.00     0.000 OA
ATOM     77   O  IDS B   4      28.532   7.467  39.2730  0.00  0.00     0.000 OA
ENDBRANCH 66 73
BRANCH 69 78
ATOM     78   C  IDS B   4      27.286  13.651  36.2850  0.00  0.00     0.000 C
ATOM     79   O  IDS B   4      26.787  13.915  35.1910  0.00  0.00     0.000 OA
ATOM     80   O  IDS B   4      27.920  14.491  36.9500  0.00  0.00     0.000 OA
ENDBRANCH 69 78
BRANCH 65 81
ATOM     81  O4  SGN B   5      24.912  11.117  38.2800  0.00  0.00     0.000 O
BRANCH 81 85
ATOM     82  C1  SGN B   5      21.112  12.891  38.5180  0.00  0.00     0.000 C
ATOM     83  C2  SGN B   5      22.053  13.401  37.4160  0.00  0.00     0.000 C
ATOM     84  C3  SGN B   5      23.164  12.370  37.1710  0.00  0.00     0.000 C
ATOM     85  C4  SGN B   5      23.878  12.083  38.4800  0.00  0.00     0.000 C
ATOM     86  C5  SGN B   5      22.851  11.564  39.4830  0.00  0.00     0.000 C
ATOM     87  O5  SGN B   5      21.848  12.578  39.6850  0.00  0.00     0.000 O
ATOM     88   O  SGN B   5      24.064  12.857  36.2000  0.00  0.00     0.000 O
ATOM     90  HD  SGN B   5      23.442  12.271  36.0590  0.00  0.00     0.000 HD
BRANCH 83 92
ATOM     90   N  SGN B   5      21.083  13.713  36.3480  0.00  0.00     0.000 N
ATOM     92  HD  SGN B   5      20.363  13.241  36.4340  0.00  0.00     0.000 HD
ATOM     92   S  SGN B   5      20.844  15.249  35.9750  0.00  0.00     0.000 S
ATOM     93   O  SGN B   5      19.864  15.213  34.9320  0.00  0.00     0.000 OA
ATOM     94   O  SGN B   5      20.553  15.903  37.2050  0.00  0.00     0.000 OA
ATOM     95   O  SGN B   5      22.195  15.746  35.5080  0.00  0.00     0.000 OA
ENDBRANCH 83 92
BRANCH 86 96
ATOM     96   C  SGN B   5      23.427  11.222  40.8410  0.00  0.00     0.000 C
ATOM     97   O  SGN B   5      24.071  12.362  41.4150  0.00  0.00     0.000 O
ATOM     98   S  SGN B   5      23.645  12.733  42.9150  0.00  0.00     0.000 S
ATOM     99   O  SGN B   5      24.590  13.765  43.2680  0.00  0.00     0.000 OA
ATOM    100   O  SGN B   5      22.292  13.156  42.8820  0.00  0.00     0.000 OA
ATOM    101   O  SGN B   5      23.831  11.522  43.6470  0.00  0.00     0.000 OA
ENDBRANCH 86 96
BRANCH 82 102
ATOM    102  O4  IDS B   6      20.373  11.816  38.1210  0.00  0.00     0.000 O
BRANCH 102 106
ATOM    103  C1  IDS B   6      17.170  10.204  37.4890  0.00  0.00     0.000 C
ATOM    104  C2  IDS B   6      17.349  11.713  37.2620  0.00  0.00     0.000 C
ATOM    105  C3  IDS B   6      18.039  12.456  38.3890  0.00  0.00     0.000 C
ATOM    106  C4  IDS B   6      19.207  11.682  38.9730  0.00  0.00     0.000 C
ATOM    107  C5  IDS B   6      18.821  10.209  39.1380  0.00  0.00     0.000 C
ATOM    108  O5  IDS B   6      18.394   9.628  37.9050  0.00  0.00     0.000 O
ATOM    109   O  IDS B   6      17.072  12.738  39.3880  0.00  0.00     0.000 O
ATOM    111  HD  IDS B   6      16.455  12.146  39.2540  0.00  0.00     0.000 HD
BRANCH 104 111
ATOM    111   O  IDS B   6      18.200  11.923  36.0800  0.00  0.00     0.000 O
ATOM    112   S  IDS B   6      17.502  12.419  34.7280  0.00  0.00     0.000 S
ATOM    113   O  IDS B   6      16.514  11.395  34.4280  0.00  0.00     0.000 OA
ATOM    114   O  IDS B   6      16.947  13.758  34.9570  0.00  0.00     0.000 OA
ATOM    115   O  IDS B   6      18.653  12.400  33.8510  0.00  0.00     0.000 OA
ENDBRANCH 104 111
BRANCH 107 116
ATOM    116   C  IDS B   6      20.011   9.434  39.6900  0.00  0.00     0.000 C
ATOM    117   O  IDS B   6      20.276   9.604  40.8530  0.00  0.00     0.000 OA
ATOM    118   O  IDS B   6      20.667   8.687  38.9810  0.00  0.00     0.000 OA
ENDBRANCH 107 116
BRANCH 103 119
ATOM    119  O4  SGN B   7      16.055  10.125  38.2590  0.00  0.00     0.000 O
BRANCH 119 123
ATOM    120  C1  SGN B   7      12.991   7.342  38.8590  0.00  0.00     0.000 C
ATOM    121  C2  SGN B   7      14.298   7.145  39.6490  0.00  0.00     0.000 C
ATOM    122  C3  SGN B   7      15.136   8.430  39.6320  0.00  0.00     0.000 C
ATOM    123  C4  SGN B   7      15.347   8.886  38.1970  0.00  0.00     0.000 C
ATOM    124  C5  SGN B   7      13.988   9.046  37.4950  0.00  0.00     0.000 C
ATOM    125  O5  SGN B   7      13.235   7.814  37.5350  0.00  0.00     0.000 O
ATOM    126   O  SGN B   7      16.384   8.181  40.2890  0.00  0.00     0.000 O
ATOM    128  HD  SGN B   7      15.585   7.906  40.0990  0.00  0.00     0.000 HD
BRANCH 121 130
ATOM    128   N  SGN B   7      13.464   6.348  40.5520  0.00  0.00     0.000 N
ATOM    130  HD  SGN B   7      13.546   5.660  40.0320  0.00  0.00     0.000 HD
ATOM    130   S  SGN B   7      14.076   5.196  41.4950  0.00  0.00     0.000 S
ATOM    131   O  SGN B   7      15.170   5.808  42.1690  0.00  0.00     0.000 OA
ATOM    132   O  SGN B   7      13.015   4.612  42.2340  0.00  0.00     0.000 OA
ATOM    133   O  SGN B   7      14.447   4.119  40.4190  0.00  0.00     0.000 OA
ENDBRANCH 121 130
BRANCH 124 134
ATOM    134   C  SGN B   7      14.095   9.383  36.0370  0.00  0.00     0.000 C
ATOM    135   O  SGN B   7      13.076   8.661  35.3250  0.00  0.00     0.000 O
ATOM    136   S  SGN B   7      12.920   8.995  33.7980  0.00  0.00     0.000 S
ATOM    137   O  SGN B   7      11.924   8.085  33.2830  0.00  0.00     0.000 OA
ATOM    138   O  SGN B   7      14.230   8.779  33.2270  0.00  0.00     0.000 OA
ATOM    139   O  SGN B   7      12.495  10.385  33.8230  0.00  0.00     0.000 OA
ENDBRANCH 124 134
BRANCH 120 140
ATOM    140  O4  IDS B   8      11.950   8.124  39.1700  0.00  0.00     0.000 O
BRANCH 140 144
ATOM    141  C1  IDS B   8       8.510   7.680  40.1350  0.00  0.00     0.000 C
ATOM    142  C2  IDS B   8       9.185   6.718  39.1160  0.00  0.00     0.000 C
ATOM    143  C3  IDS B   8       9.942   7.459  37.9980  0.00  0.00     0.000 C
ATOM    144  C4  IDS B   8      10.766   8.626  38.5390  0.00  0.00     0.000 C
ATOM    145  C5  IDS B   8       9.936   9.439  39.5440  0.00  0.00     0.000 C
ATOM    146  O5  IDS B   8       9.459   8.625  40.6140  0.00  0.00     0.000 O
BRANCH 142 147
ATOM    147   O  IDS B   8      10.173   5.861  39.8220  0.00  0.00     0.000 O
ATOM    148   S  IDS B   8      10.451   4.337  39.3430  0.00  0.00     0.000 S
ATOM    149   O  IDS B   8       9.359   3.942  38.4820  0.00  0.00     0.000 OA
ATOM    150   O  IDS B   8      11.726   4.375  38.6510  0.00  0.00     0.000 OA
ATOM    151   O  IDS B   8      10.489   3.554  40.5630  0.00  0.00     0.000 OA
ENDBRANCH 142 147
BRANCH 145 152
ATOM    152   C  IDS B   8      10.733  10.553  40.1920  0.00  0.00     0.000 C
ATOM    153   O  IDS B   8      10.851  10.582  41.4120  0.00  0.00     0.000 OA
ATOM    154   O  IDS B   8      11.263  11.398  39.4930  0.00  0.00     0.000 OA
ENDBRANCH 145 152
ENDBRANCH 140 144
ENDBRANCH 120 140
ENDBRANCH 119 123
ENDBRANCH 103 119
ENDBRANCH 102 106
ENDBRANCH 82 102
ENDBRANCH 81 85
ENDBRANCH 65 81
ENDBRANCH 64 68
ENDBRANCH 41 64
ENDBRANCH 40 44
ENDBRANCH 24 40
ENDBRANCH 23 27
ENDBRANCH 1 23
TORSDOF 31
ENDMDL
MODEL 20
REMARK VINA RESULT:      -6.0     22.336     34.320
ROOT
ATOM      1  C1  SGN B   1      37.943  14.170  28.6100  0.00  0.00     0.000 C
ATOM      2  C2  SGN B   1      38.207  15.437  29.4400  0.00  0.00     0.000 C
ATOM      3  C3  SGN B   1      39.661  15.895  29.2850  0.00  0.00     0.000 C
ATOM      4  C4  SGN B   1      40.612  14.761  29.6560  0.00  0.00     0.000 C
ATOM      5  C5  SGN B   1      40.202  13.499  28.9010  0.00  0.00     0.000 C
ATOM      6  O5  SGN B   1      38.819  13.203  29.1720  0.00  0.00     0.000 O
ATOM      7   O  SGN B   1      39.914  17.041  30.0890  0.00  0.00     0.000 O
ATOM      9  HD  SGN B   1      39.693  16.453  30.6850  0.00  0.00     0.000 HD
ATOM      9   O  SGN B   1      41.936  15.127  29.3140  0.00  0.00     0.000 O
ATOM     11  HD  SGN B   1      41.715  14.539  29.9100  0.00  0.00     0.000 HD
ENDROOT
BRANCH 2 13
ATOM     11   N  SGN B   1      36.902  15.723  30.0680  0.00  0.00     0.000 N
ATOM     13  HD  SGN B   1      36.959  15.582  29.2150  0.00  0.00     0.000 HD
ATOM     13   S  SGN B   1      35.700  16.431  29.2660  0.00  0.00     0.000 S
ATOM     14   O  SGN B   1      36.079  16.662  27.9270  0.00  0.00     0.000 OA
ATOM     15   O  SGN B   1      34.496  15.720  29.5400  0.00  0.00     0.000 OA
ATOM     16   O  SGN B   1      35.644  17.761  30.0780  0.00  0.00     0.000 OA
ENDBRANCH 2 13
BRANCH 5 17
ATOM     17   C  SGN B   1      41.004  12.275  29.2690  0.00  0.00     0.000 C
ATOM     18   O  SGN B   1      41.191  12.192  30.6960  0.00  0.00     0.000 O
ATOM     19   S  SGN B   1      42.669  11.835  31.1900  0.00  0.00     0.000 S
ATOM     20   O  SGN B   1      42.539  11.582  32.6100  0.00  0.00     0.000 OA
ATOM     21   O  SGN B   1      43.023  10.663  30.4240  0.00  0.00     0.000 OA
ATOM     22   O  SGN B   1      43.464  13.003  30.8800  0.00  0.00     0.000 OA
ENDBRANCH 5 17
BRANCH 1 23
ATOM     23  O4  IDS B   2      37.539  13.793  27.3640  0.00  0.00     0.000 O
BRANCH 23 27
ATOM     24  C1  IDS B   2      40.646  13.945  24.6150  0.00  0.00     0.000 C
ATOM     25  C2  IDS B   2      39.727  15.186  24.6530  0.00  0.00     0.000 C
ATOM     26  C3  IDS B   2      38.820  15.157  25.8800  0.00  0.00     0.000 C
ATOM     27  C4  IDS B   2      38.002  13.878  26.0000  0.00  0.00     0.000 C
ATOM     28  C5  IDS B   2      38.842  12.670  25.5350  0.00  0.00     0.000 C
ATOM     29  O5  IDS B   2      40.229  12.970  25.5790  0.00  0.00     0.000 O
ATOM     30   O  IDS B   2      37.906  16.245  25.8130  0.00  0.00     0.000 O
ATOM     32  HD  IDS B   2      37.240  16.100  25.2790  0.00  0.00     0.000 HD
BRANCH 25 32
ATOM     32   O  IDS B   2      40.497  16.454  24.6950  0.00  0.00     0.000 O
ATOM     33   S  IDS B   2      40.521  17.502  23.4210  0.00  0.00     0.000 S
ATOM     34   O  IDS B   2      41.538  18.494  23.7320  0.00  0.00     0.000 OA
ATOM     35   O  IDS B   2      40.842  16.775  22.2020  0.00  0.00     0.000 OA
ATOM     36   O  IDS B   2      39.204  18.094  23.3790  0.00  0.00     0.000 OA
ENDBRANCH 25 32
BRANCH 28 37
ATOM     37   C  IDS B   2      38.614  11.319  26.2440  0.00  0.00     0.000 C
ATOM     38   O  IDS B   2      39.638  10.696  26.4030  0.00  0.00     0.000 OA
ATOM     39   O  IDS B   2      37.530  10.877  26.6960  0.00  0.00     0.000 OA
ENDBRANCH 28 37
BRANCH 24 40
ATOM     40  O4  SUS B   3      41.477  13.754  23.5690  0.00  0.00     0.000 O
BRANCH 40 44
ATOM     41  C1  SUS B   3      45.202  11.848  23.3740  0.00  0.00     0.000 C
ATOM     42  C2  SUS B   3      43.961  10.954  23.5710  0.00  0.00     0.000 C
ATOM     43  C3  SUS B   3      42.714  11.722  23.1430  0.00  0.00     0.000 C
ATOM     44  C4  SUS B   3      42.657  13.035  23.9090  0.00  0.00     0.000 C
ATOM     45  C5  SUS B   3      43.880  13.858  23.5610  0.00  0.00     0.000 C
ATOM     46  O5  SUS B   3      45.049  13.131  23.9900  0.00  0.00     0.000 O
BRANCH 42 49
ATOM     47   N  SUS B   3      44.312   9.699  22.8830  0.00  0.00     0.000 N
ATOM     49  HD  SUS B   3      43.808   9.469  22.2170  0.00  0.00     0.000 HD
ATOM     49   S  SUS B   3      44.413   8.453  23.8840  0.00  0.00     0.000 S
ATOM     50   O  SUS B   3      43.194   8.290  24.5730  0.00  0.00     0.000 OA
ATOM     51   O  SUS B   3      44.576   7.361  22.7960  0.00  0.00     0.000 OA
ATOM     52   O  SUS B   3      45.588   8.566  24.6540  0.00  0.00     0.000 OA
ENDBRANCH 42 49
BRANCH 43 53
ATOM     53   O  SUS B   3      41.535  10.898  23.4730  0.00  0.00     0.000 O
ATOM     54   S  SUS B   3      40.735  10.197  22.2200  0.00  0.00     0.000 S
ATOM     55   O  SUS B   3      41.584   9.136  21.6980  0.00  0.00     0.000 OA
ATOM     56   O  SUS B   3      39.499   9.720  22.8140  0.00  0.00     0.000 OA
ATOM     57   O  SUS B   3      40.527  11.250  21.2210  0.00  0.00     0.000 OA
ENDBRANCH 43 53
BRANCH 45 58
ATOM     58   C  SUS B   3      43.847  15.225  24.2090  0.00  0.00     0.000 C
ATOM     59   S  SUS B   3      44.166  16.416  26.4600  0.00  0.00     0.000 S
ATOM     60   O  SUS B   3      44.332  15.124  25.5580  0.00  0.00     0.000 O
ATOM     61   O  SUS B   3      42.771  16.424  26.8570  0.00  0.00     0.000 OA
ATOM     62   O  SUS B   3      45.052  16.099  27.5470  0.00  0.00     0.000 OA
ATOM     63   O  SUS B   3      44.571  17.504  25.6430  0.00  0.00     0.000 OA
ENDBRANCH 45 58
BRANCH 41 64
ATOM     64  O4  IDS B   4      45.648  11.897  22.0760  0.00  0.00     0.000 O
BRANCH 64 68
ATOM     65  C1  IDS B   4      47.921  11.465  19.2620  0.00  0.00     0.000 C
ATOM     66  C2  IDS B   4      47.675  10.309  20.2410  0.00  0.00     0.000 C
ATOM     67  C3  IDS B   4      47.738  10.704  21.7060  0.00  0.00     0.000 C
ATOM     68  C4  IDS B   4      47.082  12.044  21.9850  0.00  0.00     0.000 C
ATOM     69  C5  IDS B   4      47.528  13.029  20.8960  0.00  0.00     0.000 C
ATOM     70  O5  IDS B   4      47.089  12.553  19.6220  0.00  0.00     0.000 O
ATOM     71   O  IDS B   4      49.102  10.756  22.0690  0.00  0.00     0.000 O
ATOM     73  HD  IDS B   4      48.426  10.532  21.5760  0.00  0.00     0.000 HD
BRANCH 66 73
ATOM     73   O  IDS B   4      46.315   9.795  20.0320  0.00  0.00     0.000 O
ATOM     74   S  IDS B   4      46.153   8.328  19.3680  0.00  0.00     0.000 S
ATOM     75   O  IDS B   4      46.855   8.371  18.1040  0.00  0.00     0.000 OA
ATOM     76   O  IDS B   4      44.721   8.217  19.2410  0.00  0.00     0.000 OA
ATOM     77   O  IDS B   4      46.737   7.409  20.3160  0.00  0.00     0.000 OA
ENDBRANCH 66 73
BRANCH 69 78
ATOM     78   C  IDS B   4      47.131  14.476  21.1560  0.00  0.00     0.000 C
ATOM     79   O  IDS B   4      48.010  15.287  21.4450  0.00  0.00     0.000 OA
ATOM     80   O  IDS B   4      45.948  14.813  20.9650  0.00  0.00     0.000 OA
ENDBRANCH 69 78
BRANCH 65 81
ATOM     81  O4  SGN B   5      49.258  11.715  19.1830  0.00  0.00     0.000 O
BRANCH 81 85
ATOM     82  C1  SGN B   5      52.305  13.060  16.6250  0.00  0.00     0.000 C
ATOM     83  C2  SGN B   5      51.318  14.114  17.1490  0.00  0.00     0.000 C
ATOM     84  C3  SGN B   5      50.595  13.569  18.3890  0.00  0.00     0.000 C
ATOM     85  C4  SGN B   5      49.930  12.249  18.0400  0.00  0.00     0.000 C
ATOM     86  C5  SGN B   5      51.008  11.281  17.5570  0.00  0.00     0.000 C
ATOM     87  O5  SGN B   5      51.635  11.837  16.3860  0.00  0.00     0.000 O
ATOM     88   O  SGN B   5      49.645  14.509  18.8420  0.00  0.00     0.000 O
ATOM     90  HD  SGN B   5      50.425  14.372  19.1940  0.00  0.00     0.000 HD
BRANCH 83 92
ATOM     90   N  SGN B   5      52.274  14.938  16.3840  0.00  0.00     0.000 N
ATOM     92  HD  SGN B   5      52.503  14.543  15.6480  0.00  0.00     0.000 HD
ATOM     92   S  SGN B   5      51.978  16.502  16.2500  0.00  0.00     0.000 S
ATOM     93   O  SGN B   5      53.064  17.002  15.4610  0.00  0.00     0.000 OA
ATOM     94   O  SGN B   5      50.643  16.603  15.7700  0.00  0.00     0.000 OA
ATOM     95   O  SGN B   5      51.987  17.019  17.6720  0.00  0.00     0.000 OA
ENDBRANCH 83 92
BRANCH 86 96
ATOM     96   C  SGN B   5      50.488   9.909  17.1830  0.00  0.00     0.000 C
ATOM     97   O  SGN B   5      50.330   9.801  15.7660  0.00  0.00     0.000 O
ATOM     98   S  SGN B   5      51.005   8.520  15.0770  0.00  0.00     0.000 S
ATOM     99   O  SGN B   5      50.507   8.588  13.7240  0.00  0.00     0.000 OA
ATOM    100   O  SGN B   5      52.411   8.662  15.1980  0.00  0.00     0.000 OA
ATOM    101   O  SGN B   5      50.492   7.410  15.8120  0.00  0.00     0.000 OA
ENDBRANCH 86 96
BRANCH 82 102
ATOM    102  O4  IDS B   6      53.361  12.867  17.4650  0.00  0.00     0.000 O
BRANCH 102 106
ATOM    103  C1  IDS B   6      56.970  12.937  17.9400  0.00  0.00     0.000 C
ATOM    104  C2  IDS B   6      56.300  13.819  16.8750  0.00  0.00     0.000 C
ATOM    105  C3  IDS B   6      55.288  13.109  15.9970  0.00  0.00     0.000 C
ATOM    106  C4  IDS B   6      54.411  12.144  16.7750  0.00  0.00     0.000 C
ATOM    107  C5  IDS B   6      55.268  11.350  17.7650  0.00  0.00     0.000 C
ATOM    108  O5  IDS B   6      55.989  12.207  18.6520  0.00  0.00     0.000 O
ATOM    109   O  IDS B   6      55.993  12.433  14.9690  0.00  0.00     0.000 O
ATOM    111  HD  IDS B   6      56.788  12.328  15.2960  0.00  0.00     0.000 HD
BRANCH 104 111
ATOM    111   O  IDS B   6      55.549  14.892  17.5440  0.00  0.00     0.000 O
ATOM    112   S  IDS B   6      56.144  16.377  17.4860  0.00  0.00     0.000 S
ATOM    113   O  IDS B   6      57.462  16.268  18.0910  0.00  0.00     0.000 OA
ATOM    114   O  IDS B   6      56.147  16.821  16.0870  0.00  0.00     0.000 OA
ATOM    115   O  IDS B   6      55.170  17.052  18.3160  0.00  0.00     0.000 OA
ENDBRANCH 104 111
BRANCH 107 116
ATOM    116   C  IDS B   6      54.375  10.411  18.5650  0.00  0.00     0.000 C
ATOM    117   O  IDS B   6      53.978   9.425  17.9970  0.00  0.00     0.000 OA
ATOM    118   O  IDS B   6      54.071  10.656  19.7220  0.00  0.00     0.000 OA
ENDBRANCH 107 116
BRANCH 103 119
ATOM    119  O4  SGN B   7      57.963  12.309  17.2600  0.00  0.00     0.000 O
BRANCH 119 123
ATOM    120  C1  SGN B   7      61.871  11.056  18.0640  0.00  0.00     0.000 C
ATOM    121  C2  SGN B   7      60.718  10.179  18.5890  0.00  0.00     0.000 C
ATOM    122  C3  SGN B   7      59.404  10.539  17.8840  0.00  0.00     0.000 C
ATOM    123  C4  SGN B   7      59.147  12.032  18.0070  0.00  0.00     0.000 C
ATOM    124  C5  SGN B   7      60.353  12.816  17.4650  0.00  0.00     0.000 C
ATOM    125  O5  SGN B   7      61.567  12.447  18.1580  0.00  0.00     0.000 O
ATOM    126   O  SGN B   7      58.340   9.776  18.4640  0.00  0.00     0.000 O
ATOM    128  HD  SGN B   7      59.192   9.915  18.3930  0.00  0.00     0.000 HD
BRANCH 121 130
ATOM    128   N  SGN B   7      61.372   9.439  19.6720  0.00  0.00     0.000 N
ATOM    130  HD  SGN B   7      60.612   9.096  19.9060  0.00  0.00     0.000 HD
ATOM    130   S  SGN B   7      61.607   7.848  19.6050  0.00  0.00     0.000 S
ATOM    131   O  SGN B   7      62.220   7.614  18.3420  0.00  0.00     0.000 OA
ATOM    132   O  SGN B   7      62.252   7.442  20.8010  0.00  0.00     0.000 OA
ATOM    133   O  SGN B   7      60.133   7.340  19.7590  0.00  0.00     0.000 OA
ENDBRANCH 121 130
BRANCH 124 134
ATOM    134   C  SGN B   7      60.244  14.301  17.6490  0.00  0.00     0.000 C
ATOM    135   O  SGN B   7      61.544  14.818  17.9830  0.00  0.00     0.000 O
ATOM    136   S  SGN B   7      61.675  16.381  18.0670  0.00  0.00     0.000 S
ATOM    137   O  SGN B   7      63.021  16.652  18.5120  0.00  0.00     0.000 OA
ATOM    138   O  SGN B   7      60.671  16.794  19.0210  0.00  0.00     0.000 OA
ATOM    139   O  SGN B   7      61.410  16.792  16.6970  0.00  0.00     0.000 OA
ENDBRANCH 124 134
BRANCH 120 140
ATOM    140  O4  IDS B   8      62.425  11.045  16.8470  0.00  0.00     0.000 O
BRANCH 140 144
ATOM    141  C1  IDS B   8      63.275  10.930  13.3510  0.00  0.00     0.000 C
ATOM    142  C2  IDS B   8      62.643   9.699  14.0600  0.00  0.00     0.000 C
ATOM    143  C3  IDS B   8      63.338   9.345  15.3880  0.00  0.00     0.000 C
ATOM    144  C4  IDS B   8      63.634  10.586  16.2290  0.00  0.00     0.000 C
ATOM    145  C5  IDS B   8      64.228  11.694  15.3460  0.00  0.00     0.000 C
ATOM    146  O5  IDS B   8      63.367  12.021  14.2590  0.00  0.00     0.000 O
BRANCH 142 147
ATOM    147   O  IDS B   8      61.218   9.985  14.3730  0.00  0.00     0.000 O
ATOM    148   S  IDS B   8      60.031   9.037  13.8030  0.00  0.00     0.000 S
ATOM    149   O  IDS B   8      60.582   8.241  12.7310  0.00  0.00     0.000 OA
ATOM    150   O  IDS B   8      59.600   8.236  14.9340  0.00  0.00     0.000 OA
ATOM    151   O  IDS B   8      59.007   9.950  13.3300  0.00  0.00     0.000 OA
ENDBRANCH 142 147
BRANCH 145 152
ATOM    152   C  IDS B   8      64.452  12.987  16.1050  0.00  0.00     0.000 C
ATOM    153   O  IDS B   8      65.213  13.000  17.0650  0.00  0.00     0.000 OA
ATOM    154   O  IDS B   8      63.889  14.003  15.7400  0.00  0.00     0.000 OA
ENDBRANCH 145 152
ENDBRANCH 140 144
ENDBRANCH 120 140
ENDBRANCH 119 123
ENDBRANCH 103 119
ENDBRANCH 102 106
ENDBRANCH 82 102
ENDBRANCH 81 85
ENDBRANCH 65 81
ENDBRANCH 64 68
ENDBRANCH 41 64
ENDBRANCH 40 44
ENDBRANCH 24 40
ENDBRANCH 23 27
ENDBRANCH 1 23
TORSDOF 31
ENDMDL
MODEL 21
REMARK VINA RESULT:      -6.0     13.719     18.623
ROOT
ATOM      1  C1  SGN B   1      38.656  15.015  33.6240  0.00  0.00     0.000 C
ATOM      2  C2  SGN B   1      38.905  14.369  32.2520  0.00  0.00     0.000 C
ATOM      3  C3  SGN B   1      40.357  13.892  32.1330  0.00  0.00     0.000 C
ATOM      4  C4  SGN B   1      41.315  15.048  32.4010  0.00  0.00     0.000 C
ATOM      5  C5  SGN B   1      40.919  15.730  33.7090  0.00  0.00     0.000 C
ATOM      6  O5  SGN B   1      39.537  16.130  33.6440  0.00  0.00     0.000 O
ATOM      7   O  SGN B   1      40.596  13.334  30.8460  0.00  0.00     0.000 O
ATOM      9  HD  SGN B   1      40.377  14.148  30.6470  0.00  0.00     0.000 HD
ATOM      9   O  SGN B   1      42.638  14.552  32.4900  0.00  0.00     0.000 O
ATOM     11  HD  SGN B   1      42.418  15.366  32.2920  0.00  0.00     0.000 HD
ENDROOT
BRANCH 2 13
ATOM     11   N  SGN B   1      37.538  14.557  31.7300  0.00  0.00     0.000 N
ATOM     13  HD  SGN B   1      37.680  14.056  32.4230  0.00  0.00     0.000 HD
ATOM     13   S  SGN B   1      36.392  13.441  31.9020  0.00  0.00     0.000 S
ATOM     14   O  SGN B   1      36.887  12.346  32.6410  0.00  0.00     0.000 OA
ATOM     15   O  SGN B   1      35.195  14.087  32.3240  0.00  0.00     0.000 OA
ATOM     16   O  SGN B   1      36.211  13.074  30.3970  0.00  0.00     0.000 OA
ENDBRANCH 2 13
BRANCH 5 17
ATOM     17   C  SGN B   1      41.729  16.962  34.0290  0.00  0.00     0.000 C
ATOM     18   O  SGN B   1      41.955  17.751  32.8440  0.00  0.00     0.000 O
ATOM     19   S  SGN B   1      43.446  18.290  32.6340  0.00  0.00     0.000 S
ATOM     20   O  SGN B   1      43.355  19.226  31.5330  0.00  0.00     0.000 OA
ATOM     21   O  SGN B   1      43.777  18.912  33.8950  0.00  0.00     0.000 OA
ATOM     22   O  SGN B   1      44.234  17.115  32.3330  0.00  0.00     0.000 OA
ENDBRANCH 5 17
BRANCH 1 23
ATOM     23  O4  IDS B   2      38.262  14.686  34.8880  0.00  0.00     0.000 O
BRANCH 23 27
ATOM     24  C1  IDS B   2      34.237  14.411  35.8670  0.00  0.00     0.000 C
ATOM     25  C2  IDS B   2      34.782  15.844  35.6790  0.00  0.00     0.000 C
ATOM     26  C3  IDS B   2      36.167  15.822  35.0390  0.00  0.00     0.000 C
ATOM     27  C4  IDS B   2      37.171  14.960  35.7910  0.00  0.00     0.000 C
ATOM     28  C5  IDS B   2      36.472  13.702  36.3470  0.00  0.00     0.000 C
ATOM     29  O5  IDS B   2      35.267  13.438  35.6440  0.00  0.00     0.000 O
ATOM     30   O  IDS B   2      36.684  17.147  34.9970  0.00  0.00     0.000 O
ATOM     32  HD  IDS B   2      37.007  17.412  35.7560  0.00  0.00     0.000 HD
BRANCH 25 32
ATOM     32   O  IDS B   2      33.902  16.670  34.8160  0.00  0.00     0.000 O
ATOM     33   S  IDS B   2      33.187  18.051  35.3680  0.00  0.00     0.000 S
ATOM     34   O  IDS B   2      32.240  18.455  34.3400  0.00  0.00     0.000 OA
ATOM     35   O  IDS B   2      32.517  17.778  36.6310  0.00  0.00     0.000 OA
ATOM     36   O  IDS B   2      34.255  19.013  35.5080  0.00  0.00     0.000 OA
ENDBRANCH 25 32
BRANCH 28 37
ATOM     37   C  IDS B   2      37.290  12.396  36.4160  0.00  0.00     0.000 C
ATOM     38   O  IDS B   2      38.133  12.417  37.2820  0.00  0.00     0.000 OA
ATOM     39   O  IDS B   2      37.114  11.357  35.7330  0.00  0.00     0.000 OA
ENDBRANCH 28 37
BRANCH 24 40
ATOM     40  O4  SUS B   3      33.052  14.216  36.4810  0.00  0.00     0.000 O
BRANCH 40 44
ATOM     41  C1  SUS B   3      30.119  11.291  35.8560  0.00  0.00     0.000 C
ATOM     42  C2  SUS B   3      31.469  10.823  36.4360  0.00  0.00     0.000 C
ATOM     43  C3  SUS B   3      32.202  12.022  37.0340  0.00  0.00     0.000 C
ATOM     44  C4  SUS B   3      32.327  13.102  35.9700  0.00  0.00     0.000 C
ATOM     45  C5  SUS B   3      30.939  13.540  35.5500  0.00  0.00     0.000 C
ATOM     46  O5  SUS B   3      30.266  12.405  34.9680  0.00  0.00     0.000 O
BRANCH 42 49
ATOM     47   N  SUS B   3      31.005   9.664  37.2170  0.00  0.00     0.000 N
ATOM     49  HD  SUS B   3      31.051   9.735  38.0790  0.00  0.00     0.000 HD
ATOM     49   S  SUS B   3      31.731   8.301  36.7900  0.00  0.00     0.000 S
ATOM     50   O  SUS B   3      33.127   8.437  36.9290  0.00  0.00     0.000 OA
ATOM     51   O  SUS B   3      31.152   7.425  37.9300  0.00  0.00     0.000 OA
ATOM     52   O  SUS B   3      31.237   7.881  35.5390  0.00  0.00     0.000 OA
ENDBRANCH 42 49
BRANCH 43 53
ATOM     53   O  SUS B   3      33.544  11.573  37.4520  0.00  0.00     0.000 O
ATOM     54   S  SUS B   3      33.842  11.505  39.0670  0.00  0.00     0.000 S
ATOM     55   O  SUS B   3      33.078  10.389  39.6060  0.00  0.00     0.000 OA
ATOM     56   O  SUS B   3      35.280  11.326  39.1520  0.00  0.00     0.000 OA
ATOM     57   O  SUS B   3      33.385  12.780  39.6270  0.00  0.00     0.000 OA
ENDBRANCH 43 53
BRANCH 45 58
ATOM     58   C  SUS B   3      30.980  14.686  34.5640  0.00  0.00     0.000 C
ATOM     59   S  SUS B   3      30.773  15.225  32.0630  0.00  0.00     0.000 S
ATOM     60   O  SUS B   3      30.582  14.212  33.2660  0.00  0.00     0.000 O
ATOM     61   O  SUS B   3      32.190  15.182  31.7540  0.00  0.00     0.000 OA
ATOM     62   O  SUS B   3      29.965  14.596  31.0540  0.00  0.00     0.000 OA
ATOM     63   O  SUS B   3      30.292  16.473  32.5370  0.00  0.00     0.000 OA
ENDBRANCH 45 58
BRANCH 41 64
ATOM     64  O4  IDS B   4      29.136  11.452  36.8020  0.00  0.00     0.000 O
BRANCH 64 68
ATOM     65  C1  IDS B   4      25.745  11.331  38.1270  0.00  0.00     0.000 C
ATOM     66  C2  IDS B   4      26.259  10.208  37.2180  0.00  0.00     0.000 C
ATOM     67  C3  IDS B   4      26.979  10.691  35.9700  0.00  0.00     0.000 C
ATOM     68  C4  IDS B   4      27.880  11.882  36.2320  0.00  0.00     0.000 C
ATOM     69  C5  IDS B   4      27.115  12.873  37.1190  0.00  0.00     0.000 C
ATOM     70  O5  IDS B   4      26.800  12.245  38.3640  0.00  0.00     0.000 O
ATOM     71   O  IDS B   4      25.989  11.040  35.0240  0.00  0.00     0.000 O
ATOM     73  HD  IDS B   4      26.297  10.655  35.7360  0.00  0.00     0.000 HD
BRANCH 66 73
ATOM     73   O  IDS B   4      27.250   9.415  37.9590  0.00  0.00     0.000 O
ATOM     74   S  IDS B   4      26.950   7.841  38.1810  0.00  0.00     0.000 S
ATOM     75   O  IDS B   4      25.666   7.759  38.8440  0.00  0.00     0.000 OA
ATOM     76   O  IDS B   4      28.063   7.441  39.0030  0.00  0.00     0.000 OA
ATOM     77   O  IDS B   4      26.948   7.259  36.8590  0.00  0.00     0.000 OA
ENDBRANCH 66 73
BRANCH 69 78
ATOM     78   C  IDS B   4      27.801  14.222  37.2930  0.00  0.00     0.000 C
ATOM     79   O  IDS B   4      28.468  14.419  38.3080  0.00  0.00     0.000 OA
ATOM     80   O  IDS B   4      27.752  15.040  36.3560  0.00  0.00     0.000 OA
ENDBRANCH 69 78
BRANCH 65 81
ATOM     81  O4  SGN B   5      24.594  11.843  37.6080  0.00  0.00     0.000 O
BRANCH 81 85
ATOM     82  C1  SGN B   5      20.906  13.535  38.6910  0.00  0.00     0.000 C
ATOM     83  C2  SGN B   5      22.082  14.501  38.4790  0.00  0.00     0.000 C
ATOM     84  C3  SGN B   5      23.178  13.804  37.6610  0.00  0.00     0.000 C
ATOM     85  C4  SGN B   5      23.580  12.516  38.3580  0.00  0.00     0.000 C
ATOM     86  C5  SGN B   5      22.341  11.634  38.4880  0.00  0.00     0.000 C
ATOM     87  O5  SGN B   5      21.360  12.331  39.2790  0.00  0.00     0.000 O
ATOM     88   O  SGN B   5      24.285  14.666  37.5120  0.00  0.00     0.000 O
ATOM     90  HD  SGN B   5      23.685  14.509  36.9070  0.00  0.00     0.000 HD
BRANCH 83 92
ATOM     90   N  SGN B   5      21.360  15.471  39.3260  0.00  0.00     0.000 N
ATOM     92  HD  SGN B   5      21.564  15.366  40.1620  0.00  0.00     0.000 HD
ATOM     92   S  SGN B   5      21.287  16.989  38.8340  0.00  0.00     0.000 S
ATOM     93   O  SGN B   5      20.542  17.658  39.8580  0.00  0.00     0.000 OA
ATOM     94   O  SGN B   5      22.630  17.373  38.5630  0.00  0.00     0.000 OA
ATOM     95   O  SGN B   5      20.558  16.929  37.5090  0.00  0.00     0.000 OA
ENDBRANCH 83 92
BRANCH 86 96
ATOM     96   C  SGN B   5      22.597  10.300  39.1590  0.00  0.00     0.000 C
ATOM     97   O  SGN B   5      23.177  10.491  40.4510  0.00  0.00     0.000 O
ATOM     98   S  SGN B   5      22.470   9.716  41.6640  0.00  0.00     0.000 S
ATOM     99   O  SGN B   5      23.383   9.939  42.7590  0.00  0.00     0.000 OA
ATOM    100   O  SGN B   5      21.183  10.287  41.8420  0.00  0.00     0.000 OA
ATOM    101   O  SGN B   5      22.421   8.356  41.2360  0.00  0.00     0.000 OA
ENDBRANCH 86 96
BRANCH 82 102
ATOM    102  O4  IDS B   6      20.228  13.274  37.5370  0.00  0.00     0.000 O
BRANCH 102 106
ATOM    103  C1  IDS B   6      17.406  13.129  35.2420  0.00  0.00     0.000 C
ATOM    104  C2  IDS B   6      17.893  14.474  35.8050  0.00  0.00     0.000 C
ATOM    105  C3  IDS B   6      18.134  14.494  37.3020  0.00  0.00     0.000 C
ATOM    106  C4  IDS B   6      18.804  13.227  37.8050  0.00  0.00     0.000 C
ATOM    107  C5  IDS B   6      18.164  12.005  37.1400  0.00  0.00     0.000 C
ATOM    108  O5  IDS B   6      18.227  12.079  35.7150  0.00  0.00     0.000 O
ATOM    109   O  IDS B   6      16.887  14.695  37.9470  0.00  0.00     0.000 O
ATOM    111  HD  IDS B   6      16.305  14.425  37.3650  0.00  0.00     0.000 HD
BRANCH 104 111
ATOM    111   O  IDS B   6      19.191  14.806  35.1980  0.00  0.00     0.000 O
ATOM    112   S  IDS B   6      19.235  15.980  34.1100  0.00  0.00     0.000 S
ATOM    113   O  IDS B   6      18.317  15.547  33.0670  0.00  0.00     0.000 OA
ATOM    114   O  IDS B   6      18.865  17.237  34.7690  0.00  0.00     0.000 OA
ATOM    115   O  IDS B   6      20.630  15.898  33.7350  0.00  0.00     0.000 OA
ENDBRANCH 104 111
BRANCH 107 116
ATOM    116   C  IDS B   6      18.867  10.743  37.6240  0.00  0.00     0.000 C
ATOM    117   O  IDS B   6      19.502  10.128  36.8050  0.00  0.00     0.000 OA
ATOM    118   O  IDS B   6      18.779  10.372  38.7840  0.00  0.00     0.000 OA
ENDBRANCH 107 116
BRANCH 103 119
ATOM    119  O4  SGN B   7      16.070  13.145  35.4830  0.00  0.00     0.000 O
BRANCH 119 123
ATOM    120  C1  SGN B   7      12.677  11.315  33.8620  0.00  0.00     0.000 C
ATOM    121  C2  SGN B   7      13.749  10.403  34.4880  0.00  0.00     0.000 C
ATOM    122  C3  SGN B   7      14.699  11.219  35.3740  0.00  0.00     0.000 C
ATOM    123  C4  SGN B   7      15.268  12.383  34.5800  0.00  0.00     0.000 C
ATOM    124  C5  SGN B   7      14.123  13.225  33.9930  0.00  0.00     0.000 C
ATOM    125  O5  SGN B   7      13.256  12.417  33.1660  0.00  0.00     0.000 O
ATOM    126   O  SGN B   7      15.737  10.360  35.8590  0.00  0.00     0.000 O
ATOM    128  HD  SGN B   7      14.976  10.438  35.4530  0.00  0.00     0.000 HD
BRANCH 121 130
ATOM    128   N  SGN B   7      12.967   9.370  35.1720  0.00  0.00     0.000 N
ATOM    130  HD  SGN B   7      12.387   9.373  34.5300  0.00  0.00     0.000 HD
ATOM    130   S  SGN B   7      12.922   7.844  34.6580  0.00  0.00     0.000 S
ATOM    131   O  SGN B   7      14.284   7.469  34.4860  0.00  0.00     0.000 OA
ATOM    132   O  SGN B   7      12.078   7.105  35.5260  0.00  0.00     0.000 OA
ATOM    133   O  SGN B   7      12.086   8.016  33.3450  0.00  0.00     0.000 OA
ENDBRANCH 121 130
BRANCH 124 134
ATOM    134   C  SGN B   7      14.585  14.334  33.0940  0.00  0.00     0.000 C
ATOM    135   O  SGN B   7      14.048  14.112  31.7790  0.00  0.00     0.000 O
ATOM    136   S  SGN B   7      14.290  15.249  30.7230  0.00  0.00     0.000 S
ATOM    137   O  SGN B   7      13.760  14.760  29.4720  0.00  0.00     0.000 OA
ATOM    138   O  SGN B   7      15.722  15.439  30.6930  0.00  0.00     0.000 OA
ATOM    139   O  SGN B   7      13.545  16.363  31.2860  0.00  0.00     0.000 OA
ENDBRANCH 124 134
BRANCH 120 140
ATOM    140  O4  IDS B   8      11.680  11.958  34.4810  0.00  0.00     0.000 O
BRANCH 140 144
ATOM    141  C1  IDS B   8      10.022  13.879  37.0340  0.00  0.00     0.000 C
ATOM    142  C2  IDS B   8      11.093  12.814  37.4040  0.00  0.00     0.000 C
ATOM    143  C3  IDS B   8      10.866  11.461  36.7030  0.00  0.00     0.000 C
ATOM    144  C4  IDS B   8      10.502  11.634  35.2290  0.00  0.00     0.000 C
ATOM    145  C5  IDS B   8       9.453  12.744  35.0690  0.00  0.00     0.000 C
ATOM    146  O5  IDS B   8       9.903  13.979  35.6210  0.00  0.00     0.000 O
BRANCH 142 147
ATOM    147   O  IDS B   8      12.437  13.300  36.9960  0.00  0.00     0.000 O
ATOM    148   S  IDS B   8      13.442  13.980  38.0730  0.00  0.00     0.000 S
ATOM    149   O  IDS B   8      12.661  14.340  39.2340  0.00  0.00     0.000 OA
ATOM    150   O  IDS B   8      14.443  12.970  38.3600  0.00  0.00     0.000 OA
ATOM    151   O  IDS B   8      13.986  15.146  37.4030  0.00  0.00     0.000 OA
ENDBRANCH 142 147
BRANCH 145 152
ATOM    152   C  IDS B   8       9.123  13.030  33.6180  0.00  0.00     0.000 C
ATOM    153   O  IDS B   8       8.255  12.374  33.0550  0.00  0.00     0.000 OA
ATOM    154   O  IDS B   8       9.710  13.923  33.0330  0.00  0.00     0.000 OA
ENDBRANCH 145 152
ENDBRANCH 140 144
ENDBRANCH 120 140
ENDBRANCH 119 123
ENDBRANCH 103 119
ENDBRANCH 102 106
ENDBRANCH 82 102
ENDBRANCH 81 85
ENDBRANCH 65 81
ENDBRANCH 64 68
ENDBRANCH 41 64
ENDBRANCH 40 44
ENDBRANCH 24 40
ENDBRANCH 23 27
ENDBRANCH 1 23
TORSDOF 31
ENDMDL
MODEL 22
REMARK VINA RESULT:      -5.8     27.840     38.133
ROOT
ATOM      1  C1  SGN B   1      69.471  12.211  18.2620  0.00  0.00     0.000 C
ATOM      2  C2  SGN B   1      70.775  11.408  18.1180  0.00  0.00     0.000 C
ATOM      3  C3  SGN B   1      70.874  10.333  19.2050  0.00  0.00     0.000 C
ATOM      4  C4  SGN B   1      70.745  10.968  20.5860  0.00  0.00     0.000 C
ATOM      5  C5  SGN B   1      69.507  11.861  20.6110  0.00  0.00     0.000 C
ATOM      6  O5  SGN B   1      69.584  12.822  19.5410  0.00  0.00     0.000 O
ATOM      7   O  SGN B   1      72.101   9.622  19.0960  0.00  0.00     0.000 O
ATOM      9  HD  SGN B   1      72.378  10.430  19.2410  0.00  0.00     0.000 HD
ATOM      9   O  SGN B   1      70.633   9.950  21.5640  0.00  0.00     0.000 O
ATOM     11  HD  SGN B   1      70.909  10.758  21.7090  0.00  0.00     0.000 HD
ENDROOT
BRANCH 2 13
ATOM     11   N  SGN B   1      71.353  12.082  16.9400  0.00  0.00     0.000 N
ATOM     13  HD  SGN B   1      70.568  11.718  16.8970  0.00  0.00     0.000 HD
ATOM     13   S  SGN B   1      70.976  11.655  15.4350  0.00  0.00     0.000 S
ATOM     14   O  SGN B   1      70.013  10.624  15.4490  0.00  0.00     0.000 OA
ATOM     15   O  SGN B   1      70.724  12.838  14.6810  0.00  0.00     0.000 OA
ATOM     16   O  SGN B   1      72.374  11.120  14.9970  0.00  0.00     0.000 OA
ENDBRANCH 2 13
BRANCH 5 17
ATOM     17   C  SGN B   1      69.333  12.633  21.8960  0.00  0.00     0.000 C
ATOM     18   O  SGN B   1      70.592  13.164  22.3520  0.00  0.00     0.000 O
ATOM     19   S  SGN B   1      70.908  12.983  23.9100  0.00  0.00     0.000 S
ATOM     20   O  SGN B   1      72.085  13.789  24.1510  0.00  0.00     0.000 OA
ATOM     21   O  SGN B   1      69.722  13.478  24.5690  0.00  0.00     0.000 OA
ATOM     22   O  SGN B   1      71.130  11.564  24.0870  0.00  0.00     0.000 OA
ENDBRANCH 5 17
BRANCH 1 23
ATOM     23  O4  IDS B   2      68.173  12.196  17.8460  0.00  0.00     0.000 O
BRANCH 23 27
ATOM     24  C1  IDS B   2      64.497  12.975  16.0830  0.00  0.00     0.000 C
ATOM     25  C2  IDS B   2      65.319  11.838  15.4370  0.00  0.00     0.000 C
ATOM     26  C3  IDS B   2      66.493  11.439  16.3270  0.00  0.00     0.000 C
ATOM     27  C4  IDS B   2      67.394  12.608  16.7040  0.00  0.00     0.000 C
ATOM     28  C5  IDS B   2      66.545  13.874  16.9340  0.00  0.00     0.000 C
ATOM     29  O5  IDS B   2      65.192  13.537  17.2040  0.00  0.00     0.000 O
ATOM     30   O  IDS B   2      67.294  10.482  15.6440  0.00  0.00     0.000 O
ATOM     32  HD  IDS B   2      67.822  10.836  15.0560  0.00  0.00     0.000 HD
BRANCH 25 32
ATOM     32   O  IDS B   2      64.504  10.622  15.1990  0.00  0.00     0.000 O
ATOM     33   S  IDS B   2      64.281  10.004  13.6850  0.00  0.00     0.000 S
ATOM     34   O  IDS B   2      63.265   8.972  13.8140  0.00  0.00     0.000 OA
ATOM     35   O  IDS B   2      63.848  11.066  12.7870  0.00  0.00     0.000 OA
ATOM     36   O  IDS B   2      65.555   9.444  13.3000  0.00  0.00     0.000 OA
ENDBRANCH 25 32
BRANCH 28 37
ATOM     37   C  IDS B   2      67.019  14.873  18.0100  0.00  0.00     0.000 C
ATOM     38   O  IDS B   2      66.322  14.863  18.9980  0.00  0.00     0.000 OA
ATOM     39   O  IDS B   2      68.042  15.600  17.9680  0.00  0.00     0.000 OA
ENDBRANCH 28 37
BRANCH 24 40
ATOM     40  O4  SUS B   3      63.454  13.514  15.4170  0.00  0.00     0.000 O
BRANCH 40 44
ATOM     41  C1  SUS B   3      59.738  14.834  16.8280  0.00  0.00     0.000 C
ATOM     42  C2  SUS B   3      60.943  15.775  17.0290  0.00  0.00     0.000 C
ATOM     43  C3  SUS B   3      62.058  15.377  16.0640  0.00  0.00     0.000 C
ATOM     44  C4  SUS B   3      62.382  13.905  16.2670  0.00  0.00     0.000 C
ATOM     45  C5  SUS B   3      61.149  13.084  15.9520  0.00  0.00     0.000 C
ATOM     46  O5  SUS B   3      60.112  13.453  16.8830  0.00  0.00     0.000 O
BRANCH 42 49
ATOM     47   N  SUS B   3      60.749  16.357  18.3680  0.00  0.00     0.000 N
ATOM     49  HD  SUS B   3      60.136  15.996  18.8620  0.00  0.00     0.000 HD
ATOM     49   S  SUS B   3      60.482  17.936  18.3220  0.00  0.00     0.000 S
ATOM     50   O  SUS B   3      59.357  18.210  17.5180  0.00  0.00     0.000 OA
ATOM     51   O  SUS B   3      60.135  18.104  19.8230  0.00  0.00     0.000 OA
ATOM     52   O  SUS B   3      61.684  18.604  18.0110  0.00  0.00     0.000 OA
ENDBRANCH 42 49
BRANCH 43 53
ATOM     53   O  SUS B   3      63.243  16.199  16.3750  0.00  0.00     0.000 O
ATOM     54   S  SUS B   3      63.822  17.163  15.1750  0.00  0.00     0.000 S
ATOM     55   O  SUS B   3      62.868  18.247  14.9870  0.00  0.00     0.000 OA
ATOM     56   O  SUS B   3      65.116  17.600  15.6690  0.00  0.00     0.000 OA
ATOM     57   O  SUS B   3      63.915  16.323  13.9770  0.00  0.00     0.000 OA
ENDBRANCH 43 53
BRANCH 45 58
ATOM     58   C  SUS B   3      61.421  11.598  16.0350  0.00  0.00     0.000 C
ATOM     59   S  SUS B   3      61.545   9.643  17.6930  0.00  0.00     0.000 S
ATOM     60   O  SUS B   3      61.116  11.131  17.3600  0.00  0.00     0.000 O
ATOM     61   O  SUS B   3      62.973   9.706  17.9380  0.00  0.00     0.000 OA
ATOM     62   O  SUS B   3      60.785   9.408  18.8920  0.00  0.00     0.000 OA
ATOM     63   O  SUS B   3      61.155   8.873  16.5660  0.00  0.00     0.000 OA
ENDBRANCH 45 58
BRANCH 41 64
ATOM     64  O4  IDS B   4      58.954  15.161  15.7480  0.00  0.00     0.000 O
BRANCH 64 68
ATOM     65  C1  IDS B   4      56.124  15.278  13.4570  0.00  0.00     0.000 C
ATOM     66  C2  IDS B   4      56.381  16.438  14.4260  0.00  0.00     0.000 C
ATOM     67  C3  IDS B   4      56.675  16.010  15.8540  0.00  0.00     0.000 C
ATOM     68  C4  IDS B   4      57.570  14.788  15.9310  0.00  0.00     0.000 C
ATOM     69  C5  IDS B   4      57.073  13.765  14.9010  0.00  0.00     0.000 C
ATOM     70  O5  IDS B   4      57.169  14.331  13.5910  0.00  0.00     0.000 O
ATOM     71   O  IDS B   4      55.435  15.732  16.4720  0.00  0.00     0.000 O
ATOM     73  HD  IDS B   4      55.956  16.071  15.8690  0.00  0.00     0.000 HD
BRANCH 66 73
ATOM     73   O  IDS B   4      57.576  17.169  13.9840  0.00  0.00     0.000 O
ATOM     74   S  IDS B   4      57.427  18.749  13.6720  0.00  0.00     0.000 S
ATOM     75   O  IDS B   4      56.384  18.874  12.6750  0.00  0.00     0.000 OA
ATOM     76   O  IDS B   4      58.743  19.082  13.1890  0.00  0.00     0.000 OA
ATOM     77   O  IDS B   4      57.086  19.361  14.9340  0.00  0.00     0.000 OA
ENDBRANCH 66 73
BRANCH 69 78
ATOM     78   C  IDS B   4      57.731  12.396  15.0040  0.00  0.00     0.000 C
ATOM     79   O  IDS B   4      57.430  11.665  15.9470  0.00  0.00     0.000 OA
ATOM     80   O  IDS B   4      58.470  12.019  14.0770  0.00  0.00     0.000 OA
ENDBRANCH 69 78
BRANCH 65 81
ATOM     81  O4  SGN B   5      54.854  14.818  13.6270  0.00  0.00     0.000 O
BRANCH 81 85
ATOM     82  C1  SGN B   5      52.055  12.441  11.5880  0.00  0.00     0.000 C
ATOM     83  C2  SGN B   5      52.561  11.918  12.9410  0.00  0.00     0.000 C
ATOM     84  C3  SGN B   5      53.180  13.074  13.7390  0.00  0.00     0.000 C
ATOM     85  C4  SGN B   5      54.268  13.730  12.9080  0.00  0.00     0.000 C
ATOM     86  C5  SGN B   5      53.643  14.228  11.6070  0.00  0.00     0.000 C
ATOM     87  O5  SGN B   5      53.098  13.100  10.8960  0.00  0.00     0.000 O
ATOM     88   O  SGN B   5      53.699  12.590  14.9590  0.00  0.00     0.000 O
ATOM     90  HD  SGN B   5      52.948  13.012  14.8640  0.00  0.00     0.000 HD
BRANCH 83 92
ATOM     90   N  SGN B   5      51.775  10.761  12.4680  0.00  0.00     0.000 N
ATOM     92  HD  SGN B   5      52.086  10.461  11.7180  0.00  0.00     0.000 HD
ATOM     92   S  SGN B   5      51.376   9.639  13.5340  0.00  0.00     0.000 S
ATOM     93   O  SGN B   5      50.641   8.674  12.7730  0.00  0.00     0.000 OA
ATOM     94   O  SGN B   5      52.589   9.267  14.1760  0.00  0.00     0.000 OA
ATOM     95   O  SGN B   5      50.528  10.364  14.5560  0.00  0.00     0.000 OA
ENDBRANCH 83 92
BRANCH 86 96
ATOM     96   C  SGN B   5      54.616  14.921  10.6760  0.00  0.00     0.000 C
ATOM     97   O  SGN B   5      55.253  13.971   9.8180  0.00  0.00     0.000 O
ATOM     98   S  SGN B   5      55.226  14.306   8.2500  0.00  0.00     0.000 S
ATOM     99   O  SGN B   5      56.101  13.302   7.6950  0.00  0.00     0.000 OA
ATOM    100   O  SGN B   5      53.877  14.221   7.8190  0.00  0.00     0.000 OA
ATOM    101   O  SGN B   5      55.755  15.629   8.1610  0.00  0.00     0.000 OA
ENDBRANCH 86 96
BRANCH 82 102
ATOM    102  O4  IDS B   6      50.975  13.264  11.7150  0.00  0.00     0.000 O
BRANCH 102 106
ATOM    103  C1  IDS B   6      47.467  14.074  11.1750  0.00  0.00     0.000 C
ATOM    104  C2  IDS B   6      47.907  12.626  11.4420  0.00  0.00     0.000 C
ATOM    105  C3  IDS B   6      49.098  12.156  10.6290  0.00  0.00     0.000 C
ATOM    106  C4  IDS B   6      50.178  13.216  10.5050  0.00  0.00     0.000 C
ATOM    107  C5  IDS B   6      49.536  14.577  10.2210  0.00  0.00     0.000 C
ATOM    108  O5  IDS B   6      48.586  14.938  11.2250  0.00  0.00     0.000 O
ATOM    109   O  IDS B   6      48.630  11.760   9.3510  0.00  0.00     0.000 O
ATOM    111  HD  IDS B   6      47.884  12.189   9.2590  0.00  0.00     0.000 HD
BRANCH 104 111
ATOM    111   O  IDS B   6      48.323  12.503  12.8480  0.00  0.00     0.000 O
ATOM    112   S  IDS B   6      47.181  12.444  13.9680  0.00  0.00     0.000 S
ATOM    113   O  IDS B   6      46.436  13.682  13.7980  0.00  0.00     0.000 OA
ATOM    114   O  IDS B   6      46.394  11.222  13.7650  0.00  0.00     0.000 OA
ATOM    115   O  IDS B   6      48.015  12.419  15.1510  0.00  0.00     0.000 OA
ENDBRANCH 104 111
BRANCH 107 116
ATOM    116   C  IDS B   6      50.624  15.639  10.1340  0.00  0.00     0.000 C
ATOM    117   O  IDS B   6      50.718  16.397  11.0660  0.00  0.00     0.000 OA
ATOM    118   O  IDS B   6      51.357  15.720   9.1600  0.00  0.00     0.000 OA
ENDBRANCH 107 116
BRANCH 103 119
ATOM    119  O4  SGN B   7      46.700  13.976  10.0590  0.00  0.00     0.000 O
BRANCH 119 123
ATOM    120  C1  SGN B   7      43.511  16.094   8.3750  0.00  0.00     0.000 C
ATOM    121  C2  SGN B   7      44.926  16.676   8.1990  0.00  0.00     0.000 C
ATOM    122  C3  SGN B   7      45.988  15.611   8.5040  0.00  0.00     0.000 C
ATOM    123  C4  SGN B   7      45.735  15.013   9.8780  0.00  0.00     0.000 C
ATOM    124  C5  SGN B   7      44.299  14.468   9.9540  0.00  0.00     0.000 C
ATOM    125  O5  SGN B   7      43.334  15.504   9.6620  0.00  0.00     0.000 O
ATOM    126   O  SGN B   7      47.285  16.212   8.4270  0.00  0.00     0.000 O
ATOM    128  HD  SGN B   7      46.434  16.280   8.2840  0.00  0.00     0.000 HD
BRANCH 121 130
ATOM    128   N  SGN B   7      44.223  17.789   7.5540  0.00  0.00     0.000 N
ATOM    130  HD  SGN B   7      44.651  18.356   8.0500  0.00  0.00     0.000 HD
ATOM    130   S  SGN B   7      44.951  18.775   6.5090  0.00  0.00     0.000 S
ATOM    131   O  SGN B   7      45.585  17.917   5.5680  0.00  0.00     0.000 OA
ATOM    132   O  SGN B   7      44.007  19.741   6.0770  0.00  0.00     0.000 OA
ATOM    133   O  SGN B   7      45.902  19.557   7.4770  0.00  0.00     0.000 OA
ENDBRANCH 121 130
BRANCH 124 134
ATOM    134   C  SGN B   7      43.914  13.959  11.3120  0.00  0.00     0.000 C
ATOM    135   O  SGN B   7      42.491  14.089  11.4630  0.00  0.00     0.000 O
ATOM    136   S  SGN B   7      41.866  13.467  12.7640  0.00  0.00     0.000 S
ATOM    137   O  SGN B   7      40.463  13.809  12.7430  0.00  0.00     0.000 OA
ATOM    138   O  SGN B   7      42.581  14.082  13.8590  0.00  0.00     0.000 OA
ATOM    139   O  SGN B   7      42.132  12.048  12.5920  0.00  0.00     0.000 OA
ENDBRANCH 124 134
BRANCH 120 140
ATOM    140  O4  IDS B   8      42.907  15.161   7.6320  0.00  0.00     0.000 O
BRANCH 140 144
ATOM    141  C1  IDS B   8      40.671  12.894   5.9510  0.00  0.00     0.000 C
ATOM    142  C2  IDS B   8      41.924  12.368   6.7070  0.00  0.00     0.000 C
ATOM    143  C3  IDS B   8      43.211  13.134   6.3480  0.00  0.00     0.000 C
ATOM    144  C4  IDS B   8      42.984  14.644   6.2980  0.00  0.00     0.000 C
ATOM    145  C5  IDS B   8      41.689  14.959   5.5340  0.00  0.00     0.000 C
ATOM    146  O5  IDS B   8      40.563  14.303   6.1120  0.00  0.00     0.000 O
BRANCH 142 147
ATOM    147   O  IDS B   8      41.718  12.515   8.1720  0.00  0.00     0.000 O
ATOM    148   S  IDS B   8      41.244  11.258   9.0800  0.00  0.00     0.000 S
ATOM    149   O  IDS B   8      40.727  10.244   8.1890  0.00  0.00     0.000 OA
ATOM    150   O  IDS B   8      42.431  10.826   9.7940  0.00  0.00     0.000 OA
ATOM    151   O  IDS B   8      40.214  11.786   9.9550  0.00  0.00     0.000 OA
ENDBRANCH 142 147
BRANCH 145 152
ATOM    152   C  IDS B   8      41.356  16.437   5.5350  0.00  0.00     0.000 C
ATOM    153   O  IDS B   8      42.152  17.236   5.0520  0.00  0.00     0.000 OA
ATOM    154   O  IDS B   8      40.294  16.815   5.9960  0.00  0.00     0.000 OA
ENDBRANCH 145 152
ENDBRANCH 140 144
ENDBRANCH 120 140
ENDBRANCH 119 123
ENDBRANCH 103 119
ENDBRANCH 102 106
ENDBRANCH 82 102
ENDBRANCH 81 85
ENDBRANCH 65 81
ENDBRANCH 64 68
ENDBRANCH 41 64
ENDBRANCH 40 44
ENDBRANCH 24 40
ENDBRANCH 23 27
ENDBRANCH 1 23
TORSDOF 31
ENDMDL
MODEL 23
REMARK VINA RESULT:      -5.5     22.283     35.152
ROOT
ATOM      1  C1  SGN B   1      41.315  10.207  28.8600  0.00  0.00     0.000 C
ATOM      2  C2  SGN B   1      40.352  10.973  29.7810  0.00  0.00     0.000 C
ATOM      3  C3  SGN B   1      41.099  11.548  30.9890  0.00  0.00     0.000 C
ATOM      4  C4  SGN B   1      41.836  10.437  31.7310  0.00  0.00     0.000 C
ATOM      5  C5  SGN B   1      42.662   9.632  30.7300  0.00  0.00     0.000 C
ATOM      6  O5  SGN B   1      41.805   9.151  29.6750  0.00  0.00     0.000 O
ATOM      7   O  SGN B   1      40.198  12.217  31.8630  0.00  0.00     0.000 O
ATOM      9  HD  SGN B   1      39.887  11.409  31.8750  0.00  0.00     0.000 HD
ATOM      9   O  SGN B   1      42.681  11.007  32.7140  0.00  0.00     0.000 O
ATOM     11  HD  SGN B   1      42.370  10.199  32.7250  0.00  0.00     0.000 HD
ENDROOT
BRANCH 2 13
ATOM     11   N  SGN B   1      39.033  10.883  29.1280  0.00  0.00     0.000 N
ATOM     13  HD  SGN B   1      39.735  11.104  28.6720  0.00  0.00     0.000 HD
ATOM     13   S  SGN B   1      38.651  11.764  27.8370  0.00  0.00     0.000 S
ATOM     14   O  SGN B   1      39.756  12.546  27.4390  0.00  0.00     0.000 OA
ATOM     15   O  SGN B   1      38.015  10.917  26.8850  0.00  0.00     0.000 OA
ATOM     16   O  SGN B   1      37.539  12.643  28.4880  0.00  0.00     0.000 OA
ENDBRANCH 2 13
BRANCH 5 17
ATOM     17   C  SGN B   1      43.353   8.432  31.3290  0.00  0.00     0.000 C
ATOM     18   O  SGN B   1      43.163   7.264  30.5060  0.00  0.00     0.000 O
ATOM     19   S  SGN B   1      42.772   5.919  31.2770  0.00  0.00     0.000 S
ATOM     20   O  SGN B   1      42.871   4.873  30.2810  0.00  0.00     0.000 OA
ATOM     21   O  SGN B   1      43.759   5.814  32.3260  0.00  0.00     0.000 OA
ATOM     22   O  SGN B   1      41.425   6.136  31.7560  0.00  0.00     0.000 OA
ENDBRANCH 5 17
BRANCH 1 23
ATOM     23  O4  IDS B   2      42.134  10.411  27.7880  0.00  0.00     0.000 O
BRANCH 23 27
ATOM     24  C1  IDS B   2      43.880  10.504  24.0230  0.00  0.00     0.000 C
ATOM     25  C2  IDS B   2      42.373  10.167  24.0510  0.00  0.00     0.000 C
ATOM     26  C3  IDS B   2      41.776  10.450  25.4270  0.00  0.00     0.000 C
ATOM     27  C4  IDS B   2      42.506   9.746  26.5630  0.00  0.00     0.000 C
ATOM     28  C5  IDS B   2      44.022   9.727  26.2830  0.00  0.00     0.000 C
ATOM     29  O5  IDS B   2      44.378  10.735  25.3480  0.00  0.00     0.000 O
ATOM     30   O  IDS B   2      40.423  10.011  25.4500  0.00  0.00     0.000 O
ATOM     32  HD  IDS B   2      40.342   9.156  25.5580  0.00  0.00     0.000 HD
BRANCH 25 32
ATOM     32   O  IDS B   2      41.603  10.955  23.0580  0.00  0.00     0.000 O
ATOM     33   S  IDS B   2      40.687  10.231  21.8920  0.00  0.00     0.000 S
ATOM     34   O  IDS B   2      40.274  11.291  20.9850  0.00  0.00     0.000 OA
ATOM     35   O  IDS B   2      41.483   9.224  21.2060  0.00  0.00     0.000 OA
ATOM     36   O  IDS B   2      39.554   9.660  22.5840  0.00  0.00     0.000 OA
ENDBRANCH 25 32
BRANCH 28 37
ATOM     37   C  IDS B   2      44.979   9.825  27.4890  0.00  0.00     0.000 C
ATOM     38   O  IDS B   2      45.123   8.769  28.0590  0.00  0.00     0.000 OA
ATOM     39   O  IDS B   2      45.628  10.835  27.8590  0.00  0.00     0.000 OA
ENDBRANCH 28 37
BRANCH 24 40
ATOM     40  O4  SUS B   3      44.604  10.258  22.9120  0.00  0.00     0.000 O
BRANCH 40 44
ATOM     41  C1  SUS B   3      48.074  12.107  21.4680  0.00  0.00     0.000 C
ATOM     42  C2  SUS B   3      48.218  11.215  22.7170  0.00  0.00     0.000 C
ATOM     43  C3  SUS B   3      47.018  10.274  22.8050  0.00  0.00     0.000 C
ATOM     44  C4  SUS B   3      45.742  11.102  22.7800  0.00  0.00     0.000 C
ATOM     45  C5  SUS B   3      45.674  11.858  21.4690  0.00  0.00     0.000 C
ATOM     46  O5  SUS B   3      46.800  12.757  21.4090  0.00  0.00     0.000 O
BRANCH 42 49
ATOM     47   N  SUS B   3      49.493  10.477  22.7630  0.00  0.00     0.000 N
ATOM     49  HD  SUS B   3      49.443   9.630  22.9330  0.00  0.00     0.000 HD
ATOM     49   S  SUS B   3      50.547  11.128  23.7780  0.00  0.00     0.000 S
ATOM     50   O  SUS B   3      49.990  11.193  25.0720  0.00  0.00     0.000 OA
ATOM     51   O  SUS B   3      51.601   9.995  23.6930  0.00  0.00     0.000 OA
ATOM     52   O  SUS B   3      51.052  12.321  23.2250  0.00  0.00     0.000 OA
ENDBRANCH 42 49
BRANCH 43 53
ATOM     53   O  SUS B   3      47.112   9.535  24.0780  0.00  0.00     0.000 O
ATOM     54   S  SUS B   3      47.288   7.903  23.9860  0.00  0.00     0.000 S
ATOM     55   O  SUS B   3      48.634   7.637  23.4990  0.00  0.00     0.000 OA
ATOM     56   O  SUS B   3      47.057   7.447  25.3450  0.00  0.00     0.000 OA
ATOM     57   O  SUS B   3      46.277   7.429  23.0370  0.00  0.00     0.000 OA
ENDBRANCH 43 53
BRANCH 45 58
ATOM     58   C  SUS B   3      44.380  12.630  21.3270  0.00  0.00     0.000 C
ATOM     59   S  SUS B   3      43.084  14.144  19.7110  0.00  0.00     0.000 S
ATOM     60   O  SUS B   3      44.269  13.131  19.9840  0.00  0.00     0.000 O
ATOM     61   O  SUS B   3      43.536  15.412  20.2520  0.00  0.00     0.000 OA
ATOM     62   O  SUS B   3      43.048  14.134  18.2730  0.00  0.00     0.000 OA
ATOM     63   O  SUS B   3      41.948  13.581  20.3510  0.00  0.00     0.000 OA
ENDBRANCH 45 58
BRANCH 41 64
ATOM     64  O4  IDS B   4      48.443  11.487  20.2990  0.00  0.00     0.000 O
BRANCH 64 68
ATOM     65  C1  IDS B   4      50.223  10.824  17.1900  0.00  0.00     0.000 C
ATOM     66  C2  IDS B   4      50.991  10.917  18.5150  0.00  0.00     0.000 C
ATOM     67  C3  IDS B   4      50.610  12.108  19.3790  0.00  0.00     0.000 C
ATOM     68  C4  IDS B   4      49.117  12.379  19.3850  0.00  0.00     0.000 C
ATOM     69  C5  IDS B   4      48.608  12.273  17.9410  0.00  0.00     0.000 C
ATOM     70  O5  IDS B   4      48.838  10.948  17.4560  0.00  0.00     0.000 O
ATOM     71   O  IDS B   4      51.298  13.232  18.8710  0.00  0.00     0.000 O
ATOM     73  HD  IDS B   4      51.141  12.387  18.9780  0.00  0.00     0.000 HD
BRANCH 66 73
ATOM     73   O  IDS B   4      50.682   9.731  19.3250  0.00  0.00     0.000 O
ATOM     74   S  IDS B   4      51.906   8.763  19.7500  0.00  0.00     0.000 S
ATOM     75   O  IDS B   4      52.553   8.357  18.5210  0.00  0.00     0.000 OA
ATOM     76   O  IDS B   4      51.217   7.696  20.4310  0.00  0.00     0.000 OA
ATOM     77   O  IDS B   4      52.752   9.563  20.6030  0.00  0.00     0.000 OA
ENDBRANCH 66 73
BRANCH 69 78
ATOM     78   C  IDS B   4      47.170  12.734  17.7460  0.00  0.00     0.000 C
ATOM     79   O  IDS B   4      46.781  13.731  18.3530  0.00  0.00     0.000 OA
ATOM     80   O  IDS B   4      46.467  12.151  16.9000  0.00  0.00     0.000 OA
ENDBRANCH 69 78
BRANCH 65 81
ATOM     81  O4  SGN B   5      50.757  11.701  16.2950  0.00  0.00     0.000 O
BRANCH 81 85
ATOM     82  C1  SGN B   5      51.676  12.246  12.2340  0.00  0.00     0.000 C
ATOM     83  C2  SGN B   5      50.201  12.383  12.6400  0.00  0.00     0.000 C
ATOM     84  C3  SGN B   5      50.105  12.620  14.1530  0.00  0.00     0.000 C
ATOM     85  C4  SGN B   5      50.823  11.497  14.8820  0.00  0.00     0.000 C
ATOM     86  C5  SGN B   5      52.277  11.475  14.4150  0.00  0.00     0.000 C
ATOM     87  O5  SGN B   5      52.302  11.232  12.9960  0.00  0.00     0.000 O
ATOM     88   O  SGN B   5      48.751  12.690  14.5430  0.00  0.00     0.000 O
ATOM     90  HD  SGN B   5      49.279  13.369  14.4350  0.00  0.00     0.000 HD
BRANCH 83 92
ATOM     90   N  SGN B   5      50.160  12.714  11.2020  0.00  0.00     0.000 N
ATOM     92  HD  SGN B   5      50.677  12.189  10.7470  0.00  0.00     0.000 HD
ATOM     92   S  SGN B   5      48.735  13.002  10.5380  0.00  0.00     0.000 S
ATOM     93   O  SGN B   5      49.033  13.279   9.1650  0.00  0.00     0.000 OA
ATOM     94   O  SGN B   5      47.918  11.889  10.8800  0.00  0.00     0.000 OA
ATOM     95   O  SGN B   5      48.198  14.203  11.2860  0.00  0.00     0.000 OA
ENDBRANCH 83 92
BRANCH 86 96
ATOM     96   C  SGN B   5      53.123  10.405  15.0730  0.00  0.00     0.000 C
ATOM     97   O  SGN B   5      54.509  10.620  14.7940  0.00  0.00     0.000 O
ATOM     98   S  SGN B   5      55.492  10.619  16.0620  0.00  0.00     0.000 S
ATOM     99   O  SGN B   5      56.799  10.651  15.4500  0.00  0.00     0.000 OA
ATOM    100   O  SGN B   5      55.177  11.759  16.8460  0.00  0.00     0.000 OA
ATOM    101   O  SGN B   5      55.209   9.390  16.7290  0.00  0.00     0.000 OA
ENDBRANCH 86 96
BRANCH 82 102
ATOM    102  O4  IDS B   6      52.363  13.418  12.3470  0.00  0.00     0.000 O
BRANCH 102 106
ATOM    103  C1  IDS B   6      54.313  15.990  10.6620  0.00  0.00     0.000 C
ATOM    104  C2  IDS B   6      53.317  15.120   9.8800  0.00  0.00     0.000 C
ATOM    105  C3  IDS B   6      53.407  13.632  10.1570  0.00  0.00     0.000 C
ATOM    106  C4  IDS B   6      53.619  13.321  11.6280  0.00  0.00     0.000 C
ATOM    107  C5  IDS B   6      54.657  14.283  12.2150  0.00  0.00     0.000 C
ATOM    108  O5  IDS B   6      54.280  15.649  12.0350  0.00  0.00     0.000 O
ATOM    109   O  IDS B   6      54.461  13.099   9.3730  0.00  0.00     0.000 O
ATOM    111  HD  IDS B   6      54.968  13.783   9.2120  0.00  0.00     0.000 HD
BRANCH 104 111
ATOM    111   O  IDS B   6      51.947  15.503  10.2550  0.00  0.00     0.000 O
ATOM    112   S  IDS B   6      51.078  16.327   9.1930  0.00  0.00     0.000 S
ATOM    113   O  IDS B   6      51.856  17.528   8.9360  0.00  0.00     0.000 OA
ATOM    114   O  IDS B   6      50.855  15.477   8.0180  0.00  0.00     0.000 OA
ATOM    115   O  IDS B   6      49.891  16.555   9.9890  0.00  0.00     0.000 OA
ENDBRANCH 104 111
BRANCH 107 116
ATOM    116   C  IDS B   6      54.836  13.987  13.6990  0.00  0.00     0.000 C
ATOM    117   O  IDS B   6      55.825  13.375  14.0140  0.00  0.00     0.000 OA
ATOM    118   O  IDS B   6      54.009  14.346  14.5220  0.00  0.00     0.000 OA
ENDBRANCH 107 116
BRANCH 103 119
ATOM    119  O4  SGN B   7      55.458  15.897   9.9380  0.00  0.00     0.000 O
BRANCH 119 123
ATOM    120  C1  SGN B   7      58.899  18.229   9.4770  0.00  0.00     0.000 C
ATOM    121  C2  SGN B   7      58.923  17.127  10.5540  0.00  0.00     0.000 C
ATOM    122  C3  SGN B   7      57.781  16.128  10.3260  0.00  0.00     0.000 C
ATOM    123  C4  SGN B   7      56.459  16.872  10.2350  0.00  0.00     0.000 C
ATOM    124  C5  SGN B   7      56.539  17.949   9.1420  0.00  0.00     0.000 C
ATOM    125  O5  SGN B   7      57.626  18.867   9.3970  0.00  0.00     0.000 O
ATOM    126   O  SGN B   7      57.773  15.178  11.3980  0.00  0.00     0.000 O
ATOM    128  HD  SGN B   7      58.181  15.825  10.9920  0.00  0.00     0.000 HD
BRANCH 121 130
ATOM    128   N  SGN B   7      60.117  17.705  11.1770  0.00  0.00     0.000 N
ATOM    130  HD  SGN B   7      59.890  17.367  11.9410  0.00  0.00     0.000 HD
ATOM    130   S  SGN B   7      61.379  16.805  11.6130  0.00  0.00     0.000 S
ATOM    131   O  SGN B   7      61.691  16.021  10.4680  0.00  0.00     0.000 OA
ATOM    132   O  SGN B   7      62.357  17.657  12.1880  0.00  0.00     0.000 OA
ATOM    133   O  SGN B   7      60.765  16.031  12.8290  0.00  0.00     0.000 OA
ENDBRANCH 121 130
BRANCH 124 134
ATOM    134   C  SGN B   7      55.318  18.817   9.0530  0.00  0.00     0.000 C
ATOM    135   O  SGN B   7      55.661  20.018   8.3410  0.00  0.00     0.000 O
ATOM    136   S  SGN B   7      54.477  20.995   8.0070  0.00  0.00     0.000 S
ATOM    137   O  SGN B   7      55.072  22.159   7.3940  0.00  0.00     0.000 OA
ATOM    138   O  SGN B   7      53.853  21.283   9.2780  0.00  0.00     0.000 OA
ATOM    139   O  SGN B   7      53.661  20.200   7.1020  0.00  0.00     0.000 OA
ENDBRANCH 124 134
BRANCH 120 140
ATOM    140  O4  IDS B   8      59.155  18.107   8.1700  0.00  0.00     0.000 O
BRANCH 140 144
ATOM    141  C1  IDS B   8      59.128  16.544   4.9270  0.00  0.00     0.000 C
ATOM    142  C2  IDS B   8      59.276  15.696   6.2230  0.00  0.00     0.000 C
ATOM    143  C3  IDS B   8      60.345  16.246   7.1850  0.00  0.00     0.000 C
ATOM    144  C4  IDS B   8      60.261  17.765   7.3260  0.00  0.00     0.000 C
ATOM    145  C5  IDS B   8      60.093  18.416   5.9450  0.00  0.00     0.000 C
ATOM    146  O5  IDS B   8      58.948  17.914   5.2620  0.00  0.00     0.000 O
BRANCH 142 147
ATOM    147   O  IDS B   8      57.985  15.686   6.9590  0.00  0.00     0.000 O
ATOM    148   S  IDS B   8      56.960  14.434   6.8320  0.00  0.00     0.000 S
ATOM    149   O  IDS B   8      57.349  13.665   5.6720  0.00  0.00     0.000 OA
ATOM    150   O  IDS B   8      57.101  13.692   8.0710  0.00  0.00     0.000 OA
ATOM    151   O  IDS B   8      55.647  15.031   6.6720  0.00  0.00     0.000 OA
ENDBRANCH 142 147
BRANCH 145 152
ATOM    152   C  IDS B   8      59.905  19.918   6.0270  0.00  0.00     0.000 C
ATOM    153   O  IDS B   8      58.775  20.389   5.9700  0.00  0.00     0.000 OA
ATOM    154   O  IDS B   8      60.876  20.639   6.1700  0.00  0.00     0.000 OA
ENDBRANCH 145 152
ENDBRANCH 140 144
ENDBRANCH 120 140
ENDBRANCH 119 123
ENDBRANCH 103 119
ENDBRANCH 102 106
ENDBRANCH 82 102
ENDBRANCH 81 85
ENDBRANCH 65 81
ENDBRANCH 64 68
ENDBRANCH 41 64
ENDBRANCH 40 44
ENDBRANCH 24 40
ENDBRANCH 23 27
ENDBRANCH 1 23
TORSDOF 31
ENDMDL
MODEL 24
REMARK VINA RESULT:      -5.5      7.676     11.626
ROOT
ATOM      1  C1  SGN B   1      39.850  26.168  17.7580  0.00  0.00     0.000 C
ATOM      2  C2  SGN B   1      40.505  26.756  19.0190  0.00  0.00     0.000 C
ATOM      3  C3  SGN B   1      39.545  26.687  20.2120  0.00  0.00     0.000 C
ATOM      4  C4  SGN B   1      38.233  27.386  19.8720  0.00  0.00     0.000 C
ATOM      5  C5  SGN B   1      37.714  26.852  18.5390  0.00  0.00     0.000 C
ATOM      6  O5  SGN B   1      38.729  27.011  17.5290  0.00  0.00     0.000 O
ATOM      7   O  SGN B   1      40.138  27.272  21.3650  0.00  0.00     0.000 O
ATOM      9  HD  SGN B   1      40.120  27.942  20.8170  0.00  0.00     0.000 HD
ATOM      9   O  SGN B   1      37.289  27.138  20.8980  0.00  0.00     0.000 O
ATOM     11  HD  SGN B   1      37.271  27.808  20.3500  0.00  0.00     0.000 HD
ENDROOT
BRANCH 2 13
ATOM     11   N  SGN B   1      41.843  27.151  18.5410  0.00  0.00     0.000 N
ATOM     13  HD  SGN B   1      41.545  26.350  18.4010  0.00  0.00     0.000 HD
ATOM     13   S  SGN B   1      43.042  26.091  18.3690  0.00  0.00     0.000 S
ATOM     14   O  SGN B   1      42.591  24.792  18.6870  0.00  0.00     0.000 OA
ATOM     15   O  SGN B   1      43.674  26.325  17.1140  0.00  0.00     0.000 OA
ATOM     16   O  SGN B   1      43.992  26.648  19.4740  0.00  0.00     0.000 OA
ENDBRANCH 2 13
BRANCH 5 17
ATOM     17   C  SGN B   1      36.471  27.548  18.0410  0.00  0.00     0.000 C
ATOM     18   O  SGN B   1      36.535  28.965  18.3010  0.00  0.00     0.000 O
ATOM     19   S  SGN B   1      35.211  29.627  18.9050  0.00  0.00     0.000 S
ATOM     20   O  SGN B   1      35.448  31.055  18.8510  0.00  0.00     0.000 OA
ATOM     21   O  SGN B   1      34.159  29.181  18.0220  0.00  0.00     0.000 OA
ATOM     22   O  SGN B   1      35.110  29.108  20.2510  0.00  0.00     0.000 OA
ENDBRANCH 5 17
BRANCH 1 23
ATOM     23  O4  IDS B   2      39.707  24.982  17.1010  0.00  0.00     0.000 O
BRANCH 23 27
ATOM     24  C1  IDS B   2      36.602  22.655  18.5770  0.00  0.00     0.000 C
ATOM     25  C2  IDS B   2      37.989  22.392  19.2040  0.00  0.00     0.000 C
ATOM     26  C3  IDS B   2      38.980  23.485  18.8140  0.00  0.00     0.000 C
ATOM     27  C4  IDS B   2      39.099  23.690  17.3100  0.00  0.00     0.000 C
ATOM     28  C5  IDS B   2      37.719  23.519  16.6440  0.00  0.00     0.000 C
ATOM     29  O5  IDS B   2      36.674  23.693  17.5900  0.00  0.00     0.000 O
ATOM     30   O  IDS B   2      40.271  23.143  19.3050  0.00  0.00     0.000 O
ATOM     32  HD  IDS B   2      40.679  22.557  18.8140  0.00  0.00     0.000 HD
BRANCH 25 32
ATOM     32   O  IDS B   2      37.935  22.343  20.6850  0.00  0.00     0.000 O
ATOM     33   S  IDS B   2      38.298  20.970  21.5260  0.00  0.00     0.000 S
ATOM     34   O  IDS B   2      37.922  21.229  22.9070  0.00  0.00     0.000 OA
ATOM     35   O  IDS B   2      37.550  19.851  20.9710  0.00  0.00     0.000 OA
ATOM     36   O  IDS B   2      39.726  20.798  21.3930  0.00  0.00     0.000 OA
ENDBRANCH 25 32
BRANCH 28 37
ATOM     37   C  IDS B   2      37.403  24.386  15.4080  0.00  0.00     0.000 C
ATOM     38   O  IDS B   2      37.975  24.007  14.4130  0.00  0.00     0.000 OA
ATOM     39   O  IDS B   2      36.600  25.349  15.3450  0.00  0.00     0.000 OA
ENDBRANCH 28 37
BRANCH 24 40
ATOM     40  O4  SUS B   3      35.605  21.762  18.7490  0.00  0.00     0.000 O
BRANCH 40 44
ATOM     41  C1  SUS B   3      31.468  22.339  19.0570  0.00  0.00     0.000 C
ATOM     42  C2  SUS B   3      32.109  22.556  17.6710  0.00  0.00     0.000 C
ATOM     43  C3  SUS B   3      33.465  21.856  17.6300  0.00  0.00     0.000 C
ATOM     44  C4  SUS B   3      34.313  22.358  18.7880  0.00  0.00     0.000 C
ATOM     45  C5  SUS B   3      33.623  22.005  20.0900  0.00  0.00     0.000 C
ATOM     46  O5  SUS B   3      32.354  22.689  20.1260  0.00  0.00     0.000 O
BRANCH 42 49
ATOM     47   N  SUS B   3      31.120  22.138  16.6620  0.00  0.00     0.000 N
ATOM     49  HD  SUS B   3      31.372  21.524  16.1050  0.00  0.00     0.000 HD
ATOM     49   S  SUS B   3      30.540  23.370  15.8180  0.00  0.00     0.000 S
ATOM     50   O  SUS B   3      31.596  24.060  15.1890  0.00  0.00     0.000 OA
ATOM     51   O  SUS B   3      29.749  22.524  14.7880  0.00  0.00     0.000 OA
ATOM     52   O  SUS B   3      29.662  24.117  16.6270  0.00  0.00     0.000 OA
ENDBRANCH 42 49
BRANCH 43 53
ATOM     53   O  SUS B   3      34.114  22.197  16.3490  0.00  0.00     0.000 O
ATOM     54   S  SUS B   3      34.410  20.962  15.3060  0.00  0.00     0.000 S
ATOM     55   O  SUS B   3      33.128  20.524  14.7730  0.00  0.00     0.000 OA
ATOM     56   O  SUS B   3      35.291  21.546  14.3100  0.00  0.00     0.000 OA
ATOM     57   O  SUS B   3      35.049  19.901  16.0910  0.00  0.00     0.000 OA
ENDBRANCH 43 53
BRANCH 45 58
ATOM     58   C  SUS B   3      34.456  22.385  21.2940  0.00  0.00     0.000 C
ATOM     59   S  SUS B   3      34.778  24.237  23.0410  0.00  0.00     0.000 S
ATOM     60   O  SUS B   3      33.910  23.570  21.8970  0.00  0.00     0.000 O
ATOM     61   O  SUS B   3      35.832  24.955  22.3490  0.00  0.00     0.000 OA
ATOM     62   O  SUS B   3      33.807  25.114  23.6380  0.00  0.00     0.000 OA
ATOM     63   O  SUS B   3      35.213  23.163  23.8630  0.00  0.00     0.000 OA
ENDBRANCH 45 58
BRANCH 41 64
ATOM     64  O4  IDS B   4      30.868  21.113  19.2030  0.00  0.00     0.000 O
BRANCH 64 68
ATOM     65  C1  IDS B   4      28.183  18.687  19.6380  0.00  0.00     0.000 C
ATOM     66  C2  IDS B   4      28.070  19.781  18.5680  0.00  0.00     0.000 C
ATOM     67  C3  IDS B   4      28.438  21.173  19.0530  0.00  0.00     0.000 C
ATOM     68  C4  IDS B   4      29.646  21.178  19.9710  0.00  0.00     0.000 C
ATOM     69  C5  IDS B   4      29.490  20.025  20.9710  0.00  0.00     0.000 C
ATOM     70  O5  IDS B   4      29.452  18.786  20.2590  0.00  0.00     0.000 O
ATOM     71   O  IDS B   4      27.315  21.689  19.7370  0.00  0.00     0.000 O
ATOM     73  HD  IDS B   4      27.732  21.153  19.1990  0.00  0.00     0.000 HD
BRANCH 66 73
ATOM     73   O  IDS B   4      29.016  19.482  17.4840  0.00  0.00     0.000 O
ATOM     74   S  IDS B   4      28.591  18.365  16.3940  0.00  0.00     0.000 S
ATOM     75   O  IDS B   4      28.305  17.156  17.1370  0.00  0.00     0.000 OA
ATOM     76   O  IDS B   4      29.774  18.284  15.5750  0.00  0.00     0.000 OA
ATOM     77   O  IDS B   4      27.436  18.906  15.7170  0.00  0.00     0.000 OA
ENDBRANCH 66 73
BRANCH 69 78
ATOM     78   C  IDS B   4      30.511  20.028  22.1000  0.00  0.00     0.000 C
ATOM     79   O  IDS B   4      30.896  21.109  22.5460  0.00  0.00     0.000 OA
ATOM     80   O  IDS B   4      30.842  18.941  22.6070  0.00  0.00     0.000 OA
ENDBRANCH 69 78
BRANCH 65 81
ATOM     81  O4  SGN B   5      27.095  18.739  20.4550  0.00  0.00     0.000 O
BRANCH 81 85
ATOM     82  C1  SGN B   5      24.560  16.419  22.8700  0.00  0.00     0.000 C
ATOM     83  C2  SGN B   5      25.998  16.630  23.3680  0.00  0.00     0.000 C
ATOM     84  C3  SGN B   5      26.618  17.836  22.6490  0.00  0.00     0.000 C
ATOM     85  C4  SGN B   5      26.532  17.622  21.1480  0.00  0.00     0.000 C
ATOM     86  C5  SGN B   5      25.062  17.450  20.7720  0.00  0.00     0.000 C
ATOM     87  O5  SGN B   5      24.542  16.296  21.4600  0.00  0.00     0.000 O
ATOM     88   O  SGN B   5      27.958  18.001  23.0590  0.00  0.00     0.000 O
ATOM     90  HD  SGN B   5      27.286  18.470  23.3390  0.00  0.00     0.000 HD
BRANCH 83 92
ATOM     90   N  SGN B   5      25.720  15.460  24.2240  0.00  0.00     0.000 N
ATOM     92  HD  SGN B   5      25.815  14.722  23.7820  0.00  0.00     0.000 HD
ATOM     92   S  SGN B   5      26.332  15.448  25.7000  0.00  0.00     0.000 S
ATOM     93   O  SGN B   5      25.895  14.202  26.2550  0.00  0.00     0.000 OA
ATOM     94   O  SGN B   5      27.722  15.710  25.5440  0.00  0.00     0.000 OA
ATOM     95   O  SGN B   5      25.719  16.652  26.3810  0.00  0.00     0.000 OA
ENDBRANCH 83 92
BRANCH 86 96
ATOM     96   C  SGN B   5      24.821  17.239  19.2920  0.00  0.00     0.000 C
ATOM     97   O  SGN B   5      23.649  17.941  18.8690  0.00  0.00     0.000 O
ATOM     98   S  SGN B   5      23.816  18.883  17.5830  0.00  0.00     0.000 S
ATOM     99   O  SGN B   5      22.456  19.273  17.2950  0.00  0.00     0.000 OA
ATOM    100   O  SGN B   5      24.675  19.953  17.9460  0.00  0.00     0.000 OA
ATOM    101   O  SGN B   5      24.381  18.030  16.5890  0.00  0.00     0.000 OA
ENDBRANCH 86 96
BRANCH 82 102
ATOM    102  O4  IDS B   6      23.715  17.411  23.2700  0.00  0.00     0.000 O
BRANCH 102 106
ATOM    103  C1  IDS B   6      21.024  18.799  25.2930  0.00  0.00     0.000 C
ATOM    104  C2  IDS B   6      22.086  17.881  25.9200  0.00  0.00     0.000 C
ATOM    105  C3  IDS B   6      22.378  16.612  25.1430  0.00  0.00     0.000 C
ATOM    106  C4  IDS B   6      22.434  16.843  23.6430  0.00  0.00     0.000 C
ATOM    107  C5  IDS B   6      21.286  17.763  23.2180  0.00  0.00     0.000 C
ATOM    108  O5  IDS B   6      21.311  19.006  23.9220  0.00  0.00     0.000 O
ATOM    109   O  IDS B   6      21.383  15.656  25.4690  0.00  0.00     0.000 O
ATOM    111  HD  IDS B   6      20.717  16.134  25.7450  0.00  0.00     0.000 HD
BRANCH 104 111
ATOM    111   O  IDS B   6      23.366  18.602  25.9820  0.00  0.00     0.000 O
ATOM    112   S  IDS B   6      23.722  19.389  27.3310  0.00  0.00     0.000 S
ATOM    113   O  IDS B   6      22.632  20.337  27.5000  0.00  0.00     0.000 OA
ATOM    114   O  IDS B   6      23.859  18.411  28.4160  0.00  0.00     0.000 OA
ATOM    115   O  IDS B   6      24.971  19.996  26.9240  0.00  0.00     0.000 OA
ENDBRANCH 104 111
BRANCH 107 116
ATOM    116   C  IDS B   6      21.372  18.017  21.7190  0.00  0.00     0.000 C
ATOM    117   O  IDS B   6      21.296  17.053  21.0000  0.00  0.00     0.000 OA
ATOM    118   O  IDS B   6      21.520  19.144  21.2730  0.00  0.00     0.000 OA
ENDBRANCH 107 116
BRANCH 103 119
ATOM    119  O4  SGN B   7      19.849  18.251  25.6940  0.00  0.00     0.000 O
BRANCH 119 123
ATOM    120  C1  SGN B   7      16.105  19.669  26.9030  0.00  0.00     0.000 C
ATOM    121  C2  SGN B   7      16.383  19.590  25.3900  0.00  0.00     0.000 C
ATOM    122  C3  SGN B   7      17.598  18.696  25.1120  0.00  0.00     0.000 C
ATOM    123  C4  SGN B   7      18.785  19.174  25.9320  0.00  0.00     0.000 C
ATOM    124  C5  SGN B   7      18.405  19.224  27.4210  0.00  0.00     0.000 C
ATOM    125  O5  SGN B   7      17.258  20.077  27.6360  0.00  0.00     0.000 O
ATOM    126   O  SGN B   7      17.887  18.724  23.7100  0.00  0.00     0.000 O
ATOM    128  HD  SGN B   7      17.344  18.926  24.3530  0.00  0.00     0.000 HD
BRANCH 121 130
ATOM    128   N  SGN B   7      14.932  19.481  25.2160  0.00  0.00     0.000 N
ATOM    130  HD  SGN B   7      14.841  20.324  25.3920  0.00  0.00     0.000 HD
ATOM    130   S  SGN B   7      14.173  20.085  23.9310  0.00  0.00     0.000 S
ATOM    131   O  SGN B   7      14.892  19.589  22.8070  0.00  0.00     0.000 OA
ATOM    132   O  SGN B   7      12.786  19.822  24.0680  0.00  0.00     0.000 OA
ATOM    133   O  SGN B   7      14.315  21.618  24.2150  0.00  0.00     0.000 OA
ENDBRANCH 121 130
BRANCH 124 134
ATOM    134   C  SGN B   7      19.477  19.795  28.3020  0.00  0.00     0.000 C
ATOM    135   O  SGN B   7      18.854  20.396  29.4510  0.00  0.00     0.000 O
ATOM    136   S  SGN B   7      19.818  20.918  30.5760  0.00  0.00     0.000 S
ATOM    137   O  SGN B   7      18.981  21.563  31.5590  0.00  0.00     0.000 OA
ATOM    138   O  SGN B   7      20.715  21.835  29.9100  0.00  0.00     0.000 OA
ATOM    139   O  SGN B   7      20.446  19.693  31.0440  0.00  0.00     0.000 OA
ENDBRANCH 124 134
BRANCH 120 140
ATOM    140  O4  IDS B   8      15.676  18.695  27.7130  0.00  0.00     0.000 O
BRANCH 140 144
ATOM    141  C1  IDS B   8      12.708  17.892  29.5860  0.00  0.00     0.000 C
ATOM    142  C2  IDS B   8      13.177  19.366  29.4230  0.00  0.00     0.000 C
ATOM    143  C3  IDS B   8      14.672  19.562  29.7350  0.00  0.00     0.000 C
ATOM    144  C4  IDS B   8      15.535  18.461  29.1200  0.00  0.00     0.000 C
ATOM    145  C5  IDS B   8      14.894  17.087  29.3650  0.00  0.00     0.000 C
ATOM    146  O5  IDS B   8      13.565  17.026  28.8520  0.00  0.00     0.000 O
BRANCH 142 147
ATOM    147   O  IDS B   8      12.960  19.803  28.0190  0.00  0.00     0.000 O
ATOM    148   S  IDS B   8      12.306  21.250  27.6860  0.00  0.00     0.000 S
ATOM    149   O  IDS B   8      11.682  21.738  28.8940  0.00  0.00     0.000 OA
ATOM    150   O  IDS B   8      13.411  22.083  27.2490  0.00  0.00     0.000 OA
ATOM    151   O  IDS B   8      11.335  20.998  26.6380  0.00  0.00     0.000 OA
ENDBRANCH 142 147
BRANCH 145 152
ATOM    152   C  IDS B   8      15.653  15.961  28.6910  0.00  0.00     0.000 C
ATOM    153   O  IDS B   8      15.132  15.352  27.7640  0.00  0.00     0.000 OA
ATOM    154   O  IDS B   8      16.779  15.687  29.0650  0.00  0.00     0.000 OA
ENDBRANCH 145 152
ENDBRANCH 140 144
ENDBRANCH 120 140
ENDBRANCH 119 123
ENDBRANCH 103 119
ENDBRANCH 102 106
ENDBRANCH 82 102
ENDBRANCH 81 85
ENDBRANCH 65 81
ENDBRANCH 64 68
ENDBRANCH 41 64
ENDBRANCH 40 44
ENDBRANCH 24 40
ENDBRANCH 23 27
ENDBRANCH 1 23
TORSDOF 31
ENDMDL
MODEL 25
REMARK VINA RESULT:      -5.1      4.334      9.734
ROOT
ATOM      1  C1  SGN B   1      26.302  19.337  17.0030  0.00  0.00     0.000 C
ATOM      2  C2  SGN B   1      27.312  18.255  16.5880  0.00  0.00     0.000 C
ATOM      3  C3  SGN B   1      28.252  17.915  17.7500  0.00  0.00     0.000 C
ATOM      4  C4  SGN B   1      28.943  19.178  18.2540  0.00  0.00     0.000 C
ATOM      5  C5  SGN B   1      27.890  20.254  18.5120  0.00  0.00     0.000 C
ATOM      6  O5  SGN B   1      27.112  20.461  17.3180  0.00  0.00     0.000 O
ATOM      7   O  SGN B   1      29.213  16.946  17.3480  0.00  0.00     0.000 O
ATOM      9  HD  SGN B   1      29.389  17.602  16.8100  0.00  0.00     0.000 HD
ATOM      9   O  SGN B   1      29.644  18.885  19.4490  0.00  0.00     0.000 O
ATOM     11  HD  SGN B   1      29.820  19.540  18.9110  0.00  0.00     0.000 HD
ENDROOT
BRANCH 2 13
ATOM     11   N  SGN B   1      26.873  18.051  15.1940  0.00  0.00     0.000 N
ATOM     13  HD  SGN B   1      26.322  17.928  15.8520  0.00  0.00     0.000 HD
ATOM     13   S  SGN B   1      25.702  17.018  14.8050  0.00  0.00     0.000 S
ATOM     14   O  SGN B   1      25.171  16.424  15.9690  0.00  0.00     0.000 OA
ATOM     15   O  SGN B   1      24.825  17.659  13.8830  0.00  0.00     0.000 OA
ATOM     16   O  SGN B   1      26.562  16.002  13.9910  0.00  0.00     0.000 OA
ENDBRANCH 2 13
BRANCH 5 17
ATOM     17   C  SGN B   1      28.464  21.590  18.9120  0.00  0.00     0.000 C
ATOM     18   O  SGN B   1      27.969  21.997  20.2030  0.00  0.00     0.000 O
ATOM     19   S  SGN B   1      27.488  23.518  20.3230  0.00  0.00     0.000 S
ATOM     20   O  SGN B   1      27.269  23.732  21.7380  0.00  0.00     0.000 OA
ATOM     21   O  SGN B   1      28.592  24.279  19.7870  0.00  0.00     0.000 OA
ATOM     22   O  SGN B   1      26.280  23.596  19.5310  0.00  0.00     0.000 OA
ENDBRANCH 5 17
BRANCH 1 23
ATOM     23  O4  IDS B   2      25.062  19.463  17.5570  0.00  0.00     0.000 O
BRANCH 23 27
ATOM     24  C1  IDS B   2      22.351  18.510  20.5520  0.00  0.00     0.000 C
ATOM     25  C2  IDS B   2      23.420  17.436  20.2540  0.00  0.00     0.000 C
ATOM     26  C3  IDS B   2      24.526  17.999  19.3650  0.00  0.00     0.000 C
ATOM     27  C4  IDS B   2      24.011  18.620  18.0740  0.00  0.00     0.000 C
ATOM     28  C5  IDS B   2      22.678  19.349  18.3350  0.00  0.00     0.000 C
ATOM     29  O5  IDS B   2      22.530  19.658  19.7120  0.00  0.00     0.000 O
ATOM     30   O  IDS B   2      25.421  16.951  19.0110  0.00  0.00     0.000 O
ATOM     32  HD  IDS B   2      25.123  16.448  18.3720  0.00  0.00     0.000 HD
BRANCH 25 32
ATOM     32   O  IDS B   2      24.057  16.919  21.4900  0.00  0.00     0.000 O
ATOM     33   S  IDS B   2      23.942  15.334  21.9320  0.00  0.00     0.000 S
ATOM     34   O  IDS B   2      24.481  15.249  23.2800  0.00  0.00     0.000 OA
ATOM     35   O  IDS B   2      22.547  14.919  21.8910  0.00  0.00     0.000 OA
ATOM     36   O  IDS B   2      24.761  14.606  20.9910  0.00  0.00     0.000 OA
ENDBRANCH 25 32
BRANCH 28 37
ATOM     37   C  IDS B   2      22.382  20.624  17.5170  0.00  0.00     0.000 C
ATOM     38   O  IDS B   2      21.734  20.400  16.5220  0.00  0.00     0.000 OA
ATOM     39   O  IDS B   2      22.686  21.803  17.8200  0.00  0.00     0.000 OA
ENDBRANCH 28 37
BRANCH 24 40
ATOM     40  O4  SUS B   3      21.254  18.187  21.2680  0.00  0.00     0.000 O
BRANCH 40 44
ATOM     41  C1  SUS B   3      18.992  20.481  23.9450  0.00  0.00     0.000 C
ATOM     42  C2  SUS B   3      18.811  20.770  22.4420  0.00  0.00     0.000 C
ATOM     43  C3  SUS B   3      19.307  19.571  21.6360  0.00  0.00     0.000 C
ATOM     44  C4  SUS B   3      20.742  19.269  22.0380  0.00  0.00     0.000 C
ATOM     45  C5  SUS B   3      20.773  18.912  23.5110  0.00  0.00     0.000 C
ATOM     46  O5  SUS B   3      20.323  20.059  24.2610  0.00  0.00     0.000 O
BRANCH 42 49
ATOM     47   N  SUS B   3      18.426  21.724  21.3880  0.00  0.00     0.000 N
ATOM     49  HD  SUS B   3      19.062  22.204  21.0500  0.00  0.00     0.000 HD
ATOM     49   S  SUS B   3      17.249  22.709  21.8470  0.00  0.00     0.000 S
ATOM     50   O  SUS B   3      17.636  23.413  23.0050  0.00  0.00     0.000 OA
ATOM     51   O  SUS B   3      17.295  23.635  20.6040  0.00  0.00     0.000 OA
ATOM     52   O  SUS B   3      16.034  21.996  21.8920  0.00  0.00     0.000 OA
ENDBRANCH 42 49
BRANCH 43 53
ATOM     53   O  SUS B   3      19.253  19.931  20.2060  0.00  0.00     0.000 O
ATOM     54   S  SUS B   3      18.222  19.073  19.2550  0.00  0.00     0.000 S
ATOM     55   O  SUS B   3      16.867  19.468  19.6150  0.00  0.00     0.000 OA
ATOM     56   O  SUS B   3      18.600  19.442  17.9030  0.00  0.00     0.000 OA
ATOM     57   O  SUS B   3      18.460  17.659  19.5570  0.00  0.00     0.000 OA
ENDBRANCH 43 53
BRANCH 45 58
ATOM     58   C  SUS B   3      22.156  18.500  23.9650  0.00  0.00     0.000 C
ATOM     59   S  SUS B   3      24.410  19.453  24.7400  0.00  0.00     0.000 S
ATOM     60   O  SUS B   3      22.871  19.658  24.4280  0.00  0.00     0.000 O
ATOM     61   O  SUS B   3      25.062  19.447  23.4440  0.00  0.00     0.000 OA
ATOM     62   O  SUS B   3      24.690  20.642  25.4990  0.00  0.00     0.000 OA
ATOM     63   O  SUS B   3      24.491  18.235  25.4670  0.00  0.00     0.000 OA
ENDBRANCH 45 58
BRANCH 41 64
ATOM     64  O4  IDS B   4      18.009  19.683  24.4780  0.00  0.00     0.000 O
BRANCH 64 68
ATOM     65  C1  IDS B   4      15.910  18.069  26.9810  0.00  0.00     0.000 C
ATOM     66  C2  IDS B   4      15.295  19.049  25.9730  0.00  0.00     0.000 C
ATOM     67  C3  IDS B   4      16.074  20.343  25.8010  0.00  0.00     0.000 C
ATOM     68  C4  IDS B   4      17.576  20.129  25.7820  0.00  0.00     0.000 C
ATOM     69  C5  IDS B   4      17.933  19.153  26.9110  0.00  0.00     0.000 C
ATOM     70  O5  IDS B   4      17.282  17.902  26.6750  0.00  0.00     0.000 O
ATOM     71   O  IDS B   4      15.725  21.189  26.8770  0.00  0.00     0.000 O
ATOM     73  HD  IDS B   4      15.627  20.516  26.3400  0.00  0.00     0.000 HD
BRANCH 66 73
ATOM     73   O  IDS B   4      15.285  18.419  24.6460  0.00  0.00     0.000 O
ATOM     74   S  IDS B   4      13.852  18.039  23.9980  0.00  0.00     0.000 S
ATOM     75   O  IDS B   4      13.187  17.176  24.9510  0.00  0.00     0.000 OA
ATOM     76   O  IDS B   4      14.245  17.376  22.7800  0.00  0.00     0.000 OA
ATOM     77   O  IDS B   4      13.174  19.298  23.7970  0.00  0.00     0.000 OA
ENDBRANCH 66 73
BRANCH 69 78
ATOM     78   C  IDS B   4      19.427  19.004  27.1660  0.00  0.00     0.000 C
ATOM     79   O  IDS B   4      19.936  19.645  28.0840  0.00  0.00     0.000 OA
ATOM     80   O  IDS B   4      20.063  18.162  26.5060  0.00  0.00     0.000 OA
ENDBRANCH 69 78
BRANCH 65 81
ATOM     81  O4  SGN B   5      15.607  18.472  28.2460  0.00  0.00     0.000 O
BRANCH 81 85
ATOM     82  C1  SGN B   5      14.758  17.051  32.1060  0.00  0.00     0.000 C
ATOM     83  C2  SGN B   5      16.239  17.236  31.7400  0.00  0.00     0.000 C
ATOM     84  C3  SGN B   5      16.355  18.169  30.5280  0.00  0.00     0.000 C
ATOM     85  C4  SGN B   5      15.523  17.613  29.3860  0.00  0.00     0.000 C
ATOM     86  C5  SGN B   5      14.076  17.498  29.8590  0.00  0.00     0.000 C
ATOM     87  O5  SGN B   5      14.028  16.597  30.9820  0.00  0.00     0.000 O
ATOM     88   O  SGN B   5      17.709  18.298  30.1500  0.00  0.00     0.000 O
ATOM     90  HD  SGN B   5      17.255  18.883  30.6000  0.00  0.00     0.000 HD
BRANCH 83 92
ATOM     90   N  SGN B   5      16.317  16.821  33.1550  0.00  0.00     0.000 N
ATOM     92  HD  SGN B   5      15.748  16.191  33.3260  0.00  0.00     0.000 HD
ATOM     92   S  SGN B   5      17.766  16.618  33.7990  0.00  0.00     0.000 S
ATOM     93   O  SGN B   5      17.501  16.219  35.1490  0.00  0.00     0.000 OA
ATOM     94   O  SGN B   5      18.460  15.742  32.9200  0.00  0.00     0.000 OA
ATOM     95   O  SGN B   5      18.425  17.976  33.6970  0.00  0.00     0.000 OA
ENDBRANCH 83 92
BRANCH 86 96
ATOM     96   C  SGN B   5      13.121  16.964  28.8110  0.00  0.00     0.000 C
ATOM     97   O  SGN B   5      13.399  15.589  28.5330  0.00  0.00     0.000 O
ATOM     98   S  SGN B   5      12.146  14.589  28.5940  0.00  0.00     0.000 S
ATOM     99   O  SGN B   5      12.696  13.359  28.0790  0.00  0.00     0.000 OA
ATOM    100   O  SGN B   5      11.717  14.527  29.9450  0.00  0.00     0.000 OA
ATOM    101   O  SGN B   5      11.178  15.181  27.7300  0.00  0.00     0.000 OA
ENDBRANCH 86 96
BRANCH 82 102
ATOM    102  O4  IDS B   6      14.197  18.186  32.6100  0.00  0.00     0.000 O
BRANCH 102 106
ATOM    103  C1  IDS B   6      12.397  19.724  35.3770  0.00  0.00     0.000 C
ATOM    104  C2  IDS B   6      13.244  18.460  35.5950  0.00  0.00     0.000 C
ATOM    105  C3  IDS B   6      13.027  17.357  34.5780  0.00  0.00     0.000 C
ATOM    106  C4  IDS B   6      12.890  17.885  33.1610  0.00  0.00     0.000 C
ATOM    107  C5  IDS B   6      11.996  19.129  33.1560  0.00  0.00     0.000 C
ATOM    108  O5  IDS B   6      12.493  20.144  34.0290  0.00  0.00     0.000 O
ATOM    109   O  IDS B   6      11.871  16.627  34.9580  0.00  0.00     0.000 O
ATOM    111  HD  IDS B   6      11.425  17.184  35.4480  0.00  0.00     0.000 HD
BRANCH 104 111
ATOM    111   O  IDS B   6      14.668  18.813  35.4880  0.00  0.00     0.000 O
ATOM    112   S  IDS B   6      15.533  18.870  36.8340  0.00  0.00     0.000 S
ATOM    113   O  IDS B   6      14.858  19.858  37.6610  0.00  0.00     0.000 OA
ATOM    114   O  IDS B   6      15.586  17.521  37.4100  0.00  0.00     0.000 OA
ATOM    115   O  IDS B   6      16.791  19.326  36.2840  0.00  0.00     0.000 OA
ENDBRANCH 104 111
BRANCH 107 116
ATOM    116   C  IDS B   6      11.895  19.671  31.7370  0.00  0.00     0.000 C
ATOM    117   O  IDS B   6      11.172  19.075  30.9790  0.00  0.00     0.000 OA
ATOM    118   O  IDS B   6      12.525  20.657  31.3870  0.00  0.00     0.000 OA
ENDBRANCH 107 116
BRANCH 103 119
ATOM    119  O4  SGN B   7      11.200  19.409  35.9350  0.00  0.00     0.000 O
BRANCH 119 123
ATOM    120  C1  SGN B   7       8.224  21.419  38.0780  0.00  0.00     0.000 C
ATOM    121  C2  SGN B   7       8.317  21.687  36.5640  0.00  0.00     0.000 C
ATOM    122  C3  SGN B   7       9.158  20.603  35.8770  0.00  0.00     0.000 C
ATOM    123  C4  SGN B   7      10.508  20.487  36.5650  0.00  0.00     0.000 C
ATOM    124  C5  SGN B   7      10.308  20.228  38.0670  0.00  0.00     0.000 C
ATOM    125  O5  SGN B   7       9.513  21.272  38.6730  0.00  0.00     0.000 O
ATOM    126   O  SGN B   7       9.305  20.936  34.4920  0.00  0.00     0.000 O
ATOM    128  HD  SGN B   7       8.917  21.096  35.2490  0.00  0.00     0.000 HD
BRANCH 121 130
ATOM    128   N  SGN B   7       7.455  22.864  36.6920  0.00  0.00     0.000 N
ATOM    130  HD  SGN B   7       7.834  23.226  36.0030  0.00  0.00     0.000 HD
ATOM    130   S  SGN B   7       6.245  23.159  35.6710  0.00  0.00     0.000 S
ATOM    131   O  SGN B   7       5.502  21.946  35.6160  0.00  0.00     0.000 OA
ATOM    132   O  SGN B   7       5.616  24.368  36.0620  0.00  0.00     0.000 OA
ATOM    133   O  SGN B   7       7.051  23.531  34.3810  0.00  0.00     0.000 OA
ENDBRANCH 121 130
BRANCH 124 134
ATOM    134   C  SGN B   7      11.584  20.212  38.8560  0.00  0.00     0.000 C
ATOM    135   O  SGN B   7      11.338  20.817  40.1370  0.00  0.00     0.000 O
ATOM    136   S  SGN B   7      12.515  20.760  41.1760  0.00  0.00     0.000 S
ATOM    137   O  SGN B   7      12.077  21.511  42.3280  0.00  0.00     0.000 OA
ATOM    138   O  SGN B   7      13.642  21.365  40.5030  0.00  0.00     0.000 OA
ATOM    139   O  SGN B   7      12.652  19.332  41.4160  0.00  0.00     0.000 OA
ENDBRANCH 124 134
BRANCH 120 140
ATOM    140  O4  IDS B   8       7.592  20.417  38.6990  0.00  0.00     0.000 O
BRANCH 140 144
ATOM    141  C1  IDS B   8       6.462  17.060  39.3430  0.00  0.00     0.000 C
ATOM    142  C2  IDS B   8       6.579  17.600  37.8890  0.00  0.00     0.000 C
ATOM    143  C3  IDS B   8       5.922  18.980  37.7020  0.00  0.00     0.000 C
ATOM    144  C4  IDS B   8       6.252  19.931  38.8500  0.00  0.00     0.000 C
ATOM    145  C5  IDS B   8       6.101  19.208  40.1970  0.00  0.00     0.000 C
ATOM    146  O5  IDS B   8       6.919  18.043  40.2640  0.00  0.00     0.000 O
BRANCH 142 147
ATOM    147   O  IDS B   8       8.014  17.743  37.5280  0.00  0.00     0.000 O
ATOM    148   S  IDS B   8       8.779  16.600  36.6680  0.00  0.00     0.000 S
ATOM    149   O  IDS B   8       7.971  15.402  36.7150  0.00  0.00     0.000 OA
ATOM    150   O  IDS B   8       8.901  17.142  35.3270  0.00  0.00     0.000 OA
ATOM    151   O  IDS B   8      10.058  16.417  37.3270  0.00  0.00     0.000 OA
ENDBRANCH 142 147
BRANCH 145 152
ATOM    152   C  IDS B   8       6.511  20.073  41.3720  0.00  0.00     0.000 C
ATOM    153   O  IDS B   8       7.495  19.764  42.0360  0.00  0.00     0.000 OA
ATOM    154   O  IDS B   8       5.871  21.076  41.6330  0.00  0.00     0.000 OA
ENDBRANCH 145 152
ENDBRANCH 140 144
ENDBRANCH 120 140
ENDBRANCH 119 123
ENDBRANCH 103 119
ENDBRANCH 102 106
ENDBRANCH 82 102
ENDBRANCH 81 85
ENDBRANCH 65 81
ENDBRANCH 64 68
ENDBRANCH 41 64
ENDBRANCH 40 44
ENDBRANCH 24 40
ENDBRANCH 23 27
ENDBRANCH 1 23
TORSDOF 31
ENDMDL
MODEL 26
REMARK VINA RESULT:      -5.0      4.615      9.903
ROOT
ATOM      1  C1  SGN B   1      25.790  19.416  16.4400  0.00  0.00     0.000 C
ATOM      2  C2  SGN B   1      26.246  18.547  15.2560  0.00  0.00     0.000 C
ATOM      3  C3  SGN B   1      27.179  17.428  15.7310  0.00  0.00     0.000 C
ATOM      4  C4  SGN B   1      28.360  18.017  16.4950  0.00  0.00     0.000 C
ATOM      5  C5  SGN B   1      27.837  18.977  17.5610  0.00  0.00     0.000 C
ATOM      6  O5  SGN B   1      26.997  19.971  16.9440  0.00  0.00     0.000 O
ATOM      7   O  SGN B   1      27.634  16.654  14.6280  0.00  0.00     0.000 O
ATOM      9  HD  SGN B   1      27.943  17.439  14.4320  0.00  0.00     0.000 HD
ATOM      9   O  SGN B   1      29.098  16.971  17.1000  0.00  0.00     0.000 O
ATOM     11  HD  SGN B   1      29.407  17.755  16.9040  0.00  0.00     0.000 HD
ENDROOT
BRANCH 2 13
ATOM     11   N  SGN B   1      25.569  19.149  14.0910  0.00  0.00     0.000 N
ATOM     13  HD  SGN B   1      25.123  18.954  14.8070  0.00  0.00     0.000 HD
ATOM     13   S  SGN B   1      24.015  18.884  13.7690  0.00  0.00     0.000 S
ATOM     14   O  SGN B   1      23.444  18.070  14.7690  0.00  0.00     0.000 OA
ATOM     15   O  SGN B   1      23.404  20.129  13.4460  0.00  0.00     0.000 OA
ATOM     16   O  SGN B   1      24.195  18.099  12.4320  0.00  0.00     0.000 OA
ENDBRANCH 2 13
BRANCH 5 17
ATOM     17   C  SGN B   1      28.921  19.708  18.3140  0.00  0.00     0.000 C
ATOM     18   O  SGN B   1      28.355  20.579  19.3140  0.00  0.00     0.000 O
ATOM     19   S  SGN B   1      28.973  22.052  19.3910  0.00  0.00     0.000 S
ATOM     20   O  SGN B   1      28.417  22.629  20.5970  0.00  0.00     0.000 OA
ATOM     21   O  SGN B   1      30.399  21.833  19.4590  0.00  0.00     0.000 OA
ATOM     22   O  SGN B   1      28.535  22.709  18.1790  0.00  0.00     0.000 OA
ENDBRANCH 5 17
BRANCH 1 23
ATOM     23  O4  IDS B   2      24.797  19.490  17.3720  0.00  0.00     0.000 O
BRANCH 23 27
ATOM     24  C1  IDS B   2      22.257  18.556  20.5200  0.00  0.00     0.000 C
ATOM     25  C2  IDS B   2      23.341  17.502  20.2020  0.00  0.00     0.000 C
ATOM     26  C3  IDS B   2      24.388  18.067  19.2460  0.00  0.00     0.000 C
ATOM     27  C4  IDS B   2      23.796  18.635  17.9630  0.00  0.00     0.000 C
ATOM     28  C5  IDS B   2      22.457  19.336  18.2660  0.00  0.00     0.000 C
ATOM     29  O5  IDS B   2      22.365  19.683  19.6390  0.00  0.00     0.000 O
ATOM     30   O  IDS B   2      25.294  17.033  18.8800  0.00  0.00     0.000 O
ATOM     32  HD  IDS B   2      24.981  16.504  18.2710  0.00  0.00     0.000 HD
BRANCH 25 32
ATOM     32   O  IDS B   2      24.049  17.040  21.4210  0.00  0.00     0.000 O
ATOM     33   S  IDS B   2      24.008  15.465  21.9090  0.00  0.00     0.000 S
ATOM     34   O  IDS B   2      24.609  15.435  23.2320  0.00  0.00     0.000 OA
ATOM     35   O  IDS B   2      22.627  15.004  21.9410  0.00  0.00     0.000 OA
ATOM     36   O  IDS B   2      24.808  14.738  20.9500  0.00  0.00     0.000 OA
ENDBRANCH 25 32
BRANCH 28 37
ATOM     37   C  IDS B   2      22.087  20.577  17.4270  0.00  0.00     0.000 C
ATOM     38   O  IDS B   2      22.172  21.607  18.0530  0.00  0.00     0.000 OA
ATOM     39   O  IDS B   2      21.790  20.603  16.2070  0.00  0.00     0.000 OA
ENDBRANCH 28 37
BRANCH 24 40
ATOM     40  O4  SUS B   3      21.205  18.226  21.2960  0.00  0.00     0.000 O
BRANCH 40 44
ATOM     41  C1  SUS B   3      18.910  20.571  23.9000  0.00  0.00     0.000 C
ATOM     42  C2  SUS B   3      18.752  20.835  22.3890  0.00  0.00     0.000 C
ATOM     43  C3  SUS B   3      19.257  19.622  21.6110  0.00  0.00     0.000 C
ATOM     44  C4  SUS B   3      20.685  19.322  22.0400  0.00  0.00     0.000 C
ATOM     45  C5  SUS B   3      20.693  18.991  23.5190  0.00  0.00     0.000 C
ATOM     46  O5  SUS B   3      20.236  20.151  24.2420  0.00  0.00     0.000 O
BRANCH 42 49
ATOM     47   N  SUS B   3      17.363  21.209  22.0710  0.00  0.00     0.000 N
ATOM     49  HD  SUS B   3      16.976  20.759  21.4410  0.00  0.00     0.000 HD
ATOM     49   S  SUS B   3      17.205  22.768  21.7380  0.00  0.00     0.000 S
ATOM     50   O  SUS B   3      18.048  23.118  20.6640  0.00  0.00     0.000 OA
ATOM     51   O  SUS B   3      15.727  22.703  21.2750  0.00  0.00     0.000 OA
ATOM     52   O  SUS B   3      17.321  23.514  22.9280  0.00  0.00     0.000 OA
ENDBRANCH 42 49
BRANCH 43 53
ATOM     53   O  SUS B   3      19.225  19.957  20.1750  0.00  0.00     0.000 O
ATOM     54   S  SUS B   3      18.207  19.085  19.2240  0.00  0.00     0.000 S
ATOM     55   O  SUS B   3      16.847  19.487  19.5560  0.00  0.00     0.000 OA
ATOM     56   O  SUS B   3      18.607  19.430  17.8710  0.00  0.00     0.000 OA
ATOM     57   O  SUS B   3      18.439  17.675  19.5530  0.00  0.00     0.000 OA
ENDBRANCH 43 53
BRANCH 45 58
ATOM     58   C  SUS B   3      22.068  18.583  24.0000  0.00  0.00     0.000 C
ATOM     59   S  SUS B   3      24.086  19.428  25.3430  0.00  0.00     0.000 S
ATOM     60   O  SUS B   3      22.571  19.579  24.9060  0.00  0.00     0.000 O
ATOM     61   O  SUS B   3      24.856  19.921  24.2170  0.00  0.00     0.000 OA
ATOM     62   O  SUS B   3      24.128  20.313  26.4760  0.00  0.00     0.000 OA
ATOM     63   O  SUS B   3      24.259  18.050  25.6410  0.00  0.00     0.000 OA
ENDBRANCH 45 58
BRANCH 41 64
ATOM     64  O4  IDS B   4      17.917  19.786  24.4320  0.00  0.00     0.000 O
BRANCH 64 68
ATOM     65  C1  IDS B   4      15.995  18.085  27.0180  0.00  0.00     0.000 C
ATOM     66  C2  IDS B   4      15.295  19.027  26.0290  0.00  0.00     0.000 C
ATOM     67  C3  IDS B   4      16.001  20.356  25.8220  0.00  0.00     0.000 C
ATOM     68  C4  IDS B   4      17.510  20.218  25.7490  0.00  0.00     0.000 C
ATOM     69  C5  IDS B   4      17.957  19.268  26.8690  0.00  0.00     0.000 C
ATOM     70  O5  IDS B   4      17.362  17.985  26.6630  0.00  0.00     0.000 O
ATOM     71   O  IDS B   4      15.650  21.191  26.9070  0.00  0.00     0.000 O
ATOM     73  HD  IDS B   4      15.566  20.511  26.3770  0.00  0.00     0.000 HD
BRANCH 66 73
ATOM     73   O  IDS B   4      15.268  18.388  24.7060  0.00  0.00     0.000 O
ATOM     74   S  IDS B   4      13.828  17.993  24.0840  0.00  0.00     0.000 S
ATOM     75   O  IDS B   4      13.186  17.131  25.0530  0.00  0.00     0.000 OA
ATOM     76   O  IDS B   4      14.206  17.326  22.8640  0.00  0.00     0.000 OA
ATOM     77   O  IDS B   4      13.137  19.245  23.8860  0.00  0.00     0.000 OA
ENDBRANCH 66 73
BRANCH 69 78
ATOM     78   C  IDS B   4      19.465  19.196  27.0690  0.00  0.00     0.000 C
ATOM     79   O  IDS B   4      20.068  18.204  26.6640  0.00  0.00     0.000 OA
ATOM     80   O  IDS B   4      20.051  20.189  27.5380  0.00  0.00     0.000 OA
ENDBRANCH 69 78
BRANCH 65 81
ATOM     81  O4  SGN B   5      15.719  18.480  28.2920  0.00  0.00     0.000 O
BRANCH 81 85
ATOM     82  C1  SGN B   5      14.800  17.015  32.1190  0.00  0.00     0.000 C
ATOM     83  C2  SGN B   5      16.286  17.211  31.7850  0.00  0.00     0.000 C
ATOM     84  C3  SGN B   5      16.423  18.158  30.5840  0.00  0.00     0.000 C
ATOM     85  C4  SGN B   5      15.616  17.609  29.4200  0.00  0.00     0.000 C
ATOM     86  C5  SGN B   5      14.161  17.482  29.8630  0.00  0.00     0.000 C
ATOM     87  O5  SGN B   5      14.095  16.569  30.9760  0.00  0.00     0.000 O
ATOM     88   O  SGN B   5      17.783  18.298  30.2360  0.00  0.00     0.000 O
ATOM     90  HD  SGN B   5      17.317  18.875  30.6830  0.00  0.00     0.000 HD
BRANCH 83 92
ATOM     90   N  SGN B   5      16.339  16.775  33.1940  0.00  0.00     0.000 N
ATOM     92  HD  SGN B   5      15.774  16.135  33.3420  0.00  0.00     0.000 HD
ATOM     92   S  SGN B   5      17.775  16.580  33.8680  0.00  0.00     0.000 S
ATOM     93   O  SGN B   5      17.485  16.156  35.2040  0.00  0.00     0.000 OA
ATOM     94   O  SGN B   5      18.500  15.727  32.9900  0.00  0.00     0.000 OA
ATOM     95   O  SGN B   5      18.419  17.948  33.8020  0.00  0.00     0.000 OA
ENDBRANCH 83 92
BRANCH 86 96
ATOM     96   C  SGN B   5      13.230  16.954  28.7910  0.00  0.00     0.000 C
ATOM     97   O  SGN B   5      13.492  15.572  28.5350  0.00  0.00     0.000 O
ATOM     98   S  SGN B   5      12.220  14.595  28.5660  0.00  0.00     0.000 S
ATOM     99   O  SGN B   5      12.764  13.349  28.0800  0.00  0.00     0.000 OA
ATOM    100   O  SGN B   5      11.747  14.553  29.9030  0.00  0.00     0.000 OA
ATOM    101   O  SGN B   5      11.290  15.194  27.6650  0.00  0.00     0.000 OA
ENDBRANCH 86 96
BRANCH 82 102
ATOM    102  O4  IDS B   6      14.223  18.142  32.6230  0.00  0.00     0.000 O
BRANCH 102 106
ATOM    103  C1  IDS B   6      12.367  19.632  35.3790  0.00  0.00     0.000 C
ATOM    104  C2  IDS B   6      13.214  18.368  35.5940  0.00  0.00     0.000 C
ATOM    105  C3  IDS B   6      13.020  17.279  34.5560  0.00  0.00     0.000 C
ATOM    106  C4  IDS B   6      12.907  17.828  33.1450  0.00  0.00     0.000 C
ATOM    107  C5  IDS B   6      12.009  19.069  33.1430  0.00  0.00     0.000 C
ATOM    108  O5  IDS B   6      12.486  20.073  34.0400  0.00  0.00     0.000 O
ATOM    109   O  IDS B   6      11.860  16.540  34.9040  0.00  0.00     0.000 O
ATOM    111  HD  IDS B   6      11.403  17.088  35.3950  0.00  0.00     0.000 HD
BRANCH 104 111
ATOM    111   O  IDS B   6      14.638  18.727  35.5180  0.00  0.00     0.000 O
ATOM    112   S  IDS B   6      15.475  18.780  36.8820  0.00  0.00     0.000 S
ATOM    113   O  IDS B   6      14.779  19.760  37.7010  0.00  0.00     0.000 OA
ATOM    114   O  IDS B   6      15.522  17.428  37.4510  0.00  0.00     0.000 OA
ATOM    115   O  IDS B   6      16.743  19.244  36.3600  0.00  0.00     0.000 OA
ENDBRANCH 104 111
BRANCH 107 116
ATOM    116   C  IDS B   6      11.931  19.632  31.7300  0.00  0.00     0.000 C
ATOM    117   O  IDS B   6      12.570  20.630  31.5080  0.00  0.00     0.000 OA
ATOM    118   O  IDS B   6      11.246  19.100  30.8700  0.00  0.00     0.000 OA
ENDBRANCH 107 116
BRANCH 103 119
ATOM    119  O4  SGN B   7      11.161  19.304  35.9100  0.00  0.00     0.000 O
BRANCH 119 123
ATOM    120  C1  SGN B   7       8.119  21.282  37.9900  0.00  0.00     0.000 C
ATOM    121  C2  SGN B   7       8.243  21.553  36.4790  0.00  0.00     0.000 C
ATOM    122  C3  SGN B   7       9.109  20.479  35.8090  0.00  0.00     0.000 C
ATOM    123  C4  SGN B   7      10.445  20.375  36.5270  0.00  0.00     0.000 C
ATOM    124  C5  SGN B   7      10.214  20.111  38.0240  0.00  0.00     0.000 C
ATOM    125  O5  SGN B   7       9.396  21.147  38.6130  0.00  0.00     0.000 O
ATOM    126   O  SGN B   7       9.284  20.816  34.4280  0.00  0.00     0.000 O
ATOM    128  HD  SGN B   7       8.878  20.970  35.1770  0.00  0.00     0.000 HD
BRANCH 121 130
ATOM    128   N  SGN B   7       7.506  22.819  36.4310  0.00  0.00     0.000 N
ATOM    130  HD  SGN B   7       7.799  22.967  35.6300  0.00  0.00     0.000 HD
ATOM    130   S  SGN B   7       6.177  23.007  35.5420  0.00  0.00     0.000 S
ATOM    131   O  SGN B   7       5.342  21.906  35.8840  0.00  0.00     0.000 OA
ATOM    132   O  SGN B   7       5.714  24.337  35.7080  0.00  0.00     0.000 OA
ATOM    133   O  SGN B   7       6.795  22.979  34.1030  0.00  0.00     0.000 OA
ENDBRANCH 121 130
BRANCH 124 134
ATOM    134   C  SGN B   7      11.472  20.106  38.8400  0.00  0.00     0.000 C
ATOM    135   O  SGN B   7      11.229  20.827  40.0600  0.00  0.00     0.000 O
ATOM    136   S  SGN B   7      12.382  20.807  41.1270  0.00  0.00     0.000 S
ATOM    137   O  SGN B   7      11.956  21.671  42.2020  0.00  0.00     0.000 OA
ATOM    138   O  SGN B   7      13.549  21.303  40.4330  0.00  0.00     0.000 OA
ATOM    139   O  SGN B   7      12.449  19.400  41.4890  0.00  0.00     0.000 OA
ENDBRANCH 124 134
BRANCH 120 140
ATOM    140  O4  IDS B   8       7.483  20.274  38.5960  0.00  0.00     0.000 O
BRANCH 140 144
ATOM    141  C1  IDS B   8       4.476  19.463  40.4020  0.00  0.00     0.000 C
ATOM    142  C2  IDS B   8       5.147  20.858  40.5520  0.00  0.00     0.000 C
ATOM    143  C3  IDS B   8       6.662  20.774  40.8150  0.00  0.00     0.000 C
ATOM    144  C4  IDS B   8       7.343  19.741  39.9190  0.00  0.00     0.000 C
ATOM    145  C5  IDS B   8       6.518  18.446  39.8810  0.00  0.00     0.000 C
ATOM    146  O5  IDS B   8       5.182  18.684  39.4440  0.00  0.00     0.000 O
BRANCH 142 147
ATOM    147   O  IDS B   8       4.961  21.634  39.2980  0.00  0.00     0.000 O
ATOM    148   S  IDS B   8       4.678  23.231  39.3380  0.00  0.00     0.000 S
ATOM    149   O  IDS B   8       4.275  23.571  40.6840  0.00  0.00     0.000 OA
ATOM    150   O  IDS B   8       5.929  23.856  38.9520  0.00  0.00     0.000 OA
ATOM    151   O  IDS B   8       3.611  23.454  38.3810  0.00  0.00     0.000 OA
ENDBRANCH 142 147
BRANCH 145 152
ATOM    152   C  IDS B   8       7.091  17.416  38.9290  0.00  0.00     0.000 C
ATOM    153   O  IDS B   8       8.249  17.040  39.0700  0.00  0.00     0.000 OA
ATOM    154   O  IDS B   8       6.390  16.958  38.0450  0.00  0.00     0.000 OA
ENDBRANCH 145 152
ENDBRANCH 140 144
ENDBRANCH 120 140
ENDBRANCH 119 123
ENDBRANCH 103 119
ENDBRANCH 102 106
ENDBRANCH 82 102
ENDBRANCH 81 85
ENDBRANCH 65 81
ENDBRANCH 64 68
ENDBRANCH 41 64
ENDBRANCH 40 44
ENDBRANCH 24 40
ENDBRANCH 23 27
ENDBRANCH 1 23
TORSDOF 31
ENDMDL
MODEL 27
REMARK VINA RESULT:      -5.0     28.338     38.663
ROOT
ATOM      1  C1  SGN B   1      69.720  11.781  17.9450  0.00  0.00     0.000 C
ATOM      2  C2  SGN B   1      70.962  10.886  17.7970  0.00  0.00     0.000 C
ATOM      3  C3  SGN B   1      70.971   9.789  18.8670  0.00  0.00     0.000 C
ATOM      4  C4  SGN B   1      70.876  10.409  20.2580  0.00  0.00     0.000 C
ATOM      5  C5  SGN B   1      69.707  11.391  20.2880  0.00  0.00     0.000 C
ATOM      6  O5  SGN B   1      69.865  12.361  19.2340  0.00  0.00     0.000 O
ATOM      7   O  SGN B   1      72.143   8.991  18.7550  0.00  0.00     0.000 O
ATOM      9  HD  SGN B   1      72.478   9.774  18.9160  0.00  0.00     0.000 HD
ATOM      9   O  SGN B   1      70.680   9.386  21.2170  0.00  0.00     0.000 O
ATOM     11  HD  SGN B   1      71.014  10.169  21.3780  0.00  0.00     0.000 HD
ENDROOT
BRANCH 2 13
ATOM     11   N  SGN B   1      71.606  11.528  16.6350  0.00  0.00     0.000 N
ATOM     13  HD  SGN B   1      70.793  11.234  16.5810  0.00  0.00     0.000 HD
ATOM     13   S  SGN B   1      71.206  11.162  15.1210  0.00  0.00     0.000 S
ATOM     14   O  SGN B   1      70.157  10.219  15.1100  0.00  0.00     0.000 OA
ATOM     15   O  SGN B   1      71.064  12.375  14.3870  0.00  0.00     0.000 OA
ATOM     16   O  SGN B   1      72.556  10.515  14.6830  0.00  0.00     0.000 OA
ENDBRANCH 2 13
BRANCH 5 17
ATOM     17   C  SGN B   1      69.578  12.153  21.5840  0.00  0.00     0.000 C
ATOM     18   O  SGN B   1      70.074  13.499  21.4420  0.00  0.00     0.000 O
ATOM     19   S  SGN B   1      71.019  14.026  22.6190  0.00  0.00     0.000 S
ATOM     20   O  SGN B   1      71.181  15.442  22.3640  0.00  0.00     0.000 OA
ATOM     21   O  SGN B   1      70.277  13.736  23.8230  0.00  0.00     0.000 OA
ATOM     22   O  SGN B   1      72.245  13.269  22.4870  0.00  0.00     0.000 OA
ENDBRANCH 5 17
BRANCH 1 23
ATOM     23  O4  IDS B   2      68.428  11.868  17.5180  0.00  0.00     0.000 O
BRANCH 23 27
ATOM     24  C1  IDS B   2      64.847  12.973  15.7320  0.00  0.00     0.000 C
ATOM     25  C2  IDS B   2      65.555  11.751  15.1070  0.00  0.00     0.000 C
ATOM     26  C3  IDS B   2      66.683  11.254  16.0070  0.00  0.00     0.000 C
ATOM     27  C4  IDS B   2      67.693  12.336  16.3670  0.00  0.00     0.000 C
ATOM     28  C5  IDS B   2      66.972  13.682  16.5740  0.00  0.00     0.000 C
ATOM     29  O5  IDS B   2      65.593  13.483  16.8460  0.00  0.00     0.000 O
ATOM     30   O  IDS B   2      67.388  10.212  15.3420  0.00  0.00     0.000 O
ATOM     32  HD  IDS B   2      67.948  10.503  14.7490  0.00  0.00     0.000 HD
BRANCH 25 32
ATOM     32   O  IDS B   2      64.625  10.616  14.8870  0.00  0.00     0.000 O
ATOM     33   S  IDS B   2      64.364   9.981  13.3860  0.00  0.00     0.000 S
ATOM     34   O  IDS B   2      63.248   9.059  13.5240  0.00  0.00     0.000 OA
ATOM     35   O  IDS B   2      64.055  11.055  12.4530  0.00  0.00     0.000 OA
ATOM     36   O  IDS B   2      65.582   9.284  13.0410  0.00  0.00     0.000 OA
ENDBRANCH 25 32
BRANCH 28 37
ATOM     37   C  IDS B   2      67.540  14.648  17.6350  0.00  0.00     0.000 C
ATOM     38   O  IDS B   2      66.882  14.669  18.6480  0.00  0.00     0.000 OA
ATOM     39   O  IDS B   2      68.598  15.319  17.5560  0.00  0.00     0.000 OA
ENDBRANCH 28 37
BRANCH 24 40
ATOM     40  O4  SUS B   3      63.862  13.600  15.0550  0.00  0.00     0.000 O
BRANCH 40 44
ATOM     41  C1  SUS B   3      60.200  15.100  16.4260  0.00  0.00     0.000 C
ATOM     42  C2  SUS B   3      61.429  16.023  16.5460  0.00  0.00     0.000 C
ATOM     43  C3  SUS B   3      62.519  15.535  15.5950  0.00  0.00     0.000 C
ATOM     44  C4  SUS B   3      62.813  14.072  15.8920  0.00  0.00     0.000 C
ATOM     45  C5  SUS B   3      61.556  13.262  15.6490  0.00  0.00     0.000 C
ATOM     46  O5  SUS B   3      60.542  13.717  16.5680  0.00  0.00     0.000 O
BRANCH 42 49
ATOM     47   N  SUS B   3      60.862  17.373  16.3870  0.00  0.00     0.000 N
ATOM     49  HD  SUS B   3      61.138  17.831  15.7060  0.00  0.00     0.000 HD
ATOM     49   S  SUS B   3      61.039  18.276  17.6980  0.00  0.00     0.000 S
ATOM     50   O  SUS B   3      62.405  18.372  18.0340  0.00  0.00     0.000 OA
ATOM     51   O  SUS B   3      60.535  19.601  17.0730  0.00  0.00     0.000 OA
ATOM     52   O  SUS B   3      60.151  17.828  18.6970  0.00  0.00     0.000 OA
ENDBRANCH 42 49
BRANCH 43 53
ATOM     53   O  SUS B   3      63.728  16.347  15.8340  0.00  0.00     0.000 O
ATOM     54   S  SUS B   3      64.154  17.419  14.6630  0.00  0.00     0.000 S
ATOM     55   O  SUS B   3      63.178  18.499  14.6840  0.00  0.00     0.000 OA
ATOM     56   O  SUS B   3      65.495  17.834  15.0360  0.00  0.00     0.000 OA
ATOM     57   O  SUS B   3      64.109  16.687  13.3940  0.00  0.00     0.000 OA
ENDBRANCH 43 53
BRANCH 45 58
ATOM     58   C  SUS B   3      61.795  11.778  15.8270  0.00  0.00     0.000 C
ATOM     59   S  SUS B   3      61.633   9.886  17.5530  0.00  0.00     0.000 S
ATOM     60   O  SUS B   3      61.278  11.362  17.1020  0.00  0.00     0.000 O
ATOM     61   O  SUS B   3      63.004   9.950  18.0200  0.00  0.00     0.000 OA
ATOM     62   O  SUS B   3      60.689   9.699  18.6230  0.00  0.00     0.000 OA
ATOM     63   O  SUS B   3      61.418   9.077  16.4060  0.00  0.00     0.000 OA
ENDBRANCH 45 58
BRANCH 41 64
ATOM     64  O4  IDS B   4      59.407  15.373  15.3380  0.00  0.00     0.000 O
BRANCH 64 68
ATOM     65  C1  IDS B   4      56.545  15.392  13.0840  0.00  0.00     0.000 C
ATOM     66  C2  IDS B   4      56.856  16.621  13.9470  0.00  0.00     0.000 C
ATOM     67  C3  IDS B   4      57.159  16.306  15.4020  0.00  0.00     0.000 C
ATOM     68  C4  IDS B   4      58.015  15.065  15.5710  0.00  0.00     0.000 C
ATOM     69  C5  IDS B   4      57.467  13.976  14.6390  0.00  0.00     0.000 C
ATOM     70  O5  IDS B   4      57.559  14.425  13.2850  0.00  0.00     0.000 O
ATOM     71   O  IDS B   4      55.921  16.125  16.0590  0.00  0.00     0.000 O
ATOM     73  HD  IDS B   4      56.443  16.393  15.4210  0.00  0.00     0.000 HD
BRANCH 66 73
ATOM     73   O  IDS B   4      58.068  17.270  13.4270  0.00  0.00     0.000 O
ATOM     74   S  IDS B   4      57.917  18.740  12.7680  0.00  0.00     0.000 S
ATOM     75   O  IDS B   4      56.939  18.616  11.7090  0.00  0.00     0.000 OA
ATOM     76   O  IDS B   4      59.257  18.995  12.3030  0.00  0.00     0.000 OA
ATOM     77   O  IDS B   4      57.488  19.602  13.8440  0.00  0.00     0.000 OA
ENDBRANCH 66 73
BRANCH 69 78
ATOM     78   C  IDS B   4      58.080  12.599  14.8500  0.00  0.00     0.000 C
ATOM     79   O  IDS B   4      57.799  11.977  15.8730  0.00  0.00     0.000 OA
ATOM     80   O  IDS B   4      58.761  12.103  13.9330  0.00  0.00     0.000 OA
ENDBRANCH 69 78
BRANCH 65 81
ATOM     81  O4  SGN B   5      55.263  14.993  13.3100  0.00  0.00     0.000 O
BRANCH 81 85
ATOM     82  C1  SGN B   5      52.216  12.986  11.2290  0.00  0.00     0.000 C
ATOM     83  C2  SGN B   5      52.693  12.357  12.5460  0.00  0.00     0.000 C
ATOM     84  C3  SGN B   5      53.432  13.411  13.3810  0.00  0.00     0.000 C
ATOM     85  C4  SGN B   5      54.564  13.999  12.5570  0.00  0.00     0.000 C
ATOM     86  C5  SGN B   5      53.968  14.612  11.2920  0.00  0.00     0.000 C
ATOM     87  O5  SGN B   5      53.306  13.574  10.5440  0.00  0.00     0.000 O
ATOM     88   O  SGN B   5      53.922  12.826  14.5680  0.00  0.00     0.000 O
ATOM     90  HD  SGN B   5      53.214  13.320  14.5070  0.00  0.00     0.000 HD
BRANCH 83 92
ATOM     90   N  SGN B   5      52.086  11.114  12.0320  0.00  0.00     0.000 N
ATOM     92  HD  SGN B   5      52.629  10.700  11.4990  0.00  0.00     0.000 HD
ATOM     92   S  SGN B   5      51.306  10.175  13.0630  0.00  0.00     0.000 S
ATOM     93   O  SGN B   5      50.853   9.074  12.2680  0.00  0.00     0.000 OA
ATOM     94   O  SGN B   5      52.207   9.953  14.1410  0.00  0.00     0.000 OA
ATOM     95   O  SGN B   5      50.177  11.036  13.5880  0.00  0.00     0.000 OA
ENDBRANCH 83 92
BRANCH 86 96
ATOM     96   C  SGN B   5      54.987  15.252  10.3720  0.00  0.00     0.000 C
ATOM     97   O  SGN B   5      55.678  14.254   9.6160  0.00  0.00     0.000 O
ATOM     98   S  SGN B   5      55.736  14.484   8.0300  0.00  0.00     0.000 S
ATOM     99   O  SGN B   5      56.647  13.453   7.5930  0.00  0.00     0.000 OA
ATOM    100   O  SGN B   5      54.414  14.356   7.5320  0.00  0.00     0.000 OA
ATOM    101   O  SGN B   5      56.261  15.802   7.8830  0.00  0.00     0.000 OA
ENDBRANCH 86 96
BRANCH 82 102
ATOM    102  O4  IDS B   6      51.223  13.900  11.4130  0.00  0.00     0.000 O
BRANCH 102 106
ATOM    103  C1  IDS B   6      47.909  15.340  10.9580  0.00  0.00     0.000 C
ATOM    104  C2  IDS B   6      48.079  13.849  11.2920  0.00  0.00     0.000 C
ATOM    105  C3  IDS B   6      49.120  13.120  10.4640  0.00  0.00     0.000 C
ATOM    106  C4  IDS B   6      50.374  13.947  10.2380  0.00  0.00     0.000 C
ATOM    107  C5  IDS B   6      49.989  15.390   9.9010  0.00  0.00     0.000 C
ATOM    108  O5  IDS B   6      49.173  15.975  10.9170  0.00  0.00     0.000 O
ATOM    109   O  IDS B   6      48.526  12.758   9.2280  0.00  0.00     0.000 O
ATOM    111  HD  IDS B   6      47.870  13.317   9.1400  0.00  0.00     0.000 HD
BRANCH 104 111
ATOM    111   O  IDS B   6      48.531  13.719  12.6860  0.00  0.00     0.000 O
ATOM    112   S  IDS B   6      47.446  13.327  13.7950  0.00  0.00     0.000 S
ATOM    113   O  IDS B   6      46.443  14.378  13.7150  0.00  0.00     0.000 OA
ATOM    114   O  IDS B   6      46.945  11.979  13.4990  0.00  0.00     0.000 OA
ATOM    115   O  IDS B   6      48.280  13.400  14.9750  0.00  0.00     0.000 OA
ENDBRANCH 104 111
BRANCH 107 116
ATOM    116   C  IDS B   6      51.253  16.218   9.7120  0.00  0.00     0.000 C
ATOM    117   O  IDS B   6      51.502  17.030  10.5660  0.00  0.00     0.000 OA
ATOM    118   O  IDS B   6      51.970  16.069   8.7350  0.00  0.00     0.000 OA
ENDBRANCH 107 116
BRANCH 103 119
ATOM    119  O4  SGN B   7      47.085  15.335   9.8790  0.00  0.00     0.000 O
BRANCH 119 123
ATOM    120  C1  SGN B   7      45.364  18.281   7.4600  0.00  0.00     0.000 C
ATOM    121  C2  SGN B   7      46.654  17.607   6.9550  0.00  0.00     0.000 C
ATOM    122  C3  SGN B   7      46.921  16.309   7.7290  0.00  0.00     0.000 C
ATOM    123  C4  SGN B   7      46.919  16.592   9.2220  0.00  0.00     0.000 C
ATOM    124  C5  SGN B   7      45.598  17.269   9.6230  0.00  0.00     0.000 C
ATOM    125  O5  SGN B   7      45.388  18.485   8.8720  0.00  0.00     0.000 O
ATOM    126   O  SGN B   7      48.174  15.762   7.3030  0.00  0.00     0.000 O
ATOM    128  HD  SGN B   7      47.545  16.344   7.1770  0.00  0.00     0.000 HD
BRANCH 121 130
ATOM    128   N  SGN B   7      46.204  17.984   5.6120  0.00  0.00     0.000 N
ATOM    130  HD  SGN B   7      46.445  18.803   5.7540  0.00  0.00     0.000 HD
ATOM    130   S  SGN B   7      47.236  18.315   4.4220  0.00  0.00     0.000 S
ATOM    131   O  SGN B   7      48.144  17.220   4.4010  0.00  0.00     0.000 OA
ATOM    132   O  SGN B   7      46.489  18.649   3.2630  0.00  0.00     0.000 OA
ATOM    133   O  SGN B   7      47.817  19.680   4.9250  0.00  0.00     0.000 OA
ENDBRANCH 121 130
BRANCH 124 134
ATOM    134   C  SGN B   7      45.547  17.694  11.0620  0.00  0.00     0.000 C
ATOM    135   O  SGN B   7      46.744  18.429  11.3650  0.00  0.00     0.000 O
ATOM    136   S  SGN B   7      46.815  19.095  12.7860  0.00  0.00     0.000 S
ATOM    137   O  SGN B   7      48.132  19.677  12.8960  0.00  0.00     0.000 OA
ATOM    138   O  SGN B   7      46.595  18.016  13.7210  0.00  0.00     0.000 OA
ATOM    139   O  SGN B   7      45.739  20.072  12.7280  0.00  0.00     0.000 OA
ENDBRANCH 124 134
BRANCH 120 140
ATOM    140  O4  IDS B   8      44.105  17.849   7.3330  0.00  0.00     0.000 O
BRANCH 140 144
ATOM    141  C1  IDS B   8      40.739  16.637   7.7370  0.00  0.00     0.000 C
ATOM    142  C2  IDS B   8      41.719  15.958   6.7390  0.00  0.00     0.000 C
ATOM    143  C3  IDS B   8      42.438  16.963   5.8210  0.00  0.00     0.000 C
ATOM    144  C4  IDS B   8      42.930  18.189   6.5870  0.00  0.00     0.000 C
ATOM    145  C5  IDS B   8      41.832  18.696   7.5350  0.00  0.00     0.000 C
ATOM    146  O5  IDS B   8      41.405  17.680   8.4390  0.00  0.00     0.000 O
BRANCH 142 147
ATOM    147   O  IDS B   8      42.768  15.224   7.4960  0.00  0.00     0.000 O
ATOM    148   S  IDS B   8      42.753  13.605   7.5900  0.00  0.00     0.000 S
ATOM    149   O  IDS B   8      41.437  13.155   7.1960  0.00  0.00     0.000 OA
ATOM    150   O  IDS B   8      43.794  13.155   6.6850  0.00  0.00     0.000 OA
ATOM    151   O  IDS B   8      43.036  13.301   8.9790  0.00  0.00     0.000 OA
ENDBRANCH 142 147
BRANCH 145 152
ATOM    152   C  IDS B   8      42.294  19.854   8.3970  0.00  0.00     0.000 C
ATOM    153   O  IDS B   8      42.272  19.744   9.6180  0.00  0.00     0.000 OA
ATOM    154   O  IDS B   8      42.702  20.872   7.8690  0.00  0.00     0.000 OA
ENDBRANCH 145 152
ENDBRANCH 140 144
ENDBRANCH 120 140
ENDBRANCH 119 123
ENDBRANCH 103 119
ENDBRANCH 102 106
ENDBRANCH 82 102
ENDBRANCH 81 85
ENDBRANCH 65 81
ENDBRANCH 64 68
ENDBRANCH 41 64
ENDBRANCH 40 44
ENDBRANCH 24 40
ENDBRANCH 23 27
ENDBRANCH 1 23
TORSDOF 31
ENDMDL
MODEL 28
REMARK VINA RESULT:      -4.8     20.939     33.833
ROOT
ATOM      1  C1  SGN B   1      38.921  14.097  27.7860  0.00  0.00     0.000 C
ATOM      2  C2  SGN B   1      37.855  14.990  28.4410  0.00  0.00     0.000 C
ATOM      3  C3  SGN B   1      38.448  15.768  29.6200  0.00  0.00     0.000 C
ATOM      4  C4  SGN B   1      39.080  14.806  30.6210  0.00  0.00     0.000 C
ATOM      5  C5  SGN B   1      40.019  13.859  29.8780  0.00  0.00     0.000 C
ATOM      6  O5  SGN B   1      39.299  13.198  28.8200  0.00  0.00     0.000 O
ATOM      7   O  SGN B   1      37.448  16.559  30.2510  0.00  0.00     0.000 O
ATOM      9  HD  SGN B   1      37.134  15.760  30.3580  0.00  0.00     0.000 HD
ATOM      9   O  SGN B   1      39.798  15.543  31.5930  0.00  0.00     0.000 O
ATOM     11  HD  SGN B   1      39.483  14.744  31.7000  0.00  0.00     0.000 HD
ENDROOT
BRANCH 2 13
ATOM     11   N  SGN B   1      36.710  14.649  27.5750  0.00  0.00     0.000 N
ATOM     13  HD  SGN B   1      37.432  14.987  27.2370  0.00  0.00     0.000 HD
ATOM     13   S  SGN B   1      36.415  15.424  26.1960  0.00  0.00     0.000 S
ATOM     14   O  SGN B   1      37.418  16.387  25.9560  0.00  0.00     0.000 OA
ATOM     15   O  SGN B   1      36.118  14.458  25.1920  0.00  0.00     0.000 OA
ATOM     16   O  SGN B   1      35.068  16.096  26.6010  0.00  0.00     0.000 OA
ENDBRANCH 2 13
BRANCH 5 17
ATOM     17   C  SGN B   1      40.623  12.785  30.7500  0.00  0.00     0.000 C
ATOM     18   O  SGN B   1      39.724  12.421  31.8160  0.00  0.00     0.000 O
ATOM     19   S  SGN B   1      40.378  12.287  33.2690  0.00  0.00     0.000 S
ATOM     20   O  SGN B   1      39.344  11.695  34.0920  0.00  0.00     0.000 OA
ATOM     21   O  SGN B   1      41.518  11.424  33.0640  0.00  0.00     0.000 OA
ATOM     22   O  SGN B   1      40.724  13.637  33.6540  0.00  0.00     0.000 OA
ENDBRANCH 5 17
BRANCH 1 23
ATOM     23  O4  IDS B   2      39.868  14.133  26.8060  0.00  0.00     0.000 O
BRANCH 23 27
ATOM     24  C1  IDS B   2      42.086  13.801  23.3130  0.00  0.00     0.000 C
ATOM     25  C2  IDS B   2      41.370  15.154  23.5230  0.00  0.00     0.000 C
ATOM     26  C3  IDS B   2      40.842  15.276  24.9490  0.00  0.00     0.000 C
ATOM     27  C4  IDS B   2      39.942  14.121  25.3650  0.00  0.00     0.000 C
ATOM     28  C5  IDS B   2      40.467  12.801  24.7640  0.00  0.00     0.000 C
ATOM     29  O5  IDS B   2      41.838  12.915  24.4120  0.00  0.00     0.000 O
ATOM     30   O  IDS B   2      40.084  16.475  25.0670  0.00  0.00     0.000 O
ATOM     32  HD  IDS B   2      39.284  16.406  24.7440  0.00  0.00     0.000 HD
BRANCH 25 32
ATOM     32   O  IDS B   2      42.269  16.309  23.2770  0.00  0.00     0.000 O
ATOM     33   S  IDS B   2      42.066  17.312  21.9820  0.00  0.00     0.000 S
ATOM     34   O  IDS B   2      43.241  18.167  21.9440  0.00  0.00     0.000 OA
ATOM     35   O  IDS B   2      41.947  16.517  20.7680  0.00  0.00     0.000 OA
ATOM     36   O  IDS B   2      40.870  18.072  22.2620  0.00  0.00     0.000 OA
ENDBRANCH 25 32
BRANCH 28 37
ATOM     37   C  IDS B   2      40.284  11.511  25.5890  0.00  0.00     0.000 C
ATOM     38   O  IDS B   2      39.125  11.184  25.6940  0.00  0.00     0.000 OA
ATOM     39   O  IDS B   2      41.189  10.787  26.0710  0.00  0.00     0.000 OA
ENDBRANCH 28 37
BRANCH 24 40
ATOM     40  O4  SUS B   3      42.565  13.476  22.0940  0.00  0.00     0.000 O
BRANCH 40 44
ATOM     41  C1  SUS B   3      45.893  11.174  21.0110  0.00  0.00     0.000 C
ATOM     42  C2  SUS B   3      44.726  10.443  21.7060  0.00  0.00     0.000 C
ATOM     43  C3  SUS B   3      43.461  11.289  21.5870  0.00  0.00     0.000 C
ATOM     44  C4  SUS B   3      43.741  12.676  22.1440  0.00  0.00     0.000 C
ATOM     45  C5  SUS B   3      44.838  13.322  21.3220  0.00  0.00     0.000 C
ATOM     46  O5  SUS B   3      46.032  12.526  21.4620  0.00  0.00     0.000 O
BRANCH 42 49
ATOM     47   N  SUS B   3      45.738   9.391  21.9000  0.00  0.00     0.000 N
ATOM     49  HD  SUS B   3      46.321   9.293  21.2670  0.00  0.00     0.000 HD
ATOM     49   S  SUS B   3      45.089   7.958  22.2030  0.00  0.00     0.000 S
ATOM     50   O  SUS B   3      44.220   7.593  21.1550  0.00  0.00     0.000 OA
ATOM     51   O  SUS B   3      46.406   7.144  22.1300  0.00  0.00     0.000 OA
ATOM     52   O  SUS B   3      44.570   7.948  23.5140  0.00  0.00     0.000 OA
ENDBRANCH 42 49
BRANCH 43 53
ATOM     53   O  SUS B   3      42.400  10.635  22.3780  0.00  0.00     0.000 O
ATOM     54   S  SUS B   3      41.015  10.236  21.5890  0.00  0.00     0.000 S
ATOM     55   O  SUS B   3      41.322   9.121  20.7050  0.00  0.00     0.000 OA
ATOM     56   O  SUS B   3      40.088   9.899  22.6550  0.00  0.00     0.000 OA
ATOM     57   O  SUS B   3      40.613  11.422  20.8280  0.00  0.00     0.000 OA
ENDBRANCH 43 53
BRANCH 45 58
ATOM     58   C  SUS B   3      45.105  14.747  21.7550  0.00  0.00     0.000 C
ATOM     59   S  SUS B   3      46.422  16.141  23.4600  0.00  0.00     0.000 S
ATOM     60   O  SUS B   3      46.156  14.758  22.7350  0.00  0.00     0.000 O
ATOM     61   O  SUS B   3      45.366  16.261  24.4470  0.00  0.00     0.000 OA
ATOM     62   O  SUS B   3      47.709  15.890  24.0510  0.00  0.00     0.000 OA
ATOM     63   O  SUS B   3      46.407  17.118  22.4300  0.00  0.00     0.000 OA
ENDBRANCH 45 58
BRANCH 41 64
ATOM     64  O4  IDS B   4      45.898  11.033  19.6450  0.00  0.00     0.000 O
BRANCH 64 68
ATOM     65  C1  IDS B   4      47.660  10.071  16.6050  0.00  0.00     0.000 C
ATOM     66  C2  IDS B   4      48.093   9.501  17.9620  0.00  0.00     0.000 C
ATOM     67  C3  IDS B   4      48.211  10.535  19.0680  0.00  0.00     0.000 C
ATOM     68  C4  IDS B   4      47.096  11.564  19.0350  0.00  0.00     0.000 C
ATOM     69  C5  IDS B   4      46.896  12.005  17.5790  0.00  0.00     0.000 C
ATOM     70  O5  IDS B   4      46.510  10.874  16.7940  0.00  0.00     0.000 O
ATOM     71   O  IDS B   4      49.459  11.179  18.9100  0.00  0.00     0.000 O
ATOM     73  HD  IDS B   4      48.876  10.549  18.7890  0.00  0.00     0.000 HD
BRANCH 66 73
ATOM     73   O  IDS B   4      47.073   8.549  18.4220  0.00  0.00     0.000 O
ATOM     74   S  IDS B   4      47.466   6.981  18.4740  0.00  0.00     0.000 S
ATOM     75   O  IDS B   4      47.898   6.623  17.1400  0.00  0.00     0.000 OA
ATOM     76   O  IDS B   4      46.220   6.376  18.8700  0.00  0.00     0.000 OA
ATOM     77   O  IDS B   4      48.516   6.879  19.4600  0.00  0.00     0.000 OA
ENDBRANCH 66 73
BRANCH 69 78
ATOM     78   C  IDS B   4      45.962  13.194  17.4040  0.00  0.00     0.000 C
ATOM     79   O  IDS B   4      45.251  13.245  16.4020  0.00  0.00     0.000 OA
ATOM     80   O  IDS B   4      45.872  14.022  18.3300  0.00  0.00     0.000 OA
ENDBRANCH 69 78
BRANCH 65 81
ATOM     81  O4  SGN B   5      48.729  10.661  16.0000  0.00  0.00     0.000 O
BRANCH 81 85
ATOM     82  C1  SGN B   5      50.272  11.706  12.2370  0.00  0.00     0.000 C
ATOM     83  C2  SGN B   5      48.774  11.954  12.4700  0.00  0.00     0.000 C
ATOM     84  C3  SGN B   5      48.485  11.967  13.9770  0.00  0.00     0.000 C
ATOM     85  C4  SGN B   5      48.978  10.669  14.5930  0.00  0.00     0.000 C
ATOM     86  C5  SGN B   5      50.474  10.546  14.3170  0.00  0.00     0.000 C
ATOM     87  O5  SGN B   5      50.681  10.520  12.8920  0.00  0.00     0.000 O
ATOM     88   O  SGN B   5      47.102  12.137  14.1980  0.00  0.00     0.000 O
ATOM     90  HD  SGN B   5      47.702  12.756  14.2730  0.00  0.00     0.000 HD
BRANCH 83 92
ATOM     90   N  SGN B   5      47.783  11.852  11.3810  0.00  0.00     0.000 N
ATOM     92  HD  SGN B   5      47.022  11.569  11.6790  0.00  0.00     0.000 HD
ATOM     92   S  SGN B   5      47.693  13.055  10.3320  0.00  0.00     0.000 S
ATOM     93   O  SGN B   5      46.655  12.661   9.4280  0.00  0.00     0.000 OA
ATOM     94   O  SGN B   5      47.550  14.237  11.1120  0.00  0.00     0.000 OA
ATOM     95   O  SGN B   5      49.061  13.105   9.6860  0.00  0.00     0.000 OA
ENDBRANCH 83 92
BRANCH 86 96
ATOM     96   C  SGN B   5      51.110   9.295  14.8880  0.00  0.00     0.000 C
ATOM     97   O  SGN B   5      50.197   8.196  14.8290  0.00  0.00     0.000 O
ATOM     98   S  SGN B   5      50.758   6.848  14.1670  0.00  0.00     0.000 S
ATOM     99   O  SGN B   5      49.705   5.899  14.4380  0.00  0.00     0.000 OA
ATOM    100   O  SGN B   5      50.981   7.109  12.7910  0.00  0.00     0.000 OA
ATOM    101   O  SGN B   5      51.962   6.575  14.8830  0.00  0.00     0.000 OA
ENDBRANCH 86 96
BRANCH 82 102
ATOM    102  O4  IDS B   6      51.045  12.757  12.6310  0.00  0.00     0.000 O
BRANCH 102 106
ATOM    103  C1  IDS B   6      53.483  15.369  11.9310  0.00  0.00     0.000 C
ATOM    104  C2  IDS B   6      52.462  14.942  10.8660  0.00  0.00     0.000 C
ATOM    105  C3  IDS B   6      52.322  13.444  10.6740  0.00  0.00     0.000 C
ATOM    106  C4  IDS B   6      52.342  12.680  11.9860  0.00  0.00     0.000 C
ATOM    107  C5  IDS B   6      53.437  13.245  12.8960  0.00  0.00     0.000 C
ATOM    108  O5  IDS B   6      53.268  14.644  13.1270  0.00  0.00     0.000 O
ATOM    109   O  IDS B   6      53.367  13.009   9.8210  0.00  0.00     0.000 O
ATOM    111  HD  IDS B   6      53.975  13.620   9.9070  0.00  0.00     0.000 HD
BRANCH 104 111
ATOM    111   O  IDS B   6      51.126  15.409  11.2680  0.00  0.00     0.000 O
ATOM    112   S  IDS B   6      50.439  16.564  10.3980  0.00  0.00     0.000 S
ATOM    113   O  IDS B   6      51.373  17.677  10.4640  0.00  0.00     0.000 OA
ATOM    114   O  IDS B   6      50.197  16.046   9.0470  0.00  0.00     0.000 OA
ATOM    115   O  IDS B   6      49.236  16.759  11.1790  0.00  0.00     0.000 OA
ENDBRANCH 104 111
BRANCH 107 116
ATOM    116   C  IDS B   6      53.426  12.496  14.2220  0.00  0.00     0.000 C
ATOM    117   O  IDS B   6      53.892  11.385  14.2220  0.00  0.00     0.000 OA
ATOM    118   O  IDS B   6      52.957  12.999  15.2310  0.00  0.00     0.000 OA
ENDBRANCH 107 116
BRANCH 103 119
ATOM    119  O4  SGN B   7      54.672  15.315  11.2770  0.00  0.00     0.000 O
BRANCH 119 123
ATOM    120  C1  SGN B   7      58.295  17.402  11.3800  0.00  0.00     0.000 C
ATOM    121  C2  SGN B   7      58.002  16.423  12.5330  0.00  0.00     0.000 C
ATOM    122  C3  SGN B   7      56.866  15.466  12.1500  0.00  0.00     0.000 C
ATOM    123  C4  SGN B   7      55.654  16.263  11.6970  0.00  0.00     0.000 C
ATOM    124  C5  SGN B   7      56.050  17.211  10.5540  0.00  0.00     0.000 C
ATOM    125  O5  SGN B   7      57.120  18.093  10.9580  0.00  0.00     0.000 O
ATOM    126   O  SGN B   7      56.555  14.638  13.2770  0.00  0.00     0.000 O
ATOM    128  HD  SGN B   7      57.088  15.215  12.9130  0.00  0.00     0.000 HD
BRANCH 121 130
ATOM    128   N  SGN B   7      59.451  16.490  12.7390  0.00  0.00     0.000 N
ATOM    130  HD  SGN B   7      59.354  17.191  13.2390  0.00  0.00     0.000 HD
ATOM    130   S  SGN B   7      60.139  16.090  14.1390  0.00  0.00     0.000 S
ATOM    131   O  SGN B   7      59.605  14.811  14.4640  0.00  0.00     0.000 OA
ATOM    132   O  SGN B   7      61.541  16.271  14.0160  0.00  0.00     0.000 OA
ATOM    133   O  SGN B   7      59.664  17.281  15.0370  0.00  0.00     0.000 OA
ENDBRANCH 121 130
BRANCH 124 134
ATOM    134   C  SGN B   7      54.945  18.126  10.1140  0.00  0.00     0.000 C
ATOM    135   O  SGN B   7      55.329  19.481  10.4040  0.00  0.00     0.000 O
ATOM    136   S  SGN B   7      54.370  20.608   9.8790  0.00  0.00     0.000 S
ATOM    137   O  SGN B   7      54.900  21.856  10.3740  0.00  0.00     0.000 OA
ATOM    138   O  SGN B   7      53.073  20.288  10.4290  0.00  0.00     0.000 OA
ATOM    139   O  SGN B   7      54.467  20.455   8.4360  0.00  0.00     0.000 OA
ENDBRANCH 124 134
BRANCH 120 140
ATOM    140  O4  IDS B   8      58.818  17.128  10.1800  0.00  0.00     0.000 O
BRANCH 140 144
ATOM    141  C1  IDS B   8      61.398  16.520   7.7440  0.00  0.00     0.000 C
ATOM    142  C2  IDS B   8      61.599  17.567   8.8770  0.00  0.00     0.000 C
ATOM    143  C3  IDS B   8      60.410  18.534   9.0220  0.00  0.00     0.000 C
ATOM    144  C4  IDS B   8      59.068  17.808   8.9440  0.00  0.00     0.000 C
ATOM    145  C5  IDS B   8      59.076  16.804   7.7810  0.00  0.00     0.000 C
ATOM    146  O5  IDS B   8      60.144  15.868   7.9010  0.00  0.00     0.000 O
BRANCH 142 147
ATOM    147   O  IDS B   8      61.756  16.865  10.1780  0.00  0.00     0.000 O
ATOM    148   S  IDS B   8      63.214  16.371  10.6900  0.00  0.00     0.000 S
ATOM    149   O  IDS B   8      64.106  16.385   9.5530  0.00  0.00     0.000 OA
ATOM    150   O  IDS B   8      63.603  17.317  11.7200  0.00  0.00     0.000 OA
ATOM    151   O  IDS B   8      63.006  15.029  11.1990  0.00  0.00     0.000 OA
ENDBRANCH 142 147
BRANCH 145 152
ATOM    152   C  IDS B   8      57.806  15.980   7.7120  0.00  0.00     0.000 C
ATOM    153   O  IDS B   8      57.811  14.826   8.1240  0.00  0.00     0.000 OA
ATOM    154   O  IDS B   8      56.788  16.480   7.2670  0.00  0.00     0.000 OA
ENDBRANCH 145 152
ENDBRANCH 140 144
ENDBRANCH 120 140
ENDBRANCH 119 123
ENDBRANCH 103 119
ENDBRANCH 102 106
ENDBRANCH 82 102
ENDBRANCH 81 85
ENDBRANCH 65 81
ENDBRANCH 64 68
ENDBRANCH 41 64
ENDBRANCH 40 44
ENDBRANCH 24 40
ENDBRANCH 23 27
ENDBRANCH 1 23
TORSDOF 31
ENDMDL
MODEL 29
REMARK VINA RESULT:      -4.2     13.351     22.676
ROOT
ATOM      1  C1  SGN B   1      37.967  14.718  33.3210  0.00  0.00     0.000 C
ATOM      2  C2  SGN B   1      37.836  13.333  32.6680  0.00  0.00     0.000 C
ATOM      3  C3  SGN B   1      36.941  13.400  31.4260  0.00  0.00     0.000 C
ATOM      4  C4  SGN B   1      35.583  13.991  31.7870  0.00  0.00     0.000 C
ATOM      5  C5  SGN B   1      35.793  15.294  32.5560  0.00  0.00     0.000 C
ATOM      6  O5  SGN B   1      36.636  15.048  33.6980  0.00  0.00     0.000 O
ATOM      7   O  SGN B   1      36.787  12.109  30.8500  0.00  0.00     0.000 O
ATOM      9  HD  SGN B   1      36.447  11.992  31.6380  0.00  0.00     0.000 HD
ATOM      9   O  SGN B   1      34.847  14.237  30.6030  0.00  0.00     0.000 O
ATOM     11  HD  SGN B   1      34.507  14.120  31.3910  0.00  0.00     0.000 HD
ENDROOT
BRANCH 2 13
ATOM     11   N  SGN B   1      39.085  12.619  32.3420  0.00  0.00     0.000 N
ATOM     13  HD  SGN B   1      38.787  12.635  33.1540  0.00  0.00     0.000 HD
ATOM     13   S  SGN B   1      40.269  12.426  33.4140  0.00  0.00     0.000 S
ATOM     14   O  SGN B   1      39.895  12.979  34.6560  0.00  0.00     0.000 OA
ATOM     15   O  SGN B   1      40.714  11.073  33.3540  0.00  0.00     0.000 OA
ATOM     16   O  SGN B   1      41.354  13.297  32.7080  0.00  0.00     0.000 OA
ENDBRANCH 2 13
BRANCH 5 17
ATOM     17   C  SGN B   1      34.518  15.919  33.0650  0.00  0.00     0.000 C
ATOM     18   O  SGN B   1      33.655  14.925  33.6510  0.00  0.00     0.000 O
ATOM     19   S  SGN B   1      32.112  15.003  33.2370  0.00  0.00     0.000 S
ATOM     20   O  SGN B   1      31.439  14.075  34.1200  0.00  0.00     0.000 OA
ATOM     21   O  SGN B   1      31.755  16.384  33.4670  0.00  0.00     0.000 OA
ATOM     22   O  SGN B   1      32.075  14.610  31.8450  0.00  0.00     0.000 OA
ENDBRANCH 5 17
BRANCH 1 23
ATOM     23  O4  IDS B   2      38.748  15.835  33.2750  0.00  0.00     0.000 O
BRANCH 23 27
ATOM     24  C1  IDS B   2      38.233  17.904  29.7130  0.00  0.00     0.000 C
ATOM     25  C2  IDS B   2      39.464  16.973  29.7720  0.00  0.00     0.000 C
ATOM     26  C3  IDS B   2      39.394  16.051  30.9860  0.00  0.00     0.000 C
ATOM     27  C4  IDS B   2      39.217  16.794  32.3040  0.00  0.00     0.000 C
ATOM     28  C5  IDS B   2      38.286  18.007  32.1040  0.00  0.00     0.000 C
ATOM     29  O5  IDS B   2      37.490  17.850  30.9390  0.00  0.00     0.000 O
ATOM     30   O  IDS B   2      40.599  15.300  31.0740  0.00  0.00     0.000 O
ATOM     32  HD  IDS B   2      41.256  15.749  31.4150  0.00  0.00     0.000 HD
BRANCH 25 32
ATOM     32   O  IDS B   2      39.578  16.118  28.5650  0.00  0.00     0.000 O
ATOM     33   S  IDS B   2      40.915  16.150  27.5980  0.00  0.00     0.000 S
ATOM     34   O  IDS B   2      40.579  15.369  26.4170  0.00  0.00     0.000 OA
ATOM     35   O  IDS B   2      41.229  17.529  27.2520  0.00  0.00     0.000 OA
ATOM     36   O  IDS B   2      41.966  15.521  28.3630  0.00  0.00     0.000 OA
ENDBRANCH 25 32
BRANCH 28 37
ATOM     37   C  IDS B   2      37.362  18.406  33.2730  0.00  0.00     0.000 C
ATOM     38   O  IDS B   2      37.948  18.482  34.3270  0.00  0.00     0.000 OA
ATOM     39   O  IDS B   2      36.144  18.703  33.2050  0.00  0.00     0.000 OA
ENDBRANCH 28 37
BRANCH 24 40
ATOM     40  O4  SUS B   3      38.144  18.842  28.7470  0.00  0.00     0.000 O
BRANCH 40 44
ATOM     41  C1  SUS B   3      34.818  20.231  26.6120  0.00  0.00     0.000 C
ATOM     42  C2  SUS B   3      34.855  20.520  28.1260  0.00  0.00     0.000 C
ATOM     43  C3  SUS B   3      36.291  20.389  28.6280  0.00  0.00     0.000 C
ATOM     44  C4  SUS B   3      36.822  19.016  28.2480  0.00  0.00     0.000 C
ATOM     45  C5  SUS B   3      36.821  18.890  26.7390  0.00  0.00     0.000 C
ATOM     46  O5  SUS B   3      35.458  18.993  26.2790  0.00  0.00     0.000 O
BRANCH 42 49
ATOM     47   N  SUS B   3      34.206  21.822  28.3530  0.00  0.00     0.000 N
ATOM     49  HD  SUS B   3      34.674  22.421  28.7690  0.00  0.00     0.000 HD
ATOM     49   S  SUS B   3      32.795  21.688  29.1000  0.00  0.00     0.000 S
ATOM     50   O  SUS B   3      32.966  21.022  30.3310  0.00  0.00     0.000 OA
ATOM     51   O  SUS B   3      32.566  23.204  29.3270  0.00  0.00     0.000 OA
ATOM     52   O  SUS B   3      31.840  21.168  28.2040  0.00  0.00     0.000 OA
ENDBRANCH 42 49
BRANCH 43 53
ATOM     53   O  SUS B   3      36.273  20.532  30.0970  0.00  0.00     0.000 O
ATOM     54   S  SUS B   3      36.959  21.886  30.7270  0.00  0.00     0.000 S
ATOM     55   O  SUS B   3      36.086  23.007  30.4060  0.00  0.00     0.000 OA
ATOM     56   O  SUS B   3      37.051  21.605  32.1490  0.00  0.00     0.000 OA
ATOM     57   O  SUS B   3      38.266  22.029  30.0800  0.00  0.00     0.000 OA
ENDBRANCH 43 53
BRANCH 45 58
ATOM     58   C  SUS B   3      37.431  17.585  26.2780  0.00  0.00     0.000 C
ATOM     59   S  SUS B   3      36.836  15.158  25.6920  0.00  0.00     0.000 S
ATOM     60   O  SUS B   3      36.382  16.647  25.9820  0.00  0.00     0.000 O
ATOM     61   O  SUS B   3      37.114  14.586  26.9960  0.00  0.00     0.000 OA
ATOM     62   O  SUS B   3      35.642  14.625  25.0950  0.00  0.00     0.000 OA
ATOM     63   O  SUS B   3      37.955  15.264  24.8240  0.00  0.00     0.000 OA
ENDBRANCH 45 58
BRANCH 41 64
ATOM     64  O4  IDS B   4      35.213  21.293  25.8360  0.00  0.00     0.000 O
BRANCH 64 68
ATOM     65  C1  IDS B   4      34.478  23.348  22.9180  0.00  0.00     0.000 C
ATOM     66  C2  IDS B   4      33.386  22.467  23.5370  0.00  0.00     0.000 C
ATOM     67  C3  IDS B   4      33.827  21.047  23.8490  0.00  0.00     0.000 C
ATOM     68  C4  IDS B   4      35.229  20.978  24.4260  0.00  0.00     0.000 C
ATOM     69  C5  IDS B   4      36.130  21.907  23.6020  0.00  0.00     0.000 C
ATOM     70  O5  IDS B   4      35.648  23.248  23.7110  0.00  0.00     0.000 O
ATOM     71   O  IDS B   4      33.771  20.315  22.6420  0.00  0.00     0.000 O
ATOM     73  HD  IDS B   4      33.590  20.977  23.1710  0.00  0.00     0.000 HD
BRANCH 66 73
ATOM     73   O  IDS B   4      32.986  23.045  24.8270  0.00  0.00     0.000 O
ATOM     74   S  IDS B   4      31.458  23.551  24.9900  0.00  0.00     0.000 S
ATOM     75   O  IDS B   4      31.231  24.515  23.9350  0.00  0.00     0.000 OA
ATOM     76   O  IDS B   4      31.475  24.123  26.3130  0.00  0.00     0.000 OA
ATOM     77   O  IDS B   4      30.644  22.365  24.8660  0.00  0.00     0.000 OA
ENDBRANCH 66 73
BRANCH 69 78
ATOM     78   C  IDS B   4      37.615  21.784  23.9160  0.00  0.00     0.000 C
ATOM     79   O  IDS B   4      38.074  20.672  24.1740  0.00  0.00     0.000 OA
ATOM     80   O  IDS B   4      38.335  22.793  23.7970  0.00  0.00     0.000 OA
ENDBRANCH 69 78
BRANCH 65 81
ATOM     81  O4  SGN B   5      34.606  23.050  21.5960  0.00  0.00     0.000 O
BRANCH 81 85
ATOM     82  C1  SGN B   5      35.551  24.663  17.8350  0.00  0.00     0.000 C
ATOM     83  C2  SGN B   5      36.694  24.557  18.8550  0.00  0.00     0.000 C
ATOM     84  C3  SGN B   5      36.310  23.555  19.9530  0.00  0.00     0.000 C
ATOM     85  C4  SGN B   5      34.991  23.975  20.5760  0.00  0.00     0.000 C
ATOM     86  C5  SGN B   5      33.934  24.022  19.4750  0.00  0.00     0.000 C
ATOM     87  O5  SGN B   5      34.339  24.990  18.4880  0.00  0.00     0.000 O
ATOM     88   O  SGN B   5      37.331  23.494  20.9250  0.00  0.00     0.000 O
ATOM     90  HD  SGN B   5      37.199  22.911  20.2980  0.00  0.00     0.000 HD
BRANCH 83 92
ATOM     90   N  SGN B   5      37.663  24.462  17.7460  0.00  0.00     0.000 N
ATOM     92  HD  SGN B   5      37.258  24.426  16.9820  0.00  0.00     0.000 HD
ATOM     92   S  SGN B   5      38.947  25.413  17.7870  0.00  0.00     0.000 S
ATOM     93   O  SGN B   5      39.667  25.089  16.5930  0.00  0.00     0.000 OA
ATOM     94   O  SGN B   5      38.446  26.730  17.9820  0.00  0.00     0.000 OA
ATOM     95   O  SGN B   5      39.678  25.017  19.0510  0.00  0.00     0.000 OA
ENDBRANCH 83 92
BRANCH 86 96
ATOM     96   C  SGN B   5      32.553  24.418  19.9560  0.00  0.00     0.000 C
ATOM     97   O  SGN B   5      32.636  25.513  20.8710  0.00  0.00     0.000 O
ATOM     98   S  SGN B   5      31.681  26.764  20.5640  0.00  0.00     0.000 S
ATOM     99   O  SGN B   5      31.840  27.582  21.7420  0.00  0.00     0.000 OA
ATOM    100   O  SGN B   5      32.137  27.362  19.3610  0.00  0.00     0.000 OA
ATOM    101   O  SGN B   5      30.378  26.195  20.4420  0.00  0.00     0.000 OA
ENDBRANCH 86 96
BRANCH 82 102
ATOM    102  O4  IDS B   6      35.401  23.528  17.0950  0.00  0.00     0.000 O
BRANCH 102 106
ATOM    103  C1  IDS B   6      35.554  21.827  13.8790  0.00  0.00     0.000 C
ATOM    104  C2  IDS B   6      36.479  23.015  14.1850  0.00  0.00     0.000 C
ATOM    105  C3  IDS B   6      35.794  24.223  14.7950  0.00  0.00     0.000 C
ATOM    106  C4  IDS B   6      34.756  23.845  15.8360  0.00  0.00     0.000 C
ATOM    107  C5  IDS B   6      33.929  22.657  15.3330  0.00  0.00     0.000 C
ATOM    108  O5  IDS B   6      34.751  21.536  15.0070  0.00  0.00     0.000 O
ATOM    109   O  IDS B   6      35.206  24.974  13.7450  0.00  0.00     0.000 O
ATOM    111  HD  IDS B   6      35.105  24.397  13.1080  0.00  0.00     0.000 HD
BRANCH 104 111
ATOM    111   O  IDS B   6      37.485  22.598  15.1740  0.00  0.00     0.000 O
ATOM    112   S  IDS B   6      38.908  22.099  14.6370  0.00  0.00     0.000 S
ATOM    113   O  IDS B   6      38.597  20.974  13.7690  0.00  0.00     0.000 OA
ATOM    114   O  IDS B   6      39.572  23.224  13.9690  0.00  0.00     0.000 OA
ATOM    115   O  IDS B   6      39.513  21.720  15.8960  0.00  0.00     0.000 OA
ENDBRANCH 104 111
BRANCH 107 116
ATOM    116   C  IDS B   6      32.914  22.263  16.3990  0.00  0.00     0.000 C
ATOM    117   O  IDS B   6      33.051  21.176  16.9010  0.00  0.00     0.000 OA
ATOM    118   O  IDS B   6      32.004  23.011  16.7180  0.00  0.00     0.000 OA
ENDBRANCH 107 116
BRANCH 103 119
ATOM    119  O4  SGN B   7      35.001  22.150  12.6820  0.00  0.00     0.000 O
BRANCH 119 123
ATOM    120  C1  SGN B   7      33.811  20.104   9.2340  0.00  0.00     0.000 C
ATOM    121  C2  SGN B   7      32.902  20.002  10.4740  0.00  0.00     0.000 C
ATOM    122  C3  SGN B   7      33.249  21.101  11.4870  0.00  0.00     0.000 C
ATOM    123  C4  SGN B   7      34.734  21.054  11.8070  0.00  0.00     0.000 C
ATOM    124  C5  SGN B   7      35.552  21.156  10.5090  0.00  0.00     0.000 C
ATOM    125  O5  SGN B   7      35.194  20.102   9.5870  0.00  0.00     0.000 O
ATOM    126   O  SGN B   7      32.455  20.916  12.6640  0.00  0.00     0.000 O
ATOM    128  HD  SGN B   7      32.611  20.697  11.8410  0.00  0.00     0.000 HD
BRANCH 121 130
ATOM    128   N  SGN B   7      31.804  19.737   9.5410  0.00  0.00     0.000 N
ATOM    130  HD  SGN B   7      32.104  18.936   9.4040  0.00  0.00     0.000 HD
ATOM    130   S  SGN B   7      30.571  18.772   9.9160  0.00  0.00     0.000 S
ATOM    131   O  SGN B   7      30.108  19.234  11.1800  0.00  0.00     0.000 OA
ATOM    132   O  SGN B   7      29.691  18.721   8.8050  0.00  0.00     0.000 OA
ATOM    133   O  SGN B   7      31.292  17.382   9.9140  0.00  0.00     0.000 OA
ENDBRANCH 121 130
BRANCH 124 134
ATOM    134   C  SGN B   7      37.031  21.003  10.7100  0.00  0.00     0.000 C
ATOM    135   O  SGN B   7      37.563  20.231   9.6200  0.00  0.00     0.000 O
ATOM    136   S  SGN B   7      39.127  20.088   9.5630  0.00  0.00     0.000 S
ATOM    137   O  SGN B   7      39.413  19.198   8.4630  0.00  0.00     0.000 OA
ATOM    138   O  SGN B   7      39.503  19.538  10.8460  0.00  0.00     0.000 OA
ATOM    139   O  SGN B   7      39.560  21.459   9.3450  0.00  0.00     0.000 OA
ENDBRANCH 124 134
BRANCH 120 140
ATOM    140  O4  IDS B   8      33.833  21.067   8.3070  0.00  0.00     0.000 O
BRANCH 140 144
ATOM    141  C1  IDS B   8      33.126  22.817   5.2410  0.00  0.00     0.000 C
ATOM    142  C2  IDS B   8      33.335  21.276   5.2520  0.00  0.00     0.000 C
ATOM    143  C3  IDS B   8      34.596  20.844   6.0230  0.00  0.00     0.000 C
ATOM    144  C4  IDS B   8      34.749  21.599   7.3420  0.00  0.00     0.000 C
ATOM    145  C5  IDS B   8      34.481  23.097   7.1280  0.00  0.00     0.000 C
ATOM    146  O5  IDS B   8      33.190  23.326   6.5680  0.00  0.00     0.000 O
BRANCH 142 147
ATOM    147   O  IDS B   8      32.172  20.623   5.9100  0.00  0.00     0.000 O
ATOM    148   S  IDS B   8      31.774  19.088   5.5710  0.00  0.00     0.000 S
ATOM    149   O  IDS B   8      32.447  18.721   4.3450  0.00  0.00     0.000 OA
ATOM    150   O  IDS B   8      32.221  18.311   6.7110  0.00  0.00     0.000 OA
ATOM    151   O  IDS B   8      30.332  19.093   5.4160  0.00  0.00     0.000 OA
ENDBRANCH 142 147
BRANCH 145 152
ATOM    152   C  IDS B   8      34.520  23.886   8.4210  0.00  0.00     0.000 C
ATOM    153   O  IDS B   8      33.470  24.218   8.9590  0.00  0.00     0.000 OA
ATOM    154   O  IDS B   8      35.594  24.165   8.9230  0.00  0.00     0.000 OA
ENDBRANCH 145 152
ENDBRANCH 140 144
ENDBRANCH 120 140
ENDBRANCH 119 123
ENDBRANCH 103 119
ENDBRANCH 102 106
ENDBRANCH 82 102
ENDBRANCH 81 85
ENDBRANCH 65 81
ENDBRANCH 64 68
ENDBRANCH 41 64
ENDBRANCH 40 44
ENDBRANCH 24 40
ENDBRANCH 23 27
ENDBRANCH 1 23
TORSDOF 31
ENDMDL
MODEL 30
REMARK VINA RESULT:      -4.2     28.094     36.635
ROOT
ATOM      1  C1  SGN B   1      70.372  11.586  17.2710  0.00  0.00     0.000 C
ATOM      2  C2  SGN B   1      71.449  11.000  16.3430  0.00  0.00     0.000 C
ATOM      3  C3  SGN B   1      71.624   9.499  16.5960  0.00  0.00     0.000 C
ATOM      4  C4  SGN B   1      71.939   9.246  18.0670  0.00  0.00     0.000 C
ATOM      5  C5  SGN B   1      70.911   9.975  18.9300  0.00  0.00     0.000 C
ATOM      6  O5  SGN B   1      70.889  11.371  18.5770  0.00  0.00     0.000 O
ATOM      7   O  SGN B   1      72.653   8.969  15.7680  0.00  0.00     0.000 O
ATOM      9  HD  SGN B   1      73.087   9.554  16.2360  0.00  0.00     0.000 HD
ATOM      9   O  SGN B   1      71.896   7.855  18.3250  0.00  0.00     0.000 O
ATOM     11  HD  SGN B   1      72.331   8.440  18.7930  0.00  0.00     0.000 HD
ENDROOT
BRANCH 2 13
ATOM     11   N  SGN B   1      71.785  12.256  15.6450  0.00  0.00     0.000 N
ATOM     13  HD  SGN B   1      70.988  11.922  15.5910  0.00  0.00     0.000 HD
ATOM     13   S  SGN B   1      71.039  12.715  14.2960  0.00  0.00     0.000 S
ATOM     14   O  SGN B   1      70.034  11.785  13.9560  0.00  0.00     0.000 OA
ATOM     15   O  SGN B   1      70.705  14.095  14.4130  0.00  0.00     0.000 OA
ATOM     16   O  SGN B   1      72.255  12.616  13.3240  0.00  0.00     0.000 OA
ENDBRANCH 2 13
BRANCH 5 17
ATOM     17   C  SGN B   1      71.182   9.889  20.4120  0.00  0.00     0.000 C
ATOM     18   O  SGN B   1      70.081  10.431  21.1680  0.00  0.00     0.000 O
ATOM     19   S  SGN B   1      70.471  11.410  22.3710  0.00  0.00     0.000 S
ATOM     20   O  SGN B   1      69.237  11.619  23.1000  0.00  0.00     0.000 OA
ATOM     21   O  SGN B   1      71.465  10.673  23.1170  0.00  0.00     0.000 OA
ATOM     22   O  SGN B   1      70.978  12.606  21.7360  0.00  0.00     0.000 OA
ENDBRANCH 5 17
BRANCH 1 23
ATOM     23  O4  IDS B   2      69.028  11.813  17.3130  0.00  0.00     0.000 O
BRANCH 23 27
ATOM     24  C1  IDS B   2      65.015  12.569  16.5690  0.00  0.00     0.000 C
ATOM     25  C2  IDS B   2      65.722  11.654  15.5450  0.00  0.00     0.000 C
ATOM     26  C3  IDS B   2      67.085  11.205  16.0650  0.00  0.00     0.000 C
ATOM     27  C4  IDS B   2      67.991  12.360  16.4720  0.00  0.00     0.000 C
ATOM     28  C5  IDS B   2      67.157  13.476  17.1310  0.00  0.00     0.000 C
ATOM     29  O5  IDS B   2      65.919  12.971  17.6070  0.00  0.00     0.000 O
ATOM     30   O  IDS B   2      67.756  10.471  15.0470  0.00  0.00     0.000 O
ATOM     32  HD  IDS B   2      68.119  10.976  14.4440  0.00  0.00     0.000 HD
BRANCH 25 32
ATOM     32   O  IDS B   2      64.934  10.435  15.2430  0.00  0.00     0.000 O
ATOM     33   S  IDS B   2      64.397  10.099  13.7190  0.00  0.00     0.000 S
ATOM     34   O  IDS B   2      63.489   8.971  13.8480  0.00  0.00     0.000 OA
ATOM     35   O  IDS B   2      63.718  11.268  13.1770  0.00  0.00     0.000 OA
ATOM     36   O  IDS B   2      65.574   9.744  12.9600  0.00  0.00     0.000 OA
ENDBRANCH 25 32
BRANCH 28 37
ATOM     37   C  IDS B   2      67.814  14.294  18.2620  0.00  0.00     0.000 C
ATOM     38   O  IDS B   2      68.585  15.128  17.8490  0.00  0.00     0.000 OA
ATOM     39   O  IDS B   2      67.576  14.210  19.4920  0.00  0.00     0.000 OA
ENDBRANCH 28 37
BRANCH 24 40
ATOM     40  O4  SUS B   3      63.824  13.125  16.2640  0.00  0.00     0.000 O
BRANCH 40 44
ATOM     41  C1  SUS B   3      60.608  14.057  18.7820  0.00  0.00     0.000 C
ATOM     42  C2  SUS B   3      61.659  15.160  18.5430  0.00  0.00     0.000 C
ATOM     43  C3  SUS B   3      62.450  14.835  17.2770  0.00  0.00     0.000 C
ATOM     44  C4  SUS B   3      63.037  13.439  17.4080  0.00  0.00     0.000 C
ATOM     45  C5  SUS B   3      61.905  12.442  17.5450  0.00  0.00     0.000 C
ATOM     46  O5  SUS B   3      61.181  12.745  18.7540  0.00  0.00     0.000 O
BRANCH 42 49
ATOM     47   N  SUS B   3      61.096  16.520  18.4880  0.00  0.00     0.000 N
ATOM     49  HD  SUS B   3      61.352  17.018  17.8270  0.00  0.00     0.000 HD
ATOM     49   S  SUS B   3      61.324  17.338  19.8460  0.00  0.00     0.000 S
ATOM     50   O  SUS B   3      62.701  17.407  20.1390  0.00  0.00     0.000 OA
ATOM     51   O  SUS B   3      60.808  18.702  19.3220  0.00  0.00     0.000 OA
ATOM     52   O  SUS B   3      60.468  16.832  20.8450  0.00  0.00     0.000 OA
ENDBRANCH 42 49
BRANCH 43 53
ATOM     53   O  SUS B   3      63.535  15.827  17.1520  0.00  0.00     0.000 O
ATOM     54   S  SUS B   3      63.484  16.836  15.8560  0.00  0.00     0.000 S
ATOM     55   O  SUS B   3      62.384  17.766  16.0700  0.00  0.00     0.000 OA
ATOM     56   O  SUS B   3      64.792  17.467  15.8480  0.00  0.00     0.000 OA
ATOM     57   O  SUS B   3      63.243  15.991  14.6820  0.00  0.00     0.000 OA
ENDBRANCH 43 53
BRANCH 45 58
ATOM     58   C  SUS B   3      62.408  11.015  17.5800  0.00  0.00     0.000 C
ATOM     59   S  SUS B   3      61.770   8.653  18.3540  0.00  0.00     0.000 S
ATOM     60   O  SUS B   3      61.359  10.151  18.0470  0.00  0.00     0.000 O
ATOM     61   O  SUS B   3      62.439   8.699  19.6410  0.00  0.00     0.000 OA
ATOM     62   O  SUS B   3      60.476   8.029  18.4230  0.00  0.00     0.000 OA
ATOM     63   O  SUS B   3      62.582   8.250  17.2610  0.00  0.00     0.000 OA
ENDBRANCH 45 58
BRANCH 41 64
ATOM     64  O4  IDS B   4      59.479  14.193  18.0120  0.00  0.00     0.000 O
BRANCH 64 68
ATOM     65  C1  IDS B   4      55.885  14.345  17.4350  0.00  0.00     0.000 C
ATOM     66  C2  IDS B   4      56.484  14.914  18.7270  0.00  0.00     0.000 C
ATOM     67  C3  IDS B   4      57.492  14.002  19.4060  0.00  0.00     0.000 C
ATOM     68  C4  IDS B   4      58.414  13.307  18.4230  0.00  0.00     0.000 C
ATOM     69  C5  IDS B   4      57.565  12.789  17.2550  0.00  0.00     0.000 C
ATOM     70  O5  IDS B   4      56.939  13.896  16.6020  0.00  0.00     0.000 O
ATOM     71   O  IDS B   4      56.761  13.040  20.1380  0.00  0.00     0.000 O
ATOM     73  HD  IDS B   4      56.875  13.785  19.7120  0.00  0.00     0.000 HD
BRANCH 66 73
ATOM     73   O  IDS B   4      57.223  16.143  18.4040  0.00  0.00     0.000 O
ATOM     74   S  IDS B   4      56.755  17.518  19.1170  0.00  0.00     0.000 S
ATOM     75   O  IDS B   4      55.356  17.693  18.7910  0.00  0.00     0.000 OA
ATOM     76   O  IDS B   4      57.627  18.484  18.4970  0.00  0.00     0.000 OA
ATOM     77   O  IDS B   4      56.993  17.322  20.5270  0.00  0.00     0.000 OA
ENDBRANCH 66 73
BRANCH 69 78
ATOM     78   C  IDS B   4      58.309  11.877  16.2900  0.00  0.00     0.000 C
ATOM     79   O  IDS B   4      58.031  10.678  16.2770  0.00  0.00     0.000 OA
ATOM     80   O  IDS B   4      59.098  12.389  15.4750  0.00  0.00     0.000 OA
ENDBRANCH 69 78
BRANCH 65 81
ATOM     81  O4  SGN B   5      54.919  13.436  17.7460  0.00  0.00     0.000 O
BRANCH 81 85
ATOM     82  C1  SGN B   5      51.176  11.954  16.5500  0.00  0.00     0.000 C
ATOM     83  C2  SGN B   5      52.409  11.414  15.8100  0.00  0.00     0.000 C
ATOM     84  C3  SGN B   5      53.668  11.680  16.6480  0.00  0.00     0.000 C
ATOM     85  C4  SGN B   5      53.759  13.164  16.9570  0.00  0.00     0.000 C
ATOM     86  C5  SGN B   5      52.496  13.575  17.7090  0.00  0.00     0.000 C
ATOM     87  O5  SGN B   5      51.354  13.321  16.8680  0.00  0.00     0.000 O
ATOM     88   O  SGN B   5      54.811  11.238  15.9490  0.00  0.00     0.000 O
ATOM     90  HD  SGN B   5      54.425  10.815  16.5990  0.00  0.00     0.000 HD
BRANCH 83 92
ATOM     90   N  SGN B   5      51.333  10.866  14.9610  0.00  0.00     0.000 N
ATOM     92  HD  SGN B   5      50.885  11.501  14.5800  0.00  0.00     0.000 HD
ATOM     92   S  SGN B   5      51.680   9.622  14.0190  0.00  0.00     0.000 S
ATOM     93   O  SGN B   5      50.453   9.342  13.3360  0.00  0.00     0.000 OA
ATOM     94   O  SGN B   5      52.834  10.007  13.2810  0.00  0.00     0.000 OA
ATOM     95   O  SGN B   5      52.097   8.523  14.9710  0.00  0.00     0.000 OA
ENDBRANCH 83 92
BRANCH 86 96
ATOM     96   C  SGN B   5      52.454  15.039  18.0960  0.00  0.00     0.000 C
ATOM     97   O  SGN B   5      51.132  15.561  17.9420  0.00  0.00     0.000 O
ATOM     98   S  SGN B   5      50.532  16.348  19.2050  0.00  0.00     0.000 S
ATOM     99   O  SGN B   5      49.312  16.911  18.6780  0.00  0.00     0.000 OA
ATOM    100   O  SGN B   5      50.347  15.403  20.2470  0.00  0.00     0.000 OA
ATOM    101   O  SGN B   5      51.520  17.330  19.5130  0.00  0.00     0.000 OA
ENDBRANCH 86 96
BRANCH 82 102
ATOM    102  O4  IDS B   6      50.884  11.239  17.6740  0.00  0.00     0.000 O
BRANCH 102 106
ATOM    103  C1  IDS B   6      48.095   9.867  19.5700  0.00  0.00     0.000 C
ATOM    104  C2  IDS B   6      47.910  10.311  18.1100  0.00  0.00     0.000 C
ATOM    105  C3  IDS B   6      48.489  11.672  17.7740  0.00  0.00     0.000 C
ATOM    106  C4  IDS B   6      49.840  11.911  18.4240  0.00  0.00     0.000 C
ATOM    107  C5  IDS B   6      49.810  11.419  19.8740  0.00  0.00     0.000 C
ATOM    108  O5  IDS B   6      49.443  10.042  19.9630  0.00  0.00     0.000 O
ATOM    109   O  IDS B   6      47.555  12.660  18.1740  0.00  0.00     0.000 O
ATOM    111  HD  IDS B   6      47.081  12.265  18.7810  0.00  0.00     0.000 HD
BRANCH 104 111
ATOM    111   O  IDS B   6      48.608   9.363  17.2290  0.00  0.00     0.000 O
ATOM    112   S  IDS B   6      47.756   8.622  16.0940  0.00  0.00     0.000 S
ATOM    113   O  IDS B   6      46.712   7.917  16.8210  0.00  0.00     0.000 OA
ATOM    114   O  IDS B   6      47.269   9.631  15.1460  0.00  0.00     0.000 OA
ATOM    115   O  IDS B   6      48.785   7.757  15.5570  0.00  0.00     0.000 OA
ENDBRANCH 104 111
BRANCH 107 116
ATOM    116   C  IDS B   6      51.180  11.630  20.5070  0.00  0.00     0.000 C
ATOM    117   O  IDS B   6      51.252  12.457  21.3800  0.00  0.00     0.000 OA
ATOM    118   O  IDS B   6      52.155  10.997  20.1360  0.00  0.00     0.000 OA
ENDBRANCH 107 116
BRANCH 103 119
ATOM    119  O4  SGN B   7      47.082  10.490  20.2250  0.00  0.00     0.000 O
BRANCH 119 123
ATOM    120  C1  SGN B   7      44.544   9.604  23.4290  0.00  0.00     0.000 C
ATOM    121  C2  SGN B   7      45.982  10.046  23.7590  0.00  0.00     0.000 C
ATOM    122  C3  SGN B   7      46.635  10.708  22.5390  0.00  0.00     0.000 C
ATOM    123  C4  SGN B   7      46.536   9.781  21.3380  0.00  0.00     0.000 C
ATOM    124  C5  SGN B   7      45.068   9.393  21.0970  0.00  0.00     0.000 C
ATOM    125  O5  SGN B   7      44.495   8.774  22.2700  0.00  0.00     0.000 O
ATOM    126   O  SGN B   7      47.998  11.016  22.8500  0.00  0.00     0.000 O
ATOM    128  HD  SGN B   7      47.220  10.759  23.1290  0.00  0.00     0.000 HD
BRANCH 121 130
ATOM    128   N  SGN B   7      46.355  10.936  24.8620  0.00  0.00     0.000 N
ATOM    130  HD  SGN B   7      45.524  11.003  25.0980  0.00  0.00     0.000 HD
ATOM    130   S  SGN B   7      46.329  10.457  26.3990  0.00  0.00     0.000 S
ATOM    131   O  SGN B   7      47.056   9.234  26.4200  0.00  0.00     0.000 OA
ATOM    132   O  SGN B   7      46.734  11.546  27.2130  0.00  0.00     0.000 OA
ATOM    133   O  SGN B   7      44.785  10.342  26.6320  0.00  0.00     0.000 OA
ENDBRANCH 121 130
BRANCH 124 134
ATOM    134   C  SGN B   7      44.879   8.386  20.0010  0.00  0.00     0.000 C
ATOM    135   O  SGN B   7      44.318   7.191  20.5690  0.00  0.00     0.000 O
ATOM    136   S  SGN B   7      43.900   6.064  19.5580  0.00  0.00     0.000 S
ATOM    137   O  SGN B   7      43.468   4.941  20.3560  0.00  0.00     0.000 OA
ATOM    138   O  SGN B   7      45.091   5.785  18.7880  0.00  0.00     0.000 OA
ATOM    139   O  SGN B   7      42.831   6.701  18.8040  0.00  0.00     0.000 OA
ENDBRANCH 124 134
BRANCH 120 140
ATOM    140  O4  IDS B   8      43.482  10.377  23.1770  0.00  0.00     0.000 O
BRANCH 140 144
ATOM    141  C1  IDS B   8      41.610  13.158  21.8640  0.00  0.00     0.000 C
ATOM    142  C2  IDS B   8      43.057  13.350  22.4020  0.00  0.00     0.000 C
ATOM    143  C3  IDS B   8      43.277  12.709  23.7840  0.00  0.00     0.000 C
ATOM    144  C4  IDS B   8      42.655  11.316  23.8750  0.00  0.00     0.000 C
ATOM    145  C5  IDS B   8      41.242  11.326  23.2730  0.00  0.00     0.000 C
ATOM    146  O5  IDS B   8      41.249  11.784  21.9220  0.00  0.00     0.000 O
BRANCH 142 147
ATOM    147   O  IDS B   8      44.022  12.718  21.4650  0.00  0.00     0.000 O
ATOM    148   S  IDS B   8      44.859  13.610  20.3990  0.00  0.00     0.000 S
ATOM    149   O  IDS B   8      44.210  14.898  20.3000  0.00  0.00     0.000 OA
ATOM    150   O  IDS B   8      46.203  13.697  20.9380  0.00  0.00     0.000 OA
ATOM    151   O  IDS B   8      44.793  12.873  19.1510  0.00  0.00     0.000 OA
ENDBRANCH 142 147
BRANCH 145 152
ATOM    152   C  IDS B   8      40.611   9.949  23.2440  0.00  0.00     0.000 C
ATOM    153   O  IDS B   8      41.013   9.084  24.0130  0.00  0.00     0.000 OA
ATOM    154   O  IDS B   8      39.697   9.722  22.4710  0.00  0.00     0.000 OA
ENDBRANCH 145 152
ENDBRANCH 140 144
ENDBRANCH 120 140
ENDBRANCH 119 123
ENDBRANCH 103 119
ENDBRANCH 102 106
ENDBRANCH 82 102
ENDBRANCH 81 85
ENDBRANCH 65 81
ENDBRANCH 64 68
ENDBRANCH 41 64
ENDBRANCH 40 44
ENDBRANCH 24 40
ENDBRANCH 23 27
ENDBRANCH 1 23
TORSDOF 31
ENDMDL
MODEL 31
REMARK VINA RESULT:      -4.0     15.476     24.701
ROOT
ATOM      1  C1  SGN B   1      50.151  27.870  25.6190  0.00  0.00     0.000 C
ATOM      2  C2  SGN B   1      50.775  29.077  24.9000  0.00  0.00     0.000 C
ATOM      3  C3  SGN B   1      50.149  29.265  23.5130  0.00  0.00     0.000 C
ATOM      4  C4  SGN B   1      50.282  27.984  22.6970  0.00  0.00     0.000 C
ATOM      5  C5  SGN B   1      49.775  26.808  23.5280  0.00  0.00     0.000 C
ATOM      6  O5  SGN B   1      50.478  26.767  24.7850  0.00  0.00     0.000 O
ATOM      7   O  SGN B   1      50.759  30.356  22.8330  0.00  0.00     0.000 O
ATOM      9  HD  SGN B   1      51.432  29.823  22.9500  0.00  0.00     0.000 HD
ATOM      9   O  SGN B   1      49.526  28.103  21.5060  0.00  0.00     0.000 O
ATOM     11  HD  SGN B   1      50.199  27.570  21.6230  0.00  0.00     0.000 HD
ENDROOT
BRANCH 2 13
ATOM     11   N  SGN B   1      51.754  29.609  25.8660  0.00  0.00     0.000 N
ATOM     13  HD  SGN B   1      50.942  29.438  26.1120  0.00  0.00     0.000 HD
ATOM     13   S  SGN B   1      51.316  30.501  27.1310  0.00  0.00     0.000 S
ATOM     14   O  SGN B   1      49.912  30.627  27.1740  0.00  0.00     0.000 OA
ATOM     15   O  SGN B   1      52.012  30.026  28.2800  0.00  0.00     0.000 OA
ATOM     16   O  SGN B   1      51.993  31.840  26.7050  0.00  0.00     0.000 OA
ENDBRANCH 2 13
BRANCH 5 17
ATOM     17   C  SGN B   1      49.957  25.464  22.8670  0.00  0.00     0.000 C
ATOM     18   O  SGN B   1      51.214  25.403  22.1640  0.00  0.00     0.000 O
ATOM     19   S  SGN B   1      51.165  24.777  20.6930  0.00  0.00     0.000 S
ATOM     20   O  SGN B   1      52.551  24.613  20.3090  0.00  0.00     0.000 OA
ATOM     21   O  SGN B   1      50.461  23.528  20.8650  0.00  0.00     0.000 OA
ATOM     22   O  SGN B   1      50.453  25.749  19.8930  0.00  0.00     0.000 OA
ENDBRANCH 5 17
BRANCH 1 23
ATOM     23  O4  IDS B   2      49.117  27.558  26.4510  0.00  0.00     0.000 O
BRANCH 23 27
ATOM     24  C1  IDS B   2      45.570  26.832  24.4210  0.00  0.00     0.000 C
ATOM     25  C2  IDS B   2      45.777  28.285  24.9040  0.00  0.00     0.000 C
ATOM     26  C3  IDS B   2      47.215  28.508  25.3630  0.00  0.00     0.000 C
ATOM     27  C4  IDS B   2      47.675  27.517  26.4240  0.00  0.00     0.000 C
ATOM     28  C5  IDS B   2      47.083  26.122  26.1340  0.00  0.00     0.000 C
ATOM     29  O5  IDS B   2      46.690  26.010  24.7740  0.00  0.00     0.000 O
ATOM     30   O  IDS B   2      47.333  29.813  25.9160  0.00  0.00     0.000 O
ATOM     32  HD  IDS B   2      47.034  29.870  26.7270  0.00  0.00     0.000 HD
BRANCH 25 32
ATOM     32   O  IDS B   2      45.487  29.277  23.8400  0.00  0.00     0.000 O
ATOM     33   S  IDS B   2      44.277  30.389  23.9920  0.00  0.00     0.000 S
ATOM     34   O  IDS B   2      44.146  31.025  22.6910  0.00  0.00     0.000 OA
ATOM     35   O  IDS B   2      43.046  29.716  24.3820  0.00  0.00     0.000 OA
ATOM     36   O  IDS B   2      44.733  31.327  24.9920  0.00  0.00     0.000 OA
ENDBRANCH 25 32
BRANCH 28 37
ATOM     37   C  IDS B   2      47.934  24.888  26.4970  0.00  0.00     0.000 C
ATOM     38   O  IDS B   2      48.019  24.713  27.6900  0.00  0.00     0.000 OA
ATOM     39   O  IDS B   2      48.455  24.070  25.7010  0.00  0.00     0.000 OA
ENDBRANCH 28 37
BRANCH 24 40
ATOM     40  O4  SUS B   3      44.344  26.419  24.0370  0.00  0.00     0.000 O
BRANCH 40 44
ATOM     41  C1  SUS B   3      43.207  23.673  21.0850  0.00  0.00     0.000 C
ATOM     42  C2  SUS B   3      43.892  23.109  22.3460  0.00  0.00     0.000 C
ATOM     43  C3  SUS B   3      43.793  24.134  23.4730  0.00  0.00     0.000 C
ATOM     44  C4  SUS B   3      44.375  25.454  22.9910  0.00  0.00     0.000 C
ATOM     45  C5  SUS B   3      43.562  25.946  21.8120  0.00  0.00     0.000 C
ATOM     46  O5  SUS B   3      43.682  24.981  20.7470  0.00  0.00     0.000 O
BRANCH 42 49
ATOM     47   N  SUS B   3      43.304  21.783  22.6040  0.00  0.00     0.000 N
ATOM     49  HD  SUS B   3      42.940  21.666  23.3810  0.00  0.00     0.000 HD
ATOM     49   S  SUS B   3      44.341  20.588  22.3530  0.00  0.00     0.000 S
ATOM     50   O  SUS B   3      45.481  20.766  23.1620  0.00  0.00     0.000 OA
ATOM     51   O  SUS B   3      43.445  19.453  22.9130  0.00  0.00     0.000 OA
ATOM     52   O  SUS B   3      44.541  20.427  20.9680  0.00  0.00     0.000 OA
ENDBRANCH 42 49
BRANCH 43 53
ATOM     53   O  SUS B   3      44.575  23.629  24.6180  0.00  0.00     0.000 O
ATOM     54   S  SUS B   3      43.742  23.224  25.9760  0.00  0.00     0.000 S
ATOM     55   O  SUS B   3      43.000  22.005  25.6850  0.00  0.00     0.000 OA
ATOM     56   O  SUS B   3      44.773  23.055  26.9840  0.00  0.00     0.000 OA
ATOM     57   O  SUS B   3      42.837  24.343  26.2560  0.00  0.00     0.000 OA
ENDBRANCH 43 53
BRANCH 45 58
ATOM     58   C  SUS B   3      44.020  27.308  21.3370  0.00  0.00     0.000 C
ATOM     59   S  SUS B   3      45.805  28.466  19.9020  0.00  0.00     0.000 S
ATOM     60   O  SUS B   3      45.055  27.146  20.3520  0.00  0.00     0.000 O
ATOM     61   O  SUS B   3      46.735  28.759  20.9750  0.00  0.00     0.000 OA
ATOM     62   O  SUS B   3      46.461  28.006  18.7070  0.00  0.00     0.000 OA
ATOM     63   O  SUS B   3      44.784  29.433  19.7010  0.00  0.00     0.000 OA
ENDBRANCH 45 58
BRANCH 41 64
ATOM     64  O4  IDS B   4      41.838  23.559  21.1010  0.00  0.00     0.000 O
BRANCH 64 68
ATOM     65  C1  IDS B   4      38.469  22.712  20.0040  0.00  0.00     0.000 C
ATOM     66  C2  IDS B   4      39.547  21.625  20.0970  0.00  0.00     0.000 C
ATOM     67  C3  IDS B   4      40.882  22.011  19.4840  0.00  0.00     0.000 C
ATOM     68  C4  IDS B   4      41.273  23.447  19.7770  0.00  0.00     0.000 C
ATOM     69  C5  IDS B   4      40.036  24.331  19.5630  0.00  0.00     0.000 C
ATOM     70  O5  IDS B   4      39.010  23.933  20.4750  0.00  0.00     0.000 O
ATOM     71   O  IDS B   4      40.773  21.821  18.0880  0.00  0.00     0.000 O
ATOM     73  HD  IDS B   4      40.545  21.718  18.9170  0.00  0.00     0.000 HD
BRANCH 66 73
ATOM     73   O  IDS B   4      39.830  21.359  21.5150  0.00  0.00     0.000 O
ATOM     74   S  IDS B   4      39.642  19.846  22.0550  0.00  0.00     0.000 S
ATOM     75   O  IDS B   4      38.277  19.470  21.7530  0.00  0.00     0.000 OA
ATOM     76   O  IDS B   4      39.910  19.999  23.4630  0.00  0.00     0.000 OA
ATOM     77   O  IDS B   4      40.621  19.059  21.3450  0.00  0.00     0.000 OA
ENDBRANCH 66 73
BRANCH 69 78
ATOM     78   C  IDS B   4      40.317  25.827  19.6040  0.00  0.00     0.000 C
ATOM     79   O  IDS B   4      40.467  26.429  18.5420  0.00  0.00     0.000 OA
ATOM     80   O  IDS B   4      40.280  26.410  20.7030  0.00  0.00     0.000 OA
ENDBRANCH 69 78
BRANCH 65 81
ATOM     81  O4  SGN B   5      37.940  22.719  18.7490  0.00  0.00     0.000 O
BRANCH 81 85
ATOM     82  C1  SGN B   5      34.517  23.873  16.6070  0.00  0.00     0.000 C
ATOM     83  C2  SGN B   5      35.703  24.850  16.6060  0.00  0.00     0.000 C
ATOM     84  C3  SGN B   5      36.982  24.104  17.0110  0.00  0.00     0.000 C
ATOM     85  C4  SGN B   5      36.765  23.430  18.3540  0.00  0.00     0.000 C
ATOM     86  C5  SGN B   5      35.583  22.473  18.2240  0.00  0.00     0.000 C
ATOM     87  O5  SGN B   5      34.412  23.230  17.8630  0.00  0.00     0.000 O
ATOM     88   O  SGN B   5      38.066  25.006  17.0680  0.00  0.00     0.000 O
ATOM     90  HD  SGN B   5      37.906  24.453  16.4210  0.00  0.00     0.000 HD
BRANCH 83 92
ATOM     90   N  SGN B   5      35.315  25.381  15.2850  0.00  0.00     0.000 N
ATOM     92  HD  SGN B   5      34.682  24.907  14.9330  0.00  0.00     0.000 HD
ATOM     92   S  SGN B   5      35.138  26.963  15.1340  0.00  0.00     0.000 S
ATOM     93   O  SGN B   5      34.761  27.148  13.7650  0.00  0.00     0.000 OA
ATOM     94   O  SGN B   5      34.253  27.353  16.1770  0.00  0.00     0.000 OA
ATOM     95   O  SGN B   5      36.501  27.535  15.4600  0.00  0.00     0.000 OA
ENDBRANCH 83 92
BRANCH 86 96
ATOM     96   C  SGN B   5      35.255  21.715  19.4940  0.00  0.00     0.000 C
ATOM     97   O  SGN B   5      34.696  22.594  20.4730  0.00  0.00     0.000 O
ATOM     98   S  SGN B   5      33.320  22.118  21.1460  0.00  0.00     0.000 S
ATOM     99   O  SGN B   5      33.132  23.084  22.2020  0.00  0.00     0.000 OA
ATOM    100   O  SGN B   5      32.322  22.142  20.1380  0.00  0.00     0.000 OA
ATOM    101   O  SGN B   5      33.596  20.803  21.6250  0.00  0.00     0.000 OA
ENDBRANCH 86 96
BRANCH 82 102
ATOM    102  O4  IDS B   6      34.596  22.951  15.6060  0.00  0.00     0.000 O
BRANCH 102 106
ATOM    103  C1  IDS B   6      33.549  21.072  12.6690  0.00  0.00     0.000 C
ATOM    104  C2  IDS B   6      33.676  22.602  12.6180  0.00  0.00     0.000 C
ATOM    105  C3  IDS B   6      33.035  23.339  13.7780  0.00  0.00     0.000 C
ATOM    106  C4  IDS B   6      33.267  22.650  15.1110  0.00  0.00     0.000 C
ATOM    107  C5  IDS B   6      33.075  21.138  14.9520  0.00  0.00     0.000 C
ATOM    108  O5  IDS B   6      33.930  20.595  13.9450  0.00  0.00     0.000 O
ATOM    109   O  IDS B   6      31.647  23.462  13.5100  0.00  0.00     0.000 O
ATOM    111  HD  IDS B   6      31.486  22.821  12.9510  0.00  0.00     0.000 HD
BRANCH 104 111
ATOM    111   O  IDS B   6      35.100  22.967  12.6660  0.00  0.00     0.000 O
ATOM    112   S  IDS B   6      35.721  23.744  11.4120  0.00  0.00     0.000 S
ATOM    113   O  IDS B   6      35.494  22.857  10.2820  0.00  0.00     0.000 OA
ATOM    114   O  IDS B   6      35.065  25.053  11.3050  0.00  0.00     0.000 OA
ATOM    115   O  IDS B   6      37.102  23.811  11.8380  0.00  0.00     0.000 OA
ENDBRANCH 104 111
BRANCH 107 116
ATOM    116   C  IDS B   6      33.345  20.453  16.2850  0.00  0.00     0.000 C
ATOM    117   O  IDS B   6      32.514  20.595  17.1460  0.00  0.00     0.000 OA
ATOM    118   O  IDS B   6      34.361  19.801  16.4700  0.00  0.00     0.000 OA
ENDBRANCH 107 116
BRANCH 103 119
ATOM    119  O4  SGN B   7      32.310  20.835  12.1670  0.00  0.00     0.000 O
BRANCH 119 123
ATOM    120  C1  SGN B   7      30.530  17.939   9.7320  0.00  0.00     0.000 C
ATOM    121  C2  SGN B   7      30.724  17.597  11.2210  0.00  0.00     0.000 C
ATOM    122  C3  SGN B   7      31.000  18.869  12.0330  0.00  0.00     0.000 C
ATOM    123  C4  SGN B   7      32.165  19.628  11.4190  0.00  0.00     0.000 C
ATOM    124  C5  SGN B   7      31.878  19.914   9.9360  0.00  0.00     0.000 C
ATOM    125  O5  SGN B   7      31.625  18.689   9.2110  0.00  0.00     0.000 O
ATOM    126   O  SGN B   7      31.272  18.505  13.3910  0.00  0.00     0.000 O
ATOM    128  HD  SGN B   7      30.997  18.264  12.6060  0.00  0.00     0.000 HD
BRANCH 121 130
ATOM    128   N  SGN B   7      29.895  16.449  10.8450  0.00  0.00     0.000 N
ATOM    130  HD  SGN B   7      30.589  15.931  10.8680  0.00  0.00     0.000 HD
ATOM    130   S  SGN B   7      29.504  15.291  11.8940  0.00  0.00     0.000 S
ATOM    131   O  SGN B   7      28.995  15.977  13.0320  0.00  0.00     0.000 OA
ATOM    132   O  SGN B   7      28.708  14.329  11.2200  0.00  0.00     0.000 OA
ATOM    133   O  SGN B   7      30.895  14.595  12.0760  0.00  0.00     0.000 OA
ENDBRANCH 121 130
BRANCH 124 134
ATOM    134   C  SGN B   7      33.022  20.559   9.2100  0.00  0.00     0.000 C
ATOM    135   O  SGN B   7      33.344  19.760   8.0600  0.00  0.00     0.000 O
ATOM    136   S  SGN B   7      34.419  20.348   7.0770  0.00  0.00     0.000 S
ATOM    137   O  SGN B   7      34.649  19.337   6.0730  0.00  0.00     0.000 OA
ATOM    138   O  SGN B   7      35.582  20.603   7.8980  0.00  0.00     0.000 OA
ATOM    139   O  SGN B   7      33.762  21.545   6.5740  0.00  0.00     0.000 OA
ENDBRANCH 124 134
BRANCH 120 140
ATOM    140  O4  IDS B   8      29.524  18.617   9.1670  0.00  0.00     0.000 O
BRANCH 140 144
ATOM    141  C1  IDS B   8      26.509  19.752   7.5600  0.00  0.00     0.000 C
ATOM    142  C2  IDS B   8      27.905  20.226   7.0660  0.00  0.00     0.000 C
ATOM    143  C3  IDS B   8      28.813  20.720   8.2070  0.00  0.00     0.000 C
ATOM    144  C4  IDS B   8      28.757  19.799   9.4250  0.00  0.00     0.000 C
ATOM    145  C5  IDS B   8      27.300  19.424   9.7380  0.00  0.00     0.000 C
ATOM    146  O5  IDS B   8      26.661  18.814   8.6190  0.00  0.00     0.000 O
BRANCH 142 147
ATOM    147   O  IDS B   8      28.607  19.095   6.4040  0.00  0.00     0.000 O
ATOM    148   S  IDS B   8      28.699  18.999   4.7880  0.00  0.00     0.000 S
ATOM    149   O  IDS B   8      27.710  19.899   4.2390  0.00  0.00     0.000 OA
ATOM    150   O  IDS B   8      30.057  19.386   4.4530  0.00  0.00     0.000 OA
ATOM    151   O  IDS B   8      28.407  17.614   4.4700  0.00  0.00     0.000 OA
ENDBRANCH 142 147
BRANCH 145 152
ATOM    152   C  IDS B   8      27.185  18.431  10.8770  0.00  0.00     0.000 C
ATOM    153   O  IDS B   8      27.424  18.796  12.0230  0.00  0.00     0.000 OA
ATOM    154   O  IDS B   8      26.837  17.288  10.6450  0.00  0.00     0.000 OA
ENDBRANCH 145 152
ENDBRANCH 140 144
ENDBRANCH 120 140
ENDBRANCH 119 123
ENDBRANCH 103 119
ENDBRANCH 102 106
ENDBRANCH 82 102
ENDBRANCH 81 85
ENDBRANCH 65 81
ENDBRANCH 64 68
ENDBRANCH 41 64
ENDBRANCH 40 44
ENDBRANCH 24 40
ENDBRANCH 23 27
ENDBRANCH 1 23
TORSDOF 31
ENDMDL
MODEL 32
REMARK VINA RESULT:      -4.0     42.471     53.183
ROOT
ATOM      1  C1  SGN B   1      80.642  11.418  28.9520  0.00  0.00     0.000 C
ATOM      2  C2  SGN B   1      81.834  11.978  29.7450  0.00  0.00     0.000 C
ATOM      3  C3  SGN B   1      82.920  10.910  29.9180  0.00  0.00     0.000 C
ATOM      4  C4  SGN B   1      82.333   9.665  30.5740  0.00  0.00     0.000 C
ATOM      5  C5  SGN B   1      81.073   9.249  29.8180  0.00  0.00     0.000 C
ATOM      6  O5  SGN B   1      80.156  10.359  29.7650  0.00  0.00     0.000 O
ATOM      7   O  SGN B   1      84.002  11.418  30.6900  0.00  0.00     0.000 O
ATOM      9  HD  SGN B   1      83.343  11.479  31.2490  0.00  0.00     0.000 HD
ATOM      9   O  SGN B   1      83.289   8.621  30.5410  0.00  0.00     0.000 O
ATOM     11  HD  SGN B   1      82.631   8.681  31.1000  0.00  0.00     0.000 HD
ENDROOT
BRANCH 2 13
ATOM     11   N  SGN B   1      81.353  13.352  29.9830  0.00  0.00     0.000 N
ATOM     13  HD  SGN B   1      81.425  13.045  29.1770  0.00  0.00     0.000 HD
ATOM     13   S  SGN B   1      81.566  14.535  28.9130  0.00  0.00     0.000 S
ATOM     14   O  SGN B   1      82.206  14.036  27.7590  0.00  0.00     0.000 OA
ATOM     15   O  SGN B   1      80.341  15.248  28.7810  0.00  0.00     0.000 OA
ATOM     16   O  SGN B   1      82.529  15.427  29.7550  0.00  0.00     0.000 OA
ENDBRANCH 2 13
BRANCH 5 17
ATOM     17   C  SGN B   1      80.339   8.088  30.4410  0.00  0.00     0.000 C
ATOM     18   O  SGN B   1      80.271   8.230  31.8740  0.00  0.00     0.000 O
ATOM     19   S  SGN B   1      80.608   6.919  32.7250  0.00  0.00     0.000 S
ATOM     20   O  SGN B   1      80.244   7.252  34.0860  0.00  0.00     0.000 OA
ATOM     21   O  SGN B   1      79.776   5.894  32.1390  0.00  0.00     0.000 OA
ATOM     22   O  SGN B   1      82.026   6.703  32.5400  0.00  0.00     0.000 OA
ENDBRANCH 5 17
BRANCH 1 23
ATOM     23  O4  IDS B   2      80.197  11.288  27.6700  0.00  0.00     0.000 O
BRANCH 23 27
ATOM     24  C1  IDS B   2      78.177  11.587  24.0560  0.00  0.00     0.000 C
ATOM     25  C2  IDS B   2      79.550  12.292  24.1130  0.00  0.00     0.000 C
ATOM     26  C3  IDS B   2      80.327  11.875  25.3590  0.00  0.00     0.000 C
ATOM     27  C4  IDS B   2      79.557  12.089  26.6550  0.00  0.00     0.000 C
ATOM     28  C5  IDS B   2      78.064  11.772  26.4390  0.00  0.00     0.000 C
ATOM     29  O5  IDS B   2      77.880  10.942  25.3020  0.00  0.00     0.000 O
ATOM     30   O  IDS B   2      81.526  12.637  25.4400  0.00  0.00     0.000 O
ATOM     32  HD  IDS B   2      81.402  13.436  25.7490  0.00  0.00     0.000 HD
BRANCH 25 32
ATOM     32   O  IDS B   2      80.393  11.978  22.9330  0.00  0.00     0.000 O
ATOM     33   S  IDS B   2      80.925  13.152  21.9040  0.00  0.00     0.000 S
ATOM     34   O  IDS B   2      81.514  12.460  20.7690  0.00  0.00     0.000 OA
ATOM     35   O  IDS B   2      79.801  13.983  21.4950  0.00  0.00     0.000 OA
ATOM     36   O  IDS B   2      81.920  13.895  22.6410  0.00  0.00     0.000 OA
ENDBRANCH 25 32
BRANCH 28 37
ATOM     37   C  IDS B   2      77.280  11.158  27.6180  0.00  0.00     0.000 C
ATOM     38   O  IDS B   2      77.129   9.964  27.5080  0.00  0.00     0.000 OA
ATOM     39   O  IDS B   2      76.872  11.754  28.6450  0.00  0.00     0.000 OA
ENDBRANCH 28 37
BRANCH 24 40
ATOM     40  O4  SUS B   3      77.313  11.878  23.0620  0.00  0.00     0.000 O
BRANCH 40 44
ATOM     41  C1  SUS B   3      74.319   9.538  21.2980  0.00  0.00     0.000 C
ATOM     42  C2  SUS B   3      74.109   9.963  22.7650  0.00  0.00     0.000 C
ATOM     43  C3  SUS B   3      75.005  11.160  23.0750  0.00  0.00     0.000 C
ATOM     44  C4  SUS B   3      76.443  10.799  22.7360  0.00  0.00     0.000 C
ATOM     45  C5  SUS B   3      76.535  10.492  21.2550  0.00  0.00     0.000 C
ATOM     46  O5  SUS B   3      75.702   9.348  20.9800  0.00  0.00     0.000 O
BRANCH 42 49
ATOM     47   N  SUS B   3      73.329   8.746  23.0470  0.00  0.00     0.000 N
ATOM     49  HD  SUS B   3      73.097   8.268  22.3630  0.00  0.00     0.000 HD
ATOM     49   S  SUS B   3      72.016   9.042  23.9160  0.00  0.00     0.000 S
ATOM     50   O  SUS B   3      71.203   9.982  23.2520  0.00  0.00     0.000 OA
ATOM     51   O  SUS B   3      71.406   7.620  23.8100  0.00  0.00     0.000 OA
ATOM     52   O  SUS B   3      72.390   9.325  25.2450  0.00  0.00     0.000 OA
ENDBRANCH 42 49
BRANCH 43 53
ATOM     53   O  SUS B   3      74.888  11.454  24.5170  0.00  0.00     0.000 O
ATOM     54   S  SUS B   3      74.185  12.879  24.9360  0.00  0.00     0.000 S
ATOM     55   O  SUS B   3      72.765  12.770  24.6370  0.00  0.00     0.000 OA
ATOM     56   O  SUS B   3      74.477  13.012  26.3530  0.00  0.00     0.000 OA
ATOM     57   O  SUS B   3      74.823  13.913  24.1160  0.00  0.00     0.000 OA
ENDBRANCH 43 53
BRANCH 45 58
ATOM     58   C  SUS B   3      77.958  10.221  20.8200  0.00  0.00     0.000 C
ATOM     59   S  SUS B   3      79.372   8.669  19.3440  0.00  0.00     0.000 S
ATOM     60   O  SUS B   3      77.957   9.236  19.7730  0.00  0.00     0.000 O
ATOM     61   O  SUS B   3      79.727   7.714  20.3770  0.00  0.00     0.000 OA
ATOM     62   O  SUS B   3      79.040   8.039  18.0950  0.00  0.00     0.000 OA
ATOM     63   O  SUS B   3      80.222   9.802  19.2460  0.00  0.00     0.000 OA
ENDBRANCH 45 58
BRANCH 41 64
ATOM     64  O4  IDS B   4      73.637  10.315  20.3940  0.00  0.00     0.000 O
BRANCH 64 68
ATOM     65  C1  IDS B   4      71.634  11.331  17.5250  0.00  0.00     0.000 C
ATOM     66  C2  IDS B   4      70.952  10.890  18.8260  0.00  0.00     0.000 C
ATOM     67  C3  IDS B   4      71.514   9.614  19.4280  0.00  0.00     0.000 C
ATOM     68  C4  IDS B   4      73.027   9.537  19.3400  0.00  0.00     0.000 C
ATOM     69  C5  IDS B   4      73.446   9.981  17.9320  0.00  0.00     0.000 C
ATOM     70  O5  IDS B   4      73.036  11.334  17.7240  0.00  0.00     0.000 O
ATOM     71   O  IDS B   4      70.939   8.530  18.7280  0.00  0.00     0.000 O
ATOM     73  HD  IDS B   4      71.000   9.352  18.9940  0.00  0.00     0.000 HD
BRANCH 66 73
ATOM     73   O  IDS B   4      71.159  11.929  19.8450  0.00  0.00     0.000 O
ATOM     74   S  IDS B   4      69.855  12.669  20.4500  0.00  0.00     0.000 S
ATOM     75   O  IDS B   4      69.142  13.230  19.3220  0.00  0.00     0.000 OA
ATOM     76   O  IDS B   4      70.449  13.654  21.3180  0.00  0.00     0.000 OA
ATOM     77   O  IDS B   4      69.113  11.640  21.1400  0.00  0.00     0.000 OA
ENDBRANCH 66 73
BRANCH 69 78
ATOM     78   C  IDS B   4      74.916   9.751  17.6110  0.00  0.00     0.000 C
ATOM     79   O  IDS B   4      75.655  10.727  17.4930  0.00  0.00     0.000 OA
ATOM     80   O  IDS B   4      75.345   8.582  17.5850  0.00  0.00     0.000 OA
ENDBRANCH 69 78
BRANCH 65 81
ATOM     81  O4  SGN B   5      71.163  10.582  16.4900  0.00  0.00     0.000 O
BRANCH 81 85
ATOM     82  C1  SGN B   5      70.111  11.014  12.4470  0.00  0.00     0.000 C
ATOM     83  C2  SGN B   5      71.354  10.168  12.7580  0.00  0.00     0.000 C
ATOM     84  C3  SGN B   5      71.325   9.733  14.2290  0.00  0.00     0.000 C
ATOM     85  C4  SGN B   5      71.203  10.963  15.1120  0.00  0.00     0.000 C
ATOM     86  C5  SGN B   5      69.925  11.705  14.7280  0.00  0.00     0.000 C
ATOM     87  O5  SGN B   5      70.020  12.102  13.3470  0.00  0.00     0.000 O
ATOM     88   O  SGN B   5      72.492   9.003  14.5370  0.00  0.00     0.000 O
ATOM     90  HD  SGN B   5      71.712   8.661  14.3840  0.00  0.00     0.000 HD
BRANCH 83 92
ATOM     90   N  SGN B   5      71.537  10.322  11.3010  0.00  0.00     0.000 N
ATOM     92  HD  SGN B   5      71.738  11.139  11.0980  0.00  0.00     0.000 HD
ATOM     92   S  SGN B   5      72.377   9.205  10.5270  0.00  0.00     0.000 S
ATOM     93   O  SGN B   5      72.375   9.641   9.1630  0.00  0.00     0.000 OA
ATOM     94   O  SGN B   5      73.606   9.086  11.2350  0.00  0.00     0.000 OA
ATOM     95   O  SGN B   5      71.605   7.922  10.7450  0.00  0.00     0.000 OA
ENDBRANCH 83 92
BRANCH 86 96
ATOM     96   C  SGN B   5      69.665  12.956  15.5410  0.00  0.00     0.000 C
ATOM     97   O  SGN B   5      69.333  14.051  14.6850  0.00  0.00     0.000 O
ATOM     98   S  SGN B   5      68.002  14.862  15.0600  0.00  0.00     0.000 S
ATOM     99   O  SGN B   5      68.055  15.992  14.1640  0.00  0.00     0.000 OA
ATOM    100   O  SGN B   5      66.900  13.993  14.8520  0.00  0.00     0.000 OA
ATOM    101   O  SGN B   5      68.178  15.219  16.4300  0.00  0.00     0.000 OA
ENDBRANCH 86 96
BRANCH 82 102
ATOM    102  O4  IDS B   6      68.960  10.284  12.4680  0.00  0.00     0.000 O
BRANCH 102 106
ATOM    103  C1  IDS B   6      65.734   9.810  10.8470  0.00  0.00     0.000 C
ATOM    104  C2  IDS B   6      66.878  10.537  10.1230  0.00  0.00     0.000 C
ATOM    105  C3  IDS B   6      67.588  11.597  10.9440  0.00  0.00     0.000 C
ATOM    106  C4  IDS B   6      67.815  11.169  12.3830  0.00  0.00     0.000 C
ATOM    107  C5  IDS B   6      66.556  10.485  12.9240  0.00  0.00     0.000 C
ATOM    108  O5  IDS B   6      66.168   9.370  12.1200  0.00  0.00     0.000 O
ATOM    109   O  IDS B   6      66.819  12.787  10.8870  0.00  0.00     0.000 O
ATOM    111  HD  IDS B   6      66.021  12.511  10.6940  0.00  0.00     0.000 HD
BRANCH 104 111
ATOM    111   O  IDS B   6      67.919   9.559   9.7680  0.00  0.00     0.000 O
ATOM    112   S  IDS B   6      68.325   9.419   8.2260  0.00  0.00     0.000 S
ATOM    113   O  IDS B   6      67.087   9.063   7.5520  0.00  0.00     0.000 OA
ATOM    114   O  IDS B   6      68.921  10.685   7.7860  0.00  0.00     0.000 OA
ATOM    115   O  IDS B   6      69.270   8.328   8.3330  0.00  0.00     0.000 OA
ENDBRANCH 104 111
BRANCH 107 116
ATOM    116   C  IDS B   6      66.807  10.028  14.3560  0.00  0.00     0.000 C
ATOM    117   O  IDS B   6      67.182   8.893  14.5040  0.00  0.00     0.000 OA
ATOM    118   O  IDS B   6      66.625  10.777  15.3030  0.00  0.00     0.000 OA
ENDBRANCH 107 116
BRANCH 103 119
ATOM    119  O4  SGN B   7      64.681  10.656  10.7140  0.00  0.00     0.000 O
BRANCH 119 123
ATOM    120  C1  SGN B   7      60.517  10.304  10.5380  0.00  0.00     0.000 C
ATOM    121  C2  SGN B   7      61.177  10.278  11.9300  0.00  0.00     0.000 C
ATOM    122  C3  SGN B   7      62.613  10.813  11.8540  0.00  0.00     0.000 C
ATOM    123  C4  SGN B   7      63.389  10.053  10.7910  0.00  0.00     0.000 C
ATOM    124  C5  SGN B   7      62.647  10.133   9.4460  0.00  0.00     0.000 C
ATOM    125  O5  SGN B   7      61.302   9.619   9.5630  0.00  0.00     0.000 O
ATOM    126   O  SGN B   7      63.227  10.682  13.1410  0.00  0.00     0.000 O
ATOM    128  HD  SGN B   7      62.506  10.644  12.6630  0.00  0.00     0.000 HD
BRANCH 121 130
ATOM    128   N  SGN B   7      59.928   9.790  12.5190  0.00  0.00     0.000 N
ATOM    130  HD  SGN B   7      60.373   9.365  13.1280  0.00  0.00     0.000 HD
ATOM    130   S  SGN B   7      59.355  10.359  13.9120  0.00  0.00     0.000 S
ATOM    131   O  SGN B   7      59.370  11.775  13.7700  0.00  0.00     0.000 OA
ATOM    132   O  SGN B   7      58.144   9.681  14.2070  0.00  0.00     0.000 OA
ATOM    133   O  SGN B   7      60.399   9.757  14.9120  0.00  0.00     0.000 OA
ENDBRANCH 121 130
BRANCH 124 134
ATOM    134   C  SGN B   7      63.276   9.316   8.3560  0.00  0.00     0.000 C
ATOM    135   O  SGN B   7      62.285   8.419   7.8270  0.00  0.00     0.000 O
ATOM    136   S  SGN B   7      62.703   7.578   6.5670  0.00  0.00     0.000 S
ATOM    137   O  SGN B   7      61.600   6.690   6.2880  0.00  0.00     0.000 OA
ATOM    138   O  SGN B   7      63.905   6.879   6.9610  0.00  0.00     0.000 OA
ATOM    139   O  SGN B   7      62.906   8.606   5.5590  0.00  0.00     0.000 OA
ENDBRANCH 124 134
BRANCH 120 140
ATOM    140  O4  IDS B   8      60.169  11.373   9.8120  0.00  0.00     0.000 O
BRANCH 140 144
ATOM    141  C1  IDS B   8      60.481  14.652   8.3590  0.00  0.00     0.000 C
ATOM    142  C2  IDS B   8      61.006  14.360   9.7940  0.00  0.00     0.000 C
ATOM    143  C3  IDS B   8      59.978  13.624  10.6740  0.00  0.00     0.000 C
ATOM    144  C4  IDS B   8      59.282  12.493   9.9190  0.00  0.00     0.000 C
ATOM    145  C5  IDS B   8      58.862  12.970   8.5210  0.00  0.00     0.000 C
ATOM    146  O5  IDS B   8      59.974  13.458   7.7740  0.00  0.00     0.000 O
BRANCH 142 147
ATOM    147   O  IDS B   8      62.214  13.497   9.7130  0.00  0.00     0.000 O
ATOM    148   S  IDS B   8      63.703  14.131   9.8200  0.00  0.00     0.000 S
ATOM    149   O  IDS B   8      63.589  15.556   9.6010  0.00  0.00     0.000 OA
ATOM    150   O  IDS B   8      64.168  13.804  11.1550  0.00  0.00     0.000 OA
ATOM    151   O  IDS B   8      64.470  13.482   8.7740  0.00  0.00     0.000 OA
ENDBRANCH 142 147
BRANCH 145 152
ATOM    152   C  IDS B   8      58.254  11.861   7.6850  0.00  0.00     0.000 C
ATOM    153   O  IDS B   8      58.721  11.612   6.5790  0.00  0.00     0.000 OA
ATOM    154   O  IDS B   8      57.321  11.216   8.1290  0.00  0.00     0.000 OA
ENDBRANCH 145 152
ENDBRANCH 140 144
ENDBRANCH 120 140
ENDBRANCH 119 123
ENDBRANCH 103 119
ENDBRANCH 102 106
ENDBRANCH 82 102
ENDBRANCH 81 85
ENDBRANCH 65 81
ENDBRANCH 64 68
ENDBRANCH 41 64
ENDBRANCH 40 44
ENDBRANCH 24 40
ENDBRANCH 23 27
ENDBRANCH 1 23
TORSDOF 31
ENDMDL
MODEL 33
REMARK VINA RESULT:      -4.0     13.753     18.322
ROOT
ATOM      1  C1  SGN B   1      45.933  29.640  25.9560  0.00  0.00     0.000 C
ATOM      2  C2  SGN B   1      46.314  31.060  26.4070  0.00  0.00     0.000 C
ATOM      3  C3  SGN B   1      46.571  31.964  25.1960  0.00  0.00     0.000 C
ATOM      4  C4  SGN B   1      47.635  31.346  24.2950  0.00  0.00     0.000 C
ATOM      5  C5  SGN B   1      47.261  29.895  24.0040  0.00  0.00     0.000 C
ATOM      6  O5  SGN B   1      47.077  29.187  25.2450  0.00  0.00     0.000 O
ATOM      7   O  SGN B   1      46.966  33.264  25.6180  0.00  0.00     0.000 O
ATOM      9  HD  SGN B   1      47.598  32.772  25.9480  0.00  0.00     0.000 HD
ATOM      9   O  SGN B   1      47.713  32.082  23.0880  0.00  0.00     0.000 O
ATOM     11  HD  SGN B   1      48.344  31.590  23.4180  0.00  0.00     0.000 HD
ENDROOT
BRANCH 2 13
ATOM     11   N  SGN B   1      46.266  30.968  27.8790  0.00  0.00     0.000 N
ATOM     13  HD  SGN B   1      45.596  30.701  27.3990  0.00  0.00     0.000 HD
ATOM     13   S  SGN B   1      44.883  31.034  28.6990  0.00  0.00     0.000 S
ATOM     14   O  SGN B   1      43.794  31.134  27.8070  0.00  0.00     0.000 OA
ATOM     15   O  SGN B   1      44.892  30.002  29.6800  0.00  0.00     0.000 OA
ATOM     16   O  SGN B   1      45.131  32.381  29.4450  0.00  0.00     0.000 OA
ENDBRANCH 2 13
BRANCH 5 17
ATOM     17   C  SGN B   1      48.298  29.142  23.2070  0.00  0.00     0.000 C
ATOM     18   O  SGN B   1      48.697  27.937  23.8900  0.00  0.00     0.000 O
ATOM     19   S  SGN B   1      50.269  27.648  23.9420  0.00  0.00     0.000 S
ATOM     20   O  SGN B   1      50.386  26.299  24.4550  0.00  0.00     0.000 OA
ATOM     21   O  SGN B   1      50.698  27.784  22.5700  0.00  0.00     0.000 OA
ATOM     22   O  SGN B   1      50.808  28.655  24.8300  0.00  0.00     0.000 OA
ENDBRANCH 5 17
BRANCH 1 23
ATOM     23  O4  IDS B   2      44.837  28.896  25.6350  0.00  0.00     0.000 O
BRANCH 23 27
ATOM     24  C1  IDS B   2      41.680  26.215  25.9180  0.00  0.00     0.000 C
ATOM     25  C2  IDS B   2      42.570  26.332  27.1740  0.00  0.00     0.000 C
ATOM     26  C3  IDS B   2      43.499  27.539  27.0750  0.00  0.00     0.000 C
ATOM     27  C4  IDS B   2      44.348  27.549  25.8110  0.00  0.00     0.000 C
ATOM     28  C5  IDS B   2      43.529  27.008  24.6220  0.00  0.00     0.000 C
ATOM     29  O5  IDS B   2      42.136  27.096  24.8830  0.00  0.00     0.000 O
ATOM     30   O  IDS B   2      44.386  27.540  28.1880  0.00  0.00     0.000 O
ATOM     32  HD  IDS B   2      45.046  26.987  28.0990  0.00  0.00     0.000 HD
BRANCH 25 32
ATOM     32   O  IDS B   2      41.772  26.482  28.4160  0.00  0.00     0.000 O
ATOM     33   S  IDS B   2      41.830  25.365  29.6300  0.00  0.00     0.000 S
ATOM     34   O  IDS B   2      40.770  25.722  30.5590  0.00  0.00     0.000 OA
ATOM     35   O  IDS B   2      41.626  24.035  29.0740  0.00  0.00     0.000 OA
ATOM     36   O  IDS B   2      43.133  25.515  30.2350  0.00  0.00     0.000 OA
ENDBRANCH 25 32
BRANCH 28 37
ATOM     37   C  IDS B   2      43.800  27.609  23.2270  0.00  0.00     0.000 C
ATOM     38   O  IDS B   2      42.936  28.376  22.8720  0.00  0.00     0.000 OA
ATOM     39   O  IDS B   2      44.813  27.426  22.5100  0.00  0.00     0.000 OA
ENDBRANCH 28 37
BRANCH 24 40
ATOM     40  O4  SUS B   3      40.836  25.171  25.7860  0.00  0.00     0.000 O
BRANCH 40 44
ATOM     41  C1  SUS B   3      37.055  24.945  23.9980  0.00  0.00     0.000 C
ATOM     42  C2  SUS B   3      38.265  25.150  23.0650  0.00  0.00     0.000 C
ATOM     43  C3  SUS B   3      39.539  24.732  23.7940  0.00  0.00     0.000 C
ATOM     44  C4  SUS B   3      39.631  25.500  25.1030  0.00  0.00     0.000 C
ATOM     45  C5  SUS B   3      38.437  25.144  25.9650  0.00  0.00     0.000 C
ATOM     46  O5  SUS B   3      37.243  25.564  25.2750  0.00  0.00     0.000 O
BRANCH 42 49
ATOM     47   N  SUS B   3      38.486  26.002  21.8830  0.00  0.00     0.000 N
ATOM     49  HD  SUS B   3      38.298  26.843  21.9710  0.00  0.00     0.000 HD
ATOM     49   S  SUS B   3      37.732  25.457  20.5790  0.00  0.00     0.000 S
ATOM     50   O  SUS B   3      36.350  25.351  20.8330  0.00  0.00     0.000 OA
ATOM     51   O  SUS B   3      38.028  26.681  19.6760  0.00  0.00     0.000 OA
ATOM     52   O  SUS B   3      38.398  24.312  20.0990  0.00  0.00     0.000 OA
ENDBRANCH 42 49
BRANCH 43 53
ATOM     53   O  SUS B   3      40.689  25.071  22.9320  0.00  0.00     0.000 O
ATOM     54   S  SUS B   3      41.683  23.839  22.4900  0.00  0.00     0.000 S
ATOM     55   O  SUS B   3      40.955  23.010  21.5400  0.00  0.00     0.000 OA
ATOM     56   O  SUS B   3      42.839  24.507  21.9200  0.00  0.00     0.000 OA
ATOM     57   O  SUS B   3      41.991  23.095  23.7150  0.00  0.00     0.000 OA
ENDBRANCH 43 53
BRANCH 45 58
ATOM     58   C  SUS B   3      38.509  25.794  27.3300  0.00  0.00     0.000 C
ATOM     59   S  SUS B   3      37.980  27.976  28.5720  0.00  0.00     0.000 S
ATOM     60   O  SUS B   3      37.822  27.056  27.2930  0.00  0.00     0.000 O
ATOM     61   O  SUS B   3      39.294  28.576  28.4480  0.00  0.00     0.000 OA
ATOM     62   O  SUS B   3      36.915  28.919  28.3560  0.00  0.00     0.000 OA
ATOM     63   O  SUS B   3      37.808  27.111  29.6850  0.00  0.00     0.000 OA
ENDBRANCH 45 58
BRANCH 41 64
ATOM     64  O4  IDS B   4      36.620  23.644  24.0620  0.00  0.00     0.000 O
BRANCH 64 68
ATOM     65  C1  IDS B   4      34.245  20.978  23.3350  0.00  0.00     0.000 C
ATOM     66  C2  IDS B   4      34.416  22.148  22.3580  0.00  0.00     0.000 C
ATOM     67  C3  IDS B   4      34.426  23.518  23.0150  0.00  0.00     0.000 C
ATOM     68  C4  IDS B   4      35.202  23.542  24.3180  0.00  0.00     0.000 C
ATOM     69  C5  IDS B   4      34.815  22.296  25.1270  0.00  0.00     0.000 C
ATOM     70  O5  IDS B   4      35.178  21.126  24.3910  0.00  0.00     0.000 O
ATOM     71   O  IDS B   4      33.081  23.878  23.2550  0.00  0.00     0.000 O
ATOM     73  HD  IDS B   4      33.721  23.428  22.8850  0.00  0.00     0.000 HD
BRANCH 66 73
ATOM     73   O  IDS B   4      35.720  22.023  21.6940  0.00  0.00     0.000 O
ATOM     74   S  IDS B   4      35.748  21.454  20.1800  0.00  0.00     0.000 S
ATOM     75   O  IDS B   4      35.096  20.162  20.2160  0.00  0.00     0.000 OA
ATOM     76   O  IDS B   4      37.164  21.389  19.9140  0.00  0.00     0.000 OA
ATOM     77   O  IDS B   4      35.040  22.430  19.3870  0.00  0.00     0.000 OA
ENDBRANCH 66 73
BRANCH 69 78
ATOM     78   C  IDS B   4      35.343  22.284  26.5550  0.00  0.00     0.000 C
ATOM     79   O  IDS B   4      34.539  22.187  27.4820  0.00  0.00     0.000 OA
ATOM     80   O  IDS B   4      36.574  22.267  26.7360  0.00  0.00     0.000 OA
ENDBRANCH 69 78
BRANCH 65 81
ATOM     81  O4  SGN B   5      32.934  20.868  23.6860  0.00  0.00     0.000 O
BRANCH 81 85
ATOM     82  C1  SGN B   5      29.875  18.113  24.5180  0.00  0.00     0.000 C
ATOM     83  C2  SGN B   5      30.943  18.319  25.6030  0.00  0.00     0.000 C
ATOM     84  C3  SGN B   5      31.680  19.642  25.3540  0.00  0.00     0.000 C
ATOM     85  C4  SGN B   5      32.250  19.640  23.9460  0.00  0.00     0.000 C
ATOM     86  C5  SGN B   5      31.099  19.453  22.9620  0.00  0.00     0.000 C
ATOM     87  O5  SGN B   5      30.460  18.191  23.2320  0.00  0.00     0.000 O
ATOM     88   O  SGN B   5      32.700  19.810  26.3130  0.00  0.00     0.000 O
ATOM     90  HD  SGN B   5      31.929  20.203  26.3270  0.00  0.00     0.000 HD
BRANCH 83 92
ATOM     90   N  SGN B   5      30.247  18.204  26.8990  0.00  0.00     0.000 N
ATOM     92  HD  SGN B   5      29.441  18.517  26.8480  0.00  0.00     0.000 HD
ATOM     92   S  SGN B   5      30.392  16.835  27.7110  0.00  0.00     0.000 S
ATOM     93   O  SGN B   5      29.611  17.040  28.8940  0.00  0.00     0.000 OA
ATOM     94   O  SGN B   5      30.042  15.804  26.7950  0.00  0.00     0.000 OA
ATOM     95   O  SGN B   5      31.874  16.708  27.9890  0.00  0.00     0.000 OA
ENDBRANCH 83 92
BRANCH 86 96
ATOM     96   C  SGN B   5      31.521  19.443  21.5070  0.00  0.00     0.000 C
ATOM     97   O  SGN B   5      30.526  20.067  20.6920  0.00  0.00     0.000 O
ATOM     98   S  SGN B   5      31.046  21.206  19.6900  0.00  0.00     0.000 S
ATOM     99   O  SGN B   5      29.879  21.481  18.8870  0.00  0.00     0.000 OA
ATOM    100   O  SGN B   5      31.493  22.296  20.4800  0.00  0.00     0.000 OA
ATOM    101   O  SGN B   5      32.100  20.581  18.9580  0.00  0.00     0.000 OA
ENDBRANCH 86 96
BRANCH 82 102
ATOM    102  O4  IDS B   6      28.843  18.997  24.6240  0.00  0.00     0.000 O
BRANCH 102 106
ATOM    103  C1  IDS B   6      25.214  18.916  24.3330  0.00  0.00     0.000 C
ATOM    104  C2  IDS B   6      26.030  17.614  24.3610  0.00  0.00     0.000 C
ATOM    105  C3  IDS B   6      27.239  17.593  23.4460  0.00  0.00     0.000 C
ATOM    106  C4  IDS B   6      27.998  18.908  23.4480  0.00  0.00     0.000 C
ATOM    107  C5  IDS B   6      27.010  20.077  23.3980  0.00  0.00     0.000 C
ATOM    108  O5  IDS B   6      26.075  20.030  24.4770  0.00  0.00     0.000 O
ATOM    109   O  IDS B   6      26.797  17.269  22.1380  0.00  0.00     0.000 O
ATOM    111  HD  IDS B   6      25.961  17.493  22.1390  0.00  0.00     0.000 HD
BRANCH 104 111
ATOM    111   O  IDS B   6      26.565  17.412  25.7160  0.00  0.00     0.000 O
ATOM    112   S  IDS B   6      26.039  16.153  26.5540  0.00  0.00     0.000 S
ATOM    113   O  IDS B   6      24.598  16.342  26.6320  0.00  0.00     0.000 OA
ATOM    114   O  IDS B   6      26.459  14.928  25.8640  0.00  0.00     0.000 OA
ATOM    115   O  IDS B   6      26.732  16.396  27.8000  0.00  0.00     0.000 OA
ENDBRANCH 104 111
BRANCH 107 116
ATOM    116   C  IDS B   6      27.779  21.391  23.4370  0.00  0.00     0.000 C
ATOM    117   O  IDS B   6      28.460  21.649  22.4760  0.00  0.00     0.000 OA
ATOM    118   O  IDS B   6      27.714  22.137  24.4010  0.00  0.00     0.000 OA
ENDBRANCH 107 116
BRANCH 103 119
ATOM    119  O4  SGN B   7      24.419  18.774  23.2420  0.00  0.00     0.000 O
BRANCH 119 123
ATOM    120  C1  SGN B   7      20.857  20.479  21.8640  0.00  0.00     0.000 C
ATOM    121  C2  SGN B   7      22.172  21.213  21.5390  0.00  0.00     0.000 C
ATOM    122  C3  SGN B   7      23.373  20.282  21.7480  0.00  0.00     0.000 C
ATOM    123  C4  SGN B   7      23.328  19.691  23.1470  0.00  0.00     0.000 C
ATOM    124  C5  SGN B   7      21.979  18.989  23.3750  0.00  0.00     0.000 C
ATOM    125  O5  SGN B   7      20.878  19.902  23.1690  0.00  0.00     0.000 O
ATOM    126   O  SGN B   7      24.580  21.023  21.5330  0.00  0.00     0.000 O
ATOM    128  HD  SGN B   7      23.716  20.991  21.4770  0.00  0.00     0.000 HD
BRANCH 121 130
ATOM    128   N  SGN B   7      21.625  22.544  21.2640  0.00  0.00     0.000 N
ATOM    130  HD  SGN B   7      22.422  22.882  21.2790  0.00  0.00     0.000 HD
ATOM    130   S  SGN B   7      21.788  23.261  19.8320  0.00  0.00     0.000 S
ATOM    131   O  SGN B   7      21.361  22.293  18.8800  0.00  0.00     0.000 OA
ATOM    132   O  SGN B   7      21.159  24.531  19.8940  0.00  0.00     0.000 OA
ATOM    133   O  SGN B   7      23.322  23.578  19.8490  0.00  0.00     0.000 OA
ENDBRANCH 121 130
BRANCH 124 134
ATOM    134   C  SGN B   7      21.792  18.471  24.7700  0.00  0.00     0.000 C
ATOM    135   O  SGN B   7      21.644  19.592  25.6580  0.00  0.00     0.000 O
ATOM    136   S  SGN B   7      21.284  19.260  27.1510  0.00  0.00     0.000 S
ATOM    137   O  SGN B   7      21.292  20.517  27.8600  0.00  0.00     0.000 OA
ATOM    138   O  SGN B   7      22.317  18.353  27.5970  0.00  0.00     0.000 OA
ATOM    139   O  SGN B   7      19.965  18.658  27.0280  0.00  0.00     0.000 OA
ENDBRANCH 124 134
BRANCH 120 140
ATOM    140  O4  IDS B   8      20.294  19.466  21.1970  0.00  0.00     0.000 O
BRANCH 140 144
ATOM    141  C1  IDS B   8      17.404  19.066  19.0870  0.00  0.00     0.000 C
ATOM    142  C2  IDS B   8      17.375  20.028  20.3090  0.00  0.00     0.000 C
ATOM    143  C3  IDS B   8      17.910  19.381  21.5990  0.00  0.00     0.000 C
ATOM    144  C4  IDS B   8      19.183  18.574  21.3500  0.00  0.00     0.000 C
ATOM    145  C5  IDS B   8      19.024  17.708  20.0910  0.00  0.00     0.000 C
ATOM    146  O5  IDS B   8      18.700  18.496  18.9480  0.00  0.00     0.000 O
BRANCH 142 147
ATOM    147   O  IDS B   8      18.226  21.214  20.0260  0.00  0.00     0.000 O
ATOM    148   S  IDS B   8      17.768  22.700  20.4860  0.00  0.00     0.000 S
ATOM    149   O  IDS B   8      16.356  22.649  20.7920  0.00  0.00     0.000 OA
ATOM    150   O  IDS B   8      18.582  23.014  21.6460  0.00  0.00     0.000 OA
ATOM    151   O  IDS B   8      18.045  23.555  19.3480  0.00  0.00     0.000 OA
ENDBRANCH 142 147
BRANCH 145 152
ATOM    152   C  IDS B   8      20.291  16.958  19.7350  0.00  0.00     0.000 C
ATOM    153   O  IDS B   8      20.694  16.068  20.4750  0.00  0.00     0.000 OA
ATOM    154   O  IDS B   8      20.884  17.232  18.7070  0.00  0.00     0.000 OA
ENDBRANCH 145 152
ENDBRANCH 140 144
ENDBRANCH 120 140
ENDBRANCH 119 123
ENDBRANCH 103 119
ENDBRANCH 102 106
ENDBRANCH 82 102
ENDBRANCH 81 85
ENDBRANCH 65 81
ENDBRANCH 64 68
ENDBRANCH 41 64
ENDBRANCH 40 44
ENDBRANCH 24 40
ENDBRANCH 23 27
ENDBRANCH 1 23
TORSDOF 31
ENDMDL
MODEL 34
REMARK VINA RESULT:      -3.9     18.303     22.815
ROOT
ATOM      1  C1  SGN B   1      33.937  21.588  20.0250  0.00  0.00     0.000 C
ATOM      2  C2  SGN B   1      33.038  21.698  18.7830  0.00  0.00     0.000 C
ATOM      3  C3  SGN B   1      33.544  20.782  17.6630  0.00  0.00     0.000 C
ATOM      4  C4  SGN B   1      35.001  21.100  17.3430  0.00  0.00     0.000 C
ATOM      5  C5  SGN B   1      35.807  21.112  18.6400  0.00  0.00     0.000 C
ATOM      6  O5  SGN B   1      35.208  22.035  19.5700  0.00  0.00     0.000 O
ATOM      7   O  SGN B   1      32.736  20.920  16.5010  0.00  0.00     0.000 O
ATOM      9  HD  SGN B   1      33.047  21.722  16.5950  0.00  0.00     0.000 HD
ATOM      9   O  SGN B   1      35.513  20.119  16.4590  0.00  0.00     0.000 O
ATOM     11  HD  SGN B   1      35.824  20.922  16.5530  0.00  0.00     0.000 HD
ENDROOT
BRANCH 2 13
ATOM     11   N  SGN B   1      31.995  22.664  19.1750  0.00  0.00     0.000 N
ATOM     13  HD  SGN B   1      32.191  21.996  19.6900  0.00  0.00     0.000 HD
ATOM     13   S  SGN B   1      30.757  22.257  20.1200  0.00  0.00     0.000 S
ATOM     14   O  SGN B   1      30.876  20.910  20.5220  0.00  0.00     0.000 OA
ATOM     15   O  SGN B   1      30.593  23.271  21.1080  0.00  0.00     0.000 OA
ATOM     16   O  SGN B   1      29.611  22.440  19.0780  0.00  0.00     0.000 OA
ENDBRANCH 2 13
BRANCH 5 17
ATOM     17   C  SGN B   1      37.248  21.523  18.4640  0.00  0.00     0.000 C
ATOM     18   O  SGN B   1      37.349  22.712  17.6550  0.00  0.00     0.000 O
ATOM     19   S  SGN B   1      38.468  22.690  16.5130  0.00  0.00     0.000 S
ATOM     20   O  SGN B   1      38.525  24.049  16.0170  0.00  0.00     0.000 OA
ATOM     21   O  SGN B   1      39.668  22.277  17.2040  0.00  0.00     0.000 OA
ATOM     22   O  SGN B   1      37.993  21.736  15.5360  0.00  0.00     0.000 OA
ENDBRANCH 5 17
BRANCH 1 23
ATOM     23  O4  IDS B   2      34.061  20.867  21.1760  0.00  0.00     0.000 O
BRANCH 23 27
ATOM     24  C1  IDS B   2      34.478  19.428  25.0470  0.00  0.00     0.000 C
ATOM     25  C2  IDS B   2      33.397  20.515  24.8520  0.00  0.00     0.000 C
ATOM     26  C3  IDS B   2      33.124  20.753  23.3690  0.00  0.00     0.000 C
ATOM     27  C4  IDS B   2      34.374  21.087  22.5670  0.00  0.00     0.000 C
ATOM     28  C5  IDS B   2      35.570  20.265  23.0890  0.00  0.00     0.000 C
ATOM     29  O5  IDS B   2      35.127  19.122  23.8050  0.00  0.00     0.000 O
ATOM     30   O  IDS B   2      32.220  21.842  23.2290  0.00  0.00     0.000 O
ATOM     32  HD  IDS B   2      32.600  22.615  23.3140  0.00  0.00     0.000 HD
BRANCH 25 32
ATOM     32   O  IDS B   2      32.110  20.147  25.4920  0.00  0.00     0.000 O
ATOM     33   S  IDS B   2      31.067  19.073  24.7970  0.00  0.00     0.000 S
ATOM     34   O  IDS B   2      29.842  19.136  25.5780  0.00  0.00     0.000 OA
ATOM     35   O  IDS B   2      30.834  19.452  23.4110  0.00  0.00     0.000 OA
ATOM     36   O  IDS B   2      31.701  17.781  24.9160  0.00  0.00     0.000 OA
ENDBRANCH 25 32
BRANCH 28 37
ATOM     37   C  IDS B   2      36.635  19.814  22.0670  0.00  0.00     0.000 C
ATOM     38   O  IDS B   2      37.563  20.584  21.9880  0.00  0.00     0.000 OA
ATOM     39   O  IDS B   2      36.642  18.747  21.4060  0.00  0.00     0.000 OA
ENDBRANCH 28 37
BRANCH 24 40
ATOM     40  O4  SUS B   3      34.908  19.122  26.2890  0.00  0.00     0.000 O
BRANCH 40 44
ATOM     41  C1  SUS B   3      35.483  15.397  28.1170  0.00  0.00     0.000 C
ATOM     42  C2  SUS B   3      36.346  15.716  26.8790  0.00  0.00     0.000 C
ATOM     43  C3  SUS B   3      36.362  17.226  26.6520  0.00  0.00     0.000 C
ATOM     44  C4  SUS B   3      34.928  17.723  26.5510  0.00  0.00     0.000 C
ATOM     45  C5  SUS B   3      34.216  17.434  27.8570  0.00  0.00     0.000 C
ATOM     46  O5  SUS B   3      34.188  16.005  28.0470  0.00  0.00     0.000 O
BRANCH 42 49
ATOM     47   N  SUS B   3      37.699  15.144  26.9850  0.00  0.00     0.000 N
ATOM     49  HD  SUS B   3      38.360  15.683  26.8310  0.00  0.00     0.000 HD
ATOM     49   S  SUS B   3      37.893  13.843  26.0710  0.00  0.00     0.000 S
ATOM     50   O  SUS B   3      37.615  14.157  24.7250  0.00  0.00     0.000 OA
ATOM     51   O  SUS B   3      39.420  13.694  26.2930  0.00  0.00     0.000 OA
ATOM     52   O  SUS B   3      37.198  12.761  26.6460  0.00  0.00     0.000 OA
ENDBRANCH 42 49
BRANCH 43 53
ATOM     53   O  SUS B   3      37.074  17.489  25.3870  0.00  0.00     0.000 O
ATOM     54   S  SUS B   3      38.523  18.259  25.4880  0.00  0.00     0.000 S
ATOM     55   O  SUS B   3      39.476  17.321  26.0660  0.00  0.00     0.000 OA
ATOM     56   O  SUS B   3      38.822  18.628  24.1160  0.00  0.00     0.000 OA
ATOM     57   O  SUS B   3      38.318  19.415  26.3660  0.00  0.00     0.000 OA
ENDBRANCH 43 53
BRANCH 45 58
ATOM     58   C  SUS B   3      32.809  17.991  27.8700  0.00  0.00     0.000 C
ATOM     59   S  SUS B   3      30.539  17.751  29.0420  0.00  0.00     0.000 S
ATOM     60   O  SUS B   3      32.092  17.448  28.9910  0.00  0.00     0.000 O
ATOM     61   O  SUS B   3      29.942  16.832  28.0910  0.00  0.00     0.000 OA
ATOM     62   O  SUS B   3      30.243  17.407  30.4070  0.00  0.00     0.000 OA
ATOM     63   O  SUS B   3      30.409  19.128  28.7210  0.00  0.00     0.000 OA
ENDBRANCH 45 58
BRANCH 41 64
ATOM     64  O4  IDS B   4      36.133  15.595  29.3100  0.00  0.00     0.000 O
BRANCH 64 68
ATOM     65  C1  IDS B   4      37.894  14.742  32.3840  0.00  0.00     0.000 C
ATOM     66  C2  IDS B   4      38.322  14.117  31.0500  0.00  0.00     0.000 C
ATOM     67  C3  IDS B   4      37.173  13.585  30.2090  0.00  0.00     0.000 C
ATOM     68  C4  IDS B   4      35.958  14.493  30.2290  0.00  0.00     0.000 C
ATOM     69  C5  IDS B   4      35.718  14.938  31.6780  0.00  0.00     0.000 C
ATOM     70  O5  IDS B   4      36.854  15.672  32.1390  0.00  0.00     0.000 O
ATOM     71   O  IDS B   4      36.829  12.316  30.7250  0.00  0.00     0.000 O
ATOM     73  HD  IDS B   4      37.338  13.006  30.6080  0.00  0.00     0.000 HD
BRANCH 66 73
ATOM     73   O  IDS B   4      38.963  15.152  30.2270  0.00  0.00     0.000 O
ATOM     74   S  IDS B   4      40.535  14.982  29.8850  0.00  0.00     0.000 S
ATOM     75   O  IDS B   4      41.222  14.876  31.1540  0.00  0.00     0.000 OA
ATOM     76   O  IDS B   4      40.815  16.199  29.1660  0.00  0.00     0.000 OA
ATOM     77   O  IDS B   4      40.627  13.784  29.0830  0.00  0.00     0.000 OA
ENDBRANCH 66 73
BRANCH 69 78
ATOM     78   C  IDS B   4      34.405  15.678  31.8990  0.00  0.00     0.000 C
ATOM     79   O  IDS B   4      34.429  16.902  32.0140  0.00  0.00     0.000 OA
ATOM     80   O  IDS B   4      33.342  15.032  31.8510  0.00  0.00     0.000 OA
ENDBRANCH 69 78
BRANCH 65 81
ATOM     81  O4  SGN B   5      37.634  13.754  33.2850  0.00  0.00     0.000 O
BRANCH 81 85
ATOM     82  C1  SGN B   5      38.273  12.673  37.2920  0.00  0.00     0.000 C
ATOM     83  C2  SGN B   5      36.940  13.360  36.9590  0.00  0.00     0.000 C
ATOM     84  C3  SGN B   5      36.674  13.260  35.4510  0.00  0.00     0.000 C
ATOM     85  C4  SGN B   5      37.853  13.845  34.6940  0.00  0.00     0.000 C
ATOM     86  C5  SGN B   5      39.108  13.070  35.0880  0.00  0.00     0.000 C
ATOM     87  O5  SGN B   5      39.316  13.217  36.5060  0.00  0.00     0.000 O
ATOM     88   O  SGN B   5      35.480  13.939  35.1290  0.00  0.00     0.000 O
ATOM     90  HD  SGN B   5      35.564  13.080  35.2060  0.00  0.00     0.000 HD
BRANCH 83 92
ATOM     90   N  SGN B   5      36.862  13.719  38.3890  0.00  0.00     0.000 N
ATOM     92  HD  SGN B   5      37.274  14.464  38.5450  0.00  0.00     0.000 HD
ATOM     92   S  SGN B   5      35.454  13.556  39.1270  0.00  0.00     0.000 S
ATOM     93   O  SGN B   5      35.707  13.984  40.4710  0.00  0.00     0.000 OA
ATOM     94   O  SGN B   5      34.512  14.256  38.3220  0.00  0.00     0.000 OA
ATOM     95   O  SGN B   5      35.131  12.082  39.0210  0.00  0.00     0.000 OA
ENDBRANCH 83 92
BRANCH 86 96
ATOM     96   C  SGN B   5      40.371  13.540  34.3960  0.00  0.00     0.000 C
ATOM     97   O  SGN B   5      40.620  14.918  34.6870  0.00  0.00     0.000 O
ATOM     98   S  SGN B   5      42.093  15.274  35.2100  0.00  0.00     0.000 S
ATOM     99   O  SGN B   5      42.089  16.717  35.2130  0.00  0.00     0.000 OA
ATOM    100   O  SGN B   5      42.246  14.679  36.4890  0.00  0.00     0.000 OA
ATOM    101   O  SGN B   5      42.964  14.713  34.2280  0.00  0.00     0.000 OA
ENDBRANCH 86 96
BRANCH 82 102
ATOM    102  O4  IDS B   6      38.218  11.319  37.1370  0.00  0.00     0.000 O
BRANCH 102 106
ATOM    103  C1  IDS B   6      38.457   7.820  38.1130  0.00  0.00     0.000 C
ATOM    104  C2  IDS B   6      37.562   8.794  38.8950  0.00  0.00     0.000 C
ATOM    105  C3  IDS B   6      38.212  10.116  39.2550  0.00  0.00     0.000 C
ATOM    106  C4  IDS B   6      39.061  10.678  38.1280  0.00  0.00     0.000 C
ATOM    107  C5  IDS B   6      39.888   9.555  37.4940  0.00  0.00     0.000 C
ATOM    108  O5  IDS B   6      39.065   8.487  37.0240  0.00  0.00     0.000 O
ATOM    109   O  IDS B   6      38.992   9.922  40.4230  0.00  0.00     0.000 O
ATOM    111  HD  IDS B   6      39.155   9.071  40.4250  0.00  0.00     0.000 HD
BRANCH 104 111
ATOM    111   O  IDS B   6      36.399   9.146  38.0670  0.00  0.00     0.000 O
ATOM    112   S  IDS B   6      34.980   8.515  38.4550  0.00  0.00     0.000 S
ATOM    113   O  IDS B   6      35.190   7.077  38.3940  0.00  0.00     0.000 OA
ATOM    114   O  IDS B   6      34.591   9.022  39.7750  0.00  0.00     0.000 OA
ATOM    115   O  IDS B   6      34.185   9.038  37.3640  0.00  0.00     0.000 OA
ENDBRANCH 104 111
BRANCH 107 116
ATOM    116   C  IDS B   6      40.708  10.122  36.3420  0.00  0.00     0.000 C
ATOM    117   O  IDS B   6      41.591  10.889  36.6310  0.00  0.00     0.000 OA
ATOM    118   O  IDS B   6      40.472   9.817  35.1840  0.00  0.00     0.000 OA
ENDBRANCH 107 116
BRANCH 103 119
ATOM    119  O4  SGN B   7      39.200   7.221  39.0790  0.00  0.00     0.000 O
BRANCH 119 123
ATOM    120  C1  SGN B   7      40.909   3.456  39.7030  0.00  0.00     0.000 C
ATOM    121  C2  SGN B   7      41.562   4.370  38.6480  0.00  0.00     0.000 C
ATOM    122  C3  SGN B   7      41.089   5.818  38.8250  0.00  0.00     0.000 C
ATOM    123  C4  SGN B   7      39.570   5.865  38.8250  0.00  0.00     0.000 C
ATOM    124  C5  SGN B   7      39.017   4.918  39.9030  0.00  0.00     0.000 C
ATOM    125  O5  SGN B   7      39.487   3.567  39.6970  0.00  0.00     0.000 O
ATOM    126   O  SGN B   7      41.636   6.619  37.7720  0.00  0.00     0.000 O
ATOM    128  HD  SGN B   7      41.626   5.861  38.1900  0.00  0.00     0.000 HD
BRANCH 121 130
ATOM    128   N  SGN B   7      42.733   3.513  38.8520  0.00  0.00     0.000 N
ATOM    130  HD  SGN B   7      42.419   2.937  38.2860  0.00  0.00     0.000 HD
ATOM    130   S  SGN B   7      43.889   3.360  37.7410  0.00  0.00     0.000 S
ATOM    131   O  SGN B   7      44.247   4.692  37.3910  0.00  0.00     0.000 OA
ATOM    132   O  SGN B   7      44.868   2.462  38.2370  0.00  0.00     0.000 OA
ATOM    133   O  SGN B   7      43.122   2.545  36.6460  0.00  0.00     0.000 OA
ENDBRANCH 121 130
BRANCH 124 134
ATOM    134   C  SGN B   7      37.521   4.807  39.9040  0.00  0.00     0.000 C
ATOM    135   O  SGN B   7      37.163   3.446  40.1950  0.00  0.00     0.000 O
ATOM    136   S  SGN B   7      35.633   3.152  40.3940  0.00  0.00     0.000 S
ATOM    137   O  SGN B   7      35.513   1.724  40.5680  0.00  0.00     0.000 OA
ATOM    138   O  SGN B   7      34.996   3.629  39.1880  0.00  0.00     0.000 OA
ATOM    139   O  SGN B   7      35.319   3.922  41.5870  0.00  0.00     0.000 OA
ENDBRANCH 124 134
BRANCH 120 140
ATOM    140  O4  IDS B   8      41.113   3.448  41.0250  0.00  0.00     0.000 O
BRANCH 140 144
ATOM    141  C1  IDS B   8      42.734   2.638  44.1350  0.00  0.00     0.000 C
ATOM    142  C2  IDS B   8      42.660   1.601  42.9780  0.00  0.00     0.000 C
ATOM    143  C3  IDS B   8      41.245   1.455  42.3880  0.00  0.00     0.000 C
ATOM    144  C4  IDS B   8      40.567   2.808  42.1850  0.00  0.00     0.000 C
ATOM    145  C5  IDS B   8      40.772   3.695  43.4220  0.00  0.00     0.000 C
ATOM    146  O5  IDS B   8      42.155   3.869  43.7220  0.00  0.00     0.000 O
BRANCH 142 147
ATOM    147   O  IDS B   8      43.556   2.029  41.8720  0.00  0.00     0.000 O
ATOM    148   S  IDS B   8      45.141   1.682  41.8980  0.00  0.00     0.000 S
ATOM    149   O  IDS B   8      45.485   1.307  43.2510  0.00  0.00     0.000 OA
ATOM    150   O  IDS B   8      45.314   0.595  40.9520  0.00  0.00     0.000 OA
ATOM    151   O  IDS B   8      45.805   2.905  41.4880  0.00  0.00     0.000 OA
ENDBRANCH 142 147
BRANCH 145 152
ATOM    152   C  IDS B   8      40.205   5.089  43.2420  0.00  0.00     0.000 C
ATOM    153   O  IDS B   8      40.958   6.017  42.9690  0.00  0.00     0.000 OA
ATOM    154   O  IDS B   8      39.005   5.269  43.3480  0.00  0.00     0.000 OA
ENDBRANCH 145 152
ENDBRANCH 140 144
ENDBRANCH 120 140
ENDBRANCH 119 123
ENDBRANCH 103 119
ENDBRANCH 102 106
ENDBRANCH 82 102
ENDBRANCH 81 85
ENDBRANCH 65 81
ENDBRANCH 64 68
ENDBRANCH 41 64
ENDBRANCH 40 44
ENDBRANCH 24 40
ENDBRANCH 23 27
ENDBRANCH 1 23
TORSDOF 31
ENDMDL
MODEL 35
REMARK VINA RESULT:      -3.9      3.760      6.124
ROOT
ATOM      1  C1  SGN B   1      29.167  12.209  13.1860  0.00  0.00     0.000 C
ATOM      2  C2  SGN B   1      29.833  11.358  14.2790  0.00  0.00     0.000 C
ATOM      3  C3  SGN B   1      29.689  12.027  15.6510  0.00  0.00     0.000 C
ATOM      4  C4  SGN B   1      30.253  13.443  15.6080  0.00  0.00     0.000 C
ATOM      5  C5  SGN B   1      29.653  14.183  14.4140  0.00  0.00     0.000 C
ATOM      6  O5  SGN B   1      29.894  13.430  13.2100  0.00  0.00     0.000 O
ATOM      7   O  SGN B   1      30.345  11.259  16.6530  0.00  0.00     0.000 O
ATOM      9  HD  SGN B   1      31.003  11.459  16.1260  0.00  0.00     0.000 HD
ATOM      9   O  SGN B   1      29.931  14.115  16.8110  0.00  0.00     0.000 O
ATOM     11  HD  SGN B   1      30.588  14.315  16.2850  0.00  0.00     0.000 HD
ENDROOT
BRANCH 2 13
ATOM     11   N  SGN B   1      30.365  10.126  13.6670  0.00  0.00     0.000 N
ATOM     13  HD  SGN B   1      29.594  10.439  13.4270  0.00  0.00     0.000 HD
ATOM     13   S  SGN B   1      29.406   8.969  13.0920  0.00  0.00     0.000 S
ATOM     14   O  SGN B   1      28.054   9.349  13.2230  0.00  0.00     0.000 OA
ATOM     15   O  SGN B   1      29.901   8.566  11.8180  0.00  0.00     0.000 OA
ATOM     16   O  SGN B   1      29.780   7.845  14.1070  0.00  0.00     0.000 OA
ENDBRANCH 2 13
BRANCH 5 17
ATOM     17   C  SGN B   1      30.219  15.565  14.2010  0.00  0.00     0.000 C
ATOM     18   O  SGN B   1      29.970  16.406  15.3460  0.00  0.00     0.000 O
ATOM     19   S  SGN B   1      29.438  17.881  15.0300  0.00  0.00     0.000 S
ATOM     20   O  SGN B   1      29.496  18.579  16.2970  0.00  0.00     0.000 OA
ATOM     21   O  SGN B   1      30.368  18.388  14.0480  0.00  0.00     0.000 OA
ATOM     22   O  SGN B   1      28.094  17.698  14.5290  0.00  0.00     0.000 OA
ENDBRANCH 5 17
BRANCH 1 23
ATOM     23  O4  IDS B   2      27.963  12.375  12.5670  0.00  0.00     0.000 O
BRANCH 23 27
ATOM     24  C1  IDS B   2      25.371  14.585  14.9390  0.00  0.00     0.000 C
ATOM     25  C2  IDS B   2      25.146  13.057  14.9500  0.00  0.00     0.000 C
ATOM     26  C3  IDS B   2      26.317  12.328  14.2970  0.00  0.00     0.000 C
ATOM     27  C4  IDS B   2      26.627  12.817  12.8880  0.00  0.00     0.000 C
ATOM     28  C5  IDS B   2      26.423  14.343  12.8030  0.00  0.00     0.000 C
ATOM     29  O5  IDS B   2      26.474  14.934  14.0920  0.00  0.00     0.000 O
ATOM     30   O  IDS B   2      26.018  10.940  14.2140  0.00  0.00     0.000 O
ATOM     32  HD  IDS B   2      25.490  10.743  13.5560  0.00  0.00     0.000 HD
BRANCH 25 32
ATOM     32   O  IDS B   2      24.996  12.521  16.3250  0.00  0.00     0.000 O
ATOM     33   S  IDS B   2      23.712  11.580  16.7590  0.00  0.00     0.000 S
ATOM     34   O  IDS B   2      23.784  11.438  18.2050  0.00  0.00     0.000 OA
ATOM     35   O  IDS B   2      22.475  12.229  16.3490  0.00  0.00     0.000 OA
ATOM     36   O  IDS B   2      23.916  10.313  16.0950  0.00  0.00     0.000 OA
ENDBRANCH 25 32
BRANCH 28 37
ATOM     37   C  IDS B   2      27.350  15.143  11.8650  0.00  0.00     0.000 C
ATOM     38   O  IDS B   2      27.592  14.557  10.8360  0.00  0.00     0.000 OA
ATOM     39   O  IDS B   2      27.789  16.304  12.0480  0.00  0.00     0.000 OA
ENDBRANCH 28 37
BRANCH 24 40
ATOM     40  O4  SUS B   3      24.413  15.409  15.4120  0.00  0.00     0.000 O
BRANCH 40 44
ATOM     41  C1  SUS B   3      24.725  19.200  17.1670  0.00  0.00     0.000 C
ATOM     42  C2  SUS B   3      24.905  19.114  15.6380  0.00  0.00     0.000 C
ATOM     43  C3  SUS B   3      24.297  17.807  15.1330  0.00  0.00     0.000 C
ATOM     44  C4  SUS B   3      24.921  16.648  15.8950  0.00  0.00     0.000 C
ATOM     45  C5  SUS B   3      24.598  16.799  17.3670  0.00  0.00     0.000 C
ATOM     46  O5  SUS B   3      25.195  18.024  17.8360  0.00  0.00     0.000 O
BRANCH 42 49
ATOM     47   N  SUS B   3      25.920  20.173  15.5070  0.00  0.00     0.000 N
ATOM     49  HD  SUS B   3      26.164  20.567  16.2380  0.00  0.00     0.000 HD
ATOM     49   S  SUS B   3      25.503  21.301  14.4490  0.00  0.00     0.000 S
ATOM     50   O  SUS B   3      24.268  21.872  14.8180  0.00  0.00     0.000 OA
ATOM     51   O  SUS B   3      26.668  22.275  14.7560  0.00  0.00     0.000 OA
ATOM     52   O  SUS B   3      25.618  20.783  13.1440  0.00  0.00     0.000 OA
ENDBRANCH 42 49
BRANCH 43 53
ATOM     53   O  SUS B   3      24.607  17.687  13.6950  0.00  0.00     0.000 O
ATOM     54   S  SUS B   3      23.335  17.597  12.6590  0.00  0.00     0.000 S
ATOM     55   O  SUS B   3      22.708  18.911  12.6210  0.00  0.00     0.000 OA
ATOM     56   O  SUS B   3      23.935  17.198  11.3980  0.00  0.00     0.000 OA
ATOM     57   O  SUS B   3      22.422  16.590  13.2090  0.00  0.00     0.000 OA
ENDBRANCH 43 53
BRANCH 45 58
ATOM     58   C  SUS B   3      25.101  15.626  18.1810  0.00  0.00     0.000 C
ATOM     59   S  SUS B   3      24.786  14.426  20.4270  0.00  0.00     0.000 S
ATOM     60   O  SUS B   3      24.278  15.468  19.3480  0.00  0.00     0.000 O
ATOM     61   O  SUS B   3      25.844  15.110  21.1450  0.00  0.00     0.000 OA
ATOM     62   O  SUS B   3      23.597  14.257  21.2170  0.00  0.00     0.000 OA
ATOM     63   O  SUS B   3      25.193  13.283  19.6890  0.00  0.00     0.000 OA
ENDBRANCH 45 58
BRANCH 41 64
ATOM     64  O4  IDS B   4      23.471  19.604  17.5550  0.00  0.00     0.000 O
BRANCH 64 68
ATOM     65  C1  IDS B   4      21.016  21.410  19.5520  0.00  0.00     0.000 C
ATOM     66  C2  IDS B   4      22.325  22.093  19.1330  0.00  0.00     0.000 C
ATOM     67  C3  IDS B   4      23.570  21.249  19.3480  0.00  0.00     0.000 C
ATOM     68  C4  IDS B   4      23.363  19.790  18.9840  0.00  0.00     0.000 C
ATOM     69  C5  IDS B   4      22.013  19.341  19.5580  0.00  0.00     0.000 C
ATOM     70  O5  IDS B   4      20.969  20.120  18.9700  0.00  0.00     0.000 O
ATOM     71   O  IDS B   4      23.919  21.356  20.7120  0.00  0.00     0.000 O
ATOM     73  HD  IDS B   4      23.518  21.590  19.9810  0.00  0.00     0.000 HD
BRANCH 66 73
ATOM     73   O  IDS B   4      22.278  22.361  17.6890  0.00  0.00     0.000 O
ATOM     74   S  IDS B   4      22.097  23.895  17.2080  0.00  0.00     0.000 S
ATOM     75   O  IDS B   4      20.885  24.380  17.8320  0.00  0.00     0.000 OA
ATOM     76   O  IDS B   4      22.003  23.748  15.7780  0.00  0.00     0.000 OA
ATOM     77   O  IDS B   4      23.285  24.581  17.6570  0.00  0.00     0.000 OA
ENDBRANCH 66 73
BRANCH 69 78
ATOM     78   C  IDS B   4      21.758  17.843  19.4680  0.00  0.00     0.000 C
ATOM     79   O  IDS B   4      21.565  17.342  18.3620  0.00  0.00     0.000 OA
ATOM     80   O  IDS B   4      21.858  17.158  20.5030  0.00  0.00     0.000 OA
ENDBRANCH 69 78
BRANCH 65 81
ATOM     81  O4  SGN B   5      20.883  21.478  20.9050  0.00  0.00     0.000 O
BRANCH 81 85
ATOM     82  C1  SGN B   5      17.886  21.050  23.8170  0.00  0.00     0.000 C
ATOM     83  C2  SGN B   5      19.034  20.029  23.8410  0.00  0.00     0.000 C
ATOM     84  C3  SGN B   5      20.231  20.584  23.0580  0.00  0.00     0.000 C
ATOM     85  C4  SGN B   5      19.785  20.948  21.6520  0.00  0.00     0.000 C
ATOM     86  C5  SGN B   5      18.666  21.980  21.7570  0.00  0.00     0.000 C
ATOM     87  O5  SGN B   5      17.566  21.397  22.4830  0.00  0.00     0.000 O
ATOM     88   O  SGN B   5      21.269  19.628  23.0270  0.00  0.00     0.000 O
ATOM     90  HD  SGN B   5      21.241  20.322  23.5440  0.00  0.00     0.000 HD
BRANCH 83 92
ATOM     90   N  SGN B   5      18.117  19.150  24.5940  0.00  0.00     0.000 N
ATOM     92  HD  SGN B   5      17.622  18.685  24.0570  0.00  0.00     0.000 HD
ATOM     92   S  SGN B   5      18.706  18.343  25.8410  0.00  0.00     0.000 S
ATOM     93   O  SGN B   5      17.590  17.596  26.3390  0.00  0.00     0.000 OA
ATOM     94   O  SGN B   5      19.857  17.665  25.3530  0.00  0.00     0.000 OA
ATOM     95   O  SGN B   5      19.184  19.412  26.8000  0.00  0.00     0.000 OA
ENDBRANCH 83 92
BRANCH 86 96
ATOM     96   C  SGN B   5      18.126  22.449  20.4210  0.00  0.00     0.000 C
ATOM     97   O  SGN B   5      17.181  23.505  20.6040  0.00  0.00     0.000 O
ATOM     98   S  SGN B   5      17.418  24.825  19.7250  0.00  0.00     0.000 S
ATOM     99   O  SGN B   5      16.221  25.592  19.9740  0.00  0.00     0.000 OA
ATOM    100   O  SGN B   5      18.616  25.432  20.1810  0.00  0.00     0.000 OA
ATOM    101   O  SGN B   5      17.513  24.345  18.3840  0.00  0.00     0.000 OA
ENDBRANCH 86 96
BRANCH 82 102
ATOM    102  O4  IDS B   6      18.164  22.168  24.5450  0.00  0.00     0.000 O
BRANCH 102 106
ATOM    103  C1  IDS B   6      17.890  24.505  27.3230  0.00  0.00     0.000 C
ATOM    104  C2  IDS B   6      18.156  23.013  27.5750  0.00  0.00     0.000 C
ATOM    105  C3  IDS B   6      17.261  22.062  26.8040  0.00  0.00     0.000 C
ATOM    106  C4  IDS B   6      17.024  22.511  25.3730  0.00  0.00     0.000 C
ATOM    107  C5  IDS B   6      16.760  24.019  25.3400  0.00  0.00     0.000 C
ATOM    108  O5  IDS B   6      17.829  24.759  25.9330  0.00  0.00     0.000 O
ATOM    109   O  IDS B   6      16.034  21.944  27.5050  0.00  0.00     0.000 O
ATOM    111  HD  IDS B   6      15.993  22.669  27.9770  0.00  0.00     0.000 HD
BRANCH 104 111
ATOM    111   O  IDS B   6      19.525  22.691  27.1470  0.00  0.00     0.000 O
ATOM    112   S  IDS B   6      20.650  22.536  28.2750  0.00  0.00     0.000 S
ATOM    113   O  IDS B   6      20.655  23.816  28.9660  0.00  0.00     0.000 OA
ATOM    114   O  IDS B   6      20.306  21.385  29.1190  0.00  0.00     0.000 OA
ATOM    115   O  IDS B   6      21.803  22.321  27.4280  0.00  0.00     0.000 OA
ENDBRANCH 104 111
BRANCH 107 116
ATOM    116   C  IDS B   6      16.559  24.465  23.8980  0.00  0.00     0.000 C
ATOM    117   O  IDS B   6      15.594  24.027  23.3250  0.00  0.00     0.000 OA
ATOM    118   O  IDS B   6      17.347  25.221  23.3510  0.00  0.00     0.000 OA
ENDBRANCH 107 116
BRANCH 103 119
ATOM    119  O4  SGN B   7      16.842  24.787  28.1400  0.00  0.00     0.000 O
BRANCH 119 123
ATOM    120  C1  SGN B   7      15.583  28.033  30.4570  0.00  0.00     0.000 C
ATOM    121  C2  SGN B   7      15.446  28.153  28.9270  0.00  0.00     0.000 C
ATOM    122  C3  SGN B   7      15.561  26.773  28.2670  0.00  0.00     0.000 C
ATOM    123  C4  SGN B   7      16.842  26.092  28.7190  0.00  0.00     0.000 C
ATOM    124  C5  SGN B   7      16.887  26.028  30.2550  0.00  0.00     0.000 C
ATOM    125  O5  SGN B   7      16.777  27.348  30.8330  0.00  0.00     0.000 O
ATOM    126   O  SGN B   7      15.528  26.933  26.8450  0.00  0.00     0.000 O
ATOM    128  HD  SGN B   7      15.425  27.288  27.6270  0.00  0.00     0.000 HD
BRANCH 121 130
ATOM    128   N  SGN B   7      15.356  29.612  28.8360  0.00  0.00     0.000 N
ATOM    130  HD  SGN B   7      15.479  29.573  27.9800  0.00  0.00     0.000 HD
ATOM    130   S  SGN B   7      14.074  30.356  28.2080  0.00  0.00     0.000 S
ATOM    131   O  SGN B   7      12.950  29.784  28.8680  0.00  0.00     0.000 OA
ATOM    132   O  SGN B   7      14.300  31.756  28.2590  0.00  0.00     0.000 OA
ATOM    133   O  SGN B   7      14.246  29.983  26.6960  0.00  0.00     0.000 OA
ENDBRANCH 121 130
BRANCH 124 134
ATOM    134   C  SGN B   7      18.170  25.476  30.8020  0.00  0.00     0.000 C
ATOM    135   O  SGN B   7      18.556  26.261  31.9430  0.00  0.00     0.000 O
ATOM    136   S  SGN B   7      19.799  25.750  32.7560  0.00  0.00     0.000 S
ATOM    137   O  SGN B   7      20.055  26.741  33.7740  0.00  0.00     0.000 OA
ATOM    138   O  SGN B   7      20.868  25.645  31.7890  0.00  0.00     0.000 OA
ATOM    139   O  SGN B   7      19.330  24.475  33.2760  0.00  0.00     0.000 OA
ENDBRANCH 124 134
BRANCH 120 140
ATOM    140  O4  IDS B   8      14.734  27.459  31.3170  0.00  0.00     0.000 O
BRANCH 140 144
ATOM    141  C1  IDS B   8      11.993  25.761  32.9170  0.00  0.00     0.000 C
ATOM    142  C2  IDS B   8      11.738  26.919  31.9110  0.00  0.00     0.000 C
ATOM    143  C3  IDS B   8      12.595  28.166  32.1960  0.00  0.00     0.000 C
ATOM    144  C4  IDS B   8      14.042  27.804  32.5240  0.00  0.00     0.000 C
ATOM    145  C5  IDS B   8      14.084  26.627  33.5100  0.00  0.00     0.000 C
ATOM    146  O5  IDS B   8      13.386  25.491  33.0050  0.00  0.00     0.000 O
BRANCH 142 147
ATOM    147   O  IDS B   8      12.070  26.463  30.5350  0.00  0.00     0.000 O
ATOM    148   S  IDS B   8      10.902  26.072  29.4790  0.00  0.00     0.000 S
ATOM    149   O  IDS B   8       9.680  25.882  30.2270  0.00  0.00     0.000 OA
ATOM    150   O  IDS B   8      10.827  27.188  28.5550  0.00  0.00     0.000 OA
ATOM    151   O  IDS B   8      11.350  24.843  28.8520  0.00  0.00     0.000 OA
ENDBRANCH 142 147
BRANCH 145 152
ATOM    152   C  IDS B   8      15.495  26.156  33.7970  0.00  0.00     0.000 C
ATOM    153   O  IDS B   8      15.817  25.006  33.5190  0.00  0.00     0.000 OA
ATOM    154   O  IDS B   8      16.300  26.930  34.2830  0.00  0.00     0.000 OA
ENDBRANCH 145 152
ENDBRANCH 140 144
ENDBRANCH 120 140
ENDBRANCH 119 123
ENDBRANCH 103 119
ENDBRANCH 102 106
ENDBRANCH 82 102
ENDBRANCH 81 85
ENDBRANCH 65 81
ENDBRANCH 64 68
ENDBRANCH 41 64
ENDBRANCH 40 44
ENDBRANCH 24 40
ENDBRANCH 23 27
ENDBRANCH 1 23
TORSDOF 31
ENDMDL
MODEL 36
REMARK VINA RESULT:      -3.8     16.759     21.969
ROOT
ATOM      1  C1  SGN B   1      46.140  18.660  39.1070  0.00  0.00     0.000 C
ATOM      2  C2  SGN B   1      47.032  19.033  40.3030  0.00  0.00     0.000 C
ATOM      3  C3  SGN B   1      48.090  20.062  39.8910  0.00  0.00     0.000 C
ATOM      4  C4  SGN B   1      48.905  19.537  38.7130  0.00  0.00     0.000 C
ATOM      5  C5  SGN B   1      47.951  19.055  37.6220  0.00  0.00     0.000 C
ATOM      6  O5  SGN B   1      47.042  18.082  38.1730  0.00  0.00     0.000 O
ATOM      7   O  SGN B   1      48.941  20.372  40.9880  0.00  0.00     0.000 O
ATOM      9  HD  SGN B   1      49.083  19.523  40.8890  0.00  0.00     0.000 HD
ATOM      9   O  SGN B   1      49.733  20.572  38.2150  0.00  0.00     0.000 O
ATOM     11  HD  SGN B   1      49.874  19.724  38.1160  0.00  0.00     0.000 HD
ENDROOT
BRANCH 2 13
ATOM     11   N  SGN B   1      46.420  18.179  41.3380  0.00  0.00     0.000 N
ATOM     13  HD  SGN B   1      45.944  18.765  40.9130  0.00  0.00     0.000 HD
ATOM     13   S  SGN B   1      45.150  18.654  42.2040  0.00  0.00     0.000 S
ATOM     14   O  SGN B   1      44.725  19.932  41.7810  0.00  0.00     0.000 OA
ATOM     15   O  SGN B   1      44.211  17.585  42.2510  0.00  0.00     0.000 OA
ATOM     16   O  SGN B   1      45.843  18.720  43.5990  0.00  0.00     0.000 OA
ENDBRANCH 2 13
BRANCH 5 17
ATOM     17   C  SGN B   1      48.640  18.410  36.4450  0.00  0.00     0.000 C
ATOM     18   O  SGN B   1      49.692  17.527  36.8850  0.00  0.00     0.000 O
ATOM     19   S  SGN B   1      51.080  17.645  36.1000  0.00  0.00     0.000 S
ATOM     20   O  SGN B   1      51.867  16.520  36.5590  0.00  0.00     0.000 OA
ATOM     21   O  SGN B   1      50.706  17.558  34.7080  0.00  0.00     0.000 OA
ATOM     22   O  SGN B   1      51.624  18.929  36.4850  0.00  0.00     0.000 OA
ENDBRANCH 5 17
BRANCH 1 23
ATOM     23  O4  IDS B   2      44.987  19.048  38.4920  0.00  0.00     0.000 O
BRANCH 23 27
ATOM     24  C1  IDS B   2      41.136  19.343  36.9710  0.00  0.00     0.000 C
ATOM     25  C2  IDS B   2      41.431  20.212  38.2130  0.00  0.00     0.000 C
ATOM     26  C3  IDS B   2      42.929  20.258  38.5040  0.00  0.00     0.000 C
ATOM     27  C4  IDS B   2      43.563  18.881  38.6480  0.00  0.00     0.000 C
ATOM     28  C5  IDS B   2      42.922  17.899  37.6460  0.00  0.00     0.000 C
ATOM     29  O5  IDS B   2      42.297  18.598  36.5800  0.00  0.00     0.000 O
ATOM     30   O  IDS B   2      43.148  20.962  39.7210  0.00  0.00     0.000 O
ATOM     32  HD  IDS B   2      42.996  20.481  40.4260  0.00  0.00     0.000 HD
BRANCH 25 32
ATOM     32   O  IDS B   2      40.964  21.610  38.0440  0.00  0.00     0.000 O
ATOM     33   S  IDS B   2      39.817  22.271  39.0290  0.00  0.00     0.000 S
ATOM     34   O  IDS B   2      39.458  23.548  38.4320  0.00  0.00     0.000 OA
ATOM     35   O  IDS B   2      38.670  21.378  39.1050  0.00  0.00     0.000 OA
ATOM     36   O  IDS B   2      40.460  22.452  40.3100  0.00  0.00     0.000 OA
ENDBRANCH 25 32
BRANCH 28 37
ATOM     37   C  IDS B   2      43.818  16.797  37.0450  0.00  0.00     0.000 C
ATOM     38   O  IDS B   2      43.988  15.869  37.8010  0.00  0.00     0.000 OA
ATOM     39   O  IDS B   2      44.297  16.762  35.8850  0.00  0.00     0.000 OA
ENDBRANCH 28 37
BRANCH 24 40
ATOM     40  O4  SUS B   3      39.860  19.123  36.5920  0.00  0.00     0.000 O
BRANCH 40 44
ATOM     41  C1  SUS B   3      38.199  18.708  32.7690  0.00  0.00     0.000 C
ATOM     42  C2  SUS B   3      39.099  17.563  33.2740  0.00  0.00     0.000 C
ATOM     43  C3  SUS B   3      39.209  17.643  34.7950  0.00  0.00     0.000 C
ATOM     44  C4  SUS B   3      39.698  19.031  35.1810  0.00  0.00     0.000 C
ATOM     45  C5  SUS B   3      38.686  20.055  34.7100  0.00  0.00     0.000 C
ATOM     46  O5  SUS B   3      38.609  19.984  33.2720  0.00  0.00     0.000 O
BRANCH 42 49
ATOM     47   N  SUS B   3      39.551  17.233  31.9120  0.00  0.00     0.000 N
ATOM     49  HD  SUS B   3      39.142  17.631  31.2610  0.00  0.00     0.000 HD
ATOM     49   S  SUS B   3      39.535  15.658  31.6200  0.00  0.00     0.000 S
ATOM     50   O  SUS B   3      38.238  15.145  31.8260  0.00  0.00     0.000 OA
ATOM     51   O  SUS B   3      39.851  15.752  30.1060  0.00  0.00     0.000 OA
ATOM     52   O  SUS B   3      40.597  15.043  32.3130  0.00  0.00     0.000 OA
ENDBRANCH 42 49
BRANCH 43 53
ATOM     53   O  SUS B   3      40.185  16.627  35.2350  0.00  0.00     0.000 O
ATOM     54   S  SUS B   3      39.611  15.376  36.1340  0.00  0.00     0.000 S
ATOM     55   O  SUS B   3      38.822  14.529  35.2500  0.00  0.00     0.000 OA
ATOM     56   O  SUS B   3      40.808  14.734  36.6470  0.00  0.00     0.000 OA
ATOM     57   O  SUS B   3      38.778  15.969  37.1850  0.00  0.00     0.000 OA
ENDBRANCH 43 53
BRANCH 45 58
ATOM     58   C  SUS B   3      39.054  21.457  35.1460  0.00  0.00     0.000 C
ATOM     59   S  SUS B   3      40.456  23.495  34.4640  0.00  0.00     0.000 S
ATOM     60   O  SUS B   3      39.801  22.100  34.1000  0.00  0.00     0.000 O
ATOM     61   O  SUS B   3      41.637  23.169  35.2410  0.00  0.00     0.000 OA
ATOM     62   O  SUS B   3      40.774  23.992  33.1520  0.00  0.00     0.000 OA
ATOM     63   O  SUS B   3      39.451  24.217  35.1600  0.00  0.00     0.000 OA
ENDBRANCH 45 58
BRANCH 41 64
ATOM     64  O4  IDS B   4      36.855  18.456  32.9040  0.00  0.00     0.000 O
BRANCH 64 68
ATOM     65  C1  IDS B   4      33.367  18.003  31.9550  0.00  0.00     0.000 C
ATOM     66  C2  IDS B   4      34.473  17.230  31.2250  0.00  0.00     0.000 C
ATOM     67  C3  IDS B   4      35.665  18.077  30.8140  0.00  0.00     0.000 C
ATOM     68  C4  IDS B   4      36.064  19.087  31.8730  0.00  0.00     0.000 C
ATOM     69  C5  IDS B   4      34.786  19.751  32.4050  0.00  0.00     0.000 C
ATOM     70  O5  IDS B   4      33.952  18.756  33.0020  0.00  0.00     0.000 O
ATOM     71   O  IDS B   4      35.311  18.749  29.6230  0.00  0.00     0.000 O
ATOM     73  HD  IDS B   4      35.239  18.141  30.2350  0.00  0.00     0.000 HD
BRANCH 66 73
ATOM     73   O  IDS B   4      35.013  16.208  32.1320  0.00  0.00     0.000 O
ATOM     74   S  IDS B   4      34.627  14.663  31.8490  0.00  0.00     0.000 S
ATOM     75   O  IDS B   4      33.181  14.595  31.8460  0.00  0.00     0.000 OA
ATOM     76   O  IDS B   4      35.244  13.994  32.9660  0.00  0.00     0.000 OA
ATOM     77   O  IDS B   4      35.215  14.347  30.5690  0.00  0.00     0.000 OA
ENDBRANCH 66 73
BRANCH 69 78
ATOM     78   C  IDS B   4      35.031  20.945  33.3180  0.00  0.00     0.000 C
ATOM     79   O  IDS B   4      34.443  20.993  34.3980  0.00  0.00     0.000 OA
ATOM     80   O  IDS B   4      35.895  21.778  32.9910  0.00  0.00     0.000 OA
ENDBRANCH 69 78
BRANCH 65 81
ATOM     81  O4  SGN B   5      32.621  18.692  31.0470  0.00  0.00     0.000 O
BRANCH 81 85
ATOM     82  C1  SGN B   5      28.665  19.804  30.1800  0.00  0.00     0.000 C
ATOM     83  C2  SGN B   5      29.533  20.833  30.9200  0.00  0.00     0.000 C
ATOM     84  C3  SGN B   5      31.015  20.477  30.7430  0.00  0.00     0.000 C
ATOM     85  C4  SGN B   5      31.247  19.051  31.2120  0.00  0.00     0.000 C
ATOM     86  C5  SGN B   5      30.353  18.125  30.3920  0.00  0.00     0.000 C
ATOM     87  O5  SGN B   5      28.979  18.495  30.6140  0.00  0.00     0.000 O
ATOM     88   O  SGN B   5      31.817  21.384  31.4670  0.00  0.00     0.000 O
ATOM     90  HD  SGN B   5      31.683  21.404  30.6120  0.00  0.00     0.000 HD
BRANCH 83 92
ATOM     90   N  SGN B   5      28.283  21.454  31.4010  0.00  0.00     0.000 N
ATOM     92  HD  SGN B   5      28.025  21.097  32.1460  0.00  0.00     0.000 HD
ATOM     92   S  SGN B   5      28.162  23.046  31.3350  0.00  0.00     0.000 S
ATOM     93   O  SGN B   5      26.862  23.325  31.8680  0.00  0.00     0.000 OA
ATOM     94   O  SGN B   5      29.323  23.549  31.9870  0.00  0.00     0.000 OA
ATOM     95   O  SGN B   5      28.288  23.382  29.8650  0.00  0.00     0.000 OA
ENDBRANCH 83 92
BRANCH 86 96
ATOM     96   C  SGN B   5      30.488  16.658  30.7460  0.00  0.00     0.000 C
ATOM     97   O  SGN B   5      30.214  16.449  32.1330  0.00  0.00     0.000 O
ATOM     98   S  SGN B   5      29.152  15.298  32.4770  0.00  0.00     0.000 S
ATOM     99   O  SGN B   5      29.248  15.195  33.9130  0.00  0.00     0.000 OA
ATOM    100   O  SGN B   5      27.887  15.728  31.9970  0.00  0.00     0.000 OA
ATOM    101   O  SGN B   5      29.643  14.146  31.7940  0.00  0.00     0.000 OA
ENDBRANCH 86 96
BRANCH 82 102
ATOM    102  O4  IDS B   6      28.783  19.897  28.8250  0.00  0.00     0.000 O
BRANCH 102 106
ATOM    103  C1  IDS B   6      27.689  20.330  25.3800  0.00  0.00     0.000 C
ATOM    104  C2  IDS B   6      27.382  21.398  26.4420  0.00  0.00     0.000 C
ATOM    105  C3  IDS B   6      26.825  20.864  27.7480  0.00  0.00     0.000 C
ATOM    106  C4  IDS B   6      27.512  19.587  28.2000  0.00  0.00     0.000 C
ATOM    107  C5  IDS B   6      27.707  18.653  27.0020  0.00  0.00     0.000 C
ATOM    108  O5  IDS B   6      28.445  19.280  25.9520  0.00  0.00     0.000 O
ATOM    109   O  IDS B   6      25.433  20.655  27.5810  0.00  0.00     0.000 O
ATOM    111  HD  IDS B   6      25.336  20.567  26.7250  0.00  0.00     0.000 HD
BRANCH 104 111
ATOM    111   O  IDS B   6      28.631  22.085  26.8050  0.00  0.00     0.000 O
ATOM    112   S  IDS B   6      28.882  23.552  26.2150  0.00  0.00     0.000 S
ATOM    113   O  IDS B   6      28.834  23.379  24.7710  0.00  0.00     0.000 OA
ATOM    114   O  IDS B   6      27.858  24.452  26.7580  0.00  0.00     0.000 OA
ATOM    115   O  IDS B   6      30.211  23.789  26.7340  0.00  0.00     0.000 OA
ENDBRANCH 104 111
BRANCH 107 116
ATOM    116   C  IDS B   6      28.429  17.392  27.4590  0.00  0.00     0.000 C
ATOM    117   O  IDS B   6      29.549  17.228  27.0450  0.00  0.00     0.000 OA
ATOM    118   O  IDS B   6      27.890  16.585  28.2000  0.00  0.00     0.000 OA
ENDBRANCH 107 116
BRANCH 103 119
ATOM    119  O4  SGN B   7      26.483  20.098  24.8010  0.00  0.00     0.000 O
BRANCH 119 123
ATOM    120  C1  SGN B   7      25.310  17.874  21.4590  0.00  0.00     0.000 C
ATOM    121  C2  SGN B   7      24.893  17.350  22.8470  0.00  0.00     0.000 C
ATOM    122  C3  SGN B   7      25.037  18.453  23.9030  0.00  0.00     0.000 C
ATOM    123  C4  SGN B   7      26.444  19.026  23.8590  0.00  0.00     0.000 C
ATOM    124  C5  SGN B   7      26.766  19.512  22.4360  0.00  0.00     0.000 C
ATOM    125  O5  SGN B   7      26.618  18.442  21.4760  0.00  0.00     0.000 O
ATOM    126   O  SGN B   7      24.737  17.906  25.1920  0.00  0.00     0.000 O
ATOM    128  HD  SGN B   7      24.736  17.806  24.3320  0.00  0.00     0.000 HD
BRANCH 121 130
ATOM    128   N  SGN B   7      24.597  15.993  22.3810  0.00  0.00     0.000 N
ATOM    130  HD  SGN B   7      24.666  15.693  23.1900  0.00  0.00     0.000 HD
ATOM    130   S  SGN B   7      23.185  15.274  22.6700  0.00  0.00     0.000 S
ATOM    131   O  SGN B   7      22.198  16.214  22.2630  0.00  0.00     0.000 OA
ATOM    132   O  SGN B   7      23.220  13.977  22.0980  0.00  0.00     0.000 OA
ATOM    133   O  SGN B   7      23.306  15.029  24.2130  0.00  0.00     0.000 OA
ENDBRANCH 121 130
BRANCH 124 134
ATOM    134   C  SGN B   7      28.177  19.990  22.2620  0.00  0.00     0.000 C
ATOM    135   O  SGN B   7      29.058  19.071  22.9310  0.00  0.00     0.000 O
ATOM    136   S  SGN B   7      30.598  19.310  22.7370  0.00  0.00     0.000 S
ATOM    137   O  SGN B   7      31.268  18.344  23.5740  0.00  0.00     0.000 OA
ATOM    138   O  SGN B   7      30.825  20.674  23.1580  0.00  0.00     0.000 OA
ATOM    139   O  SGN B   7      30.774  19.083  21.3110  0.00  0.00     0.000 OA
ENDBRANCH 124 134
BRANCH 120 140
ATOM    140  O4  IDS B   8      24.693  18.791  20.7060  0.00  0.00     0.000 O
BRANCH 140 144
ATOM    141  C1  IDS B   8      22.388  20.011  18.2240  0.00  0.00     0.000 C
ATOM    142  C2  IDS B   8      23.113  18.648  18.0400  0.00  0.00     0.000 C
ATOM    143  C3  IDS B   8      24.631  18.733  18.2890  0.00  0.00     0.000 C
ATOM    144  C4  IDS B   8      24.962  19.562  19.5290  0.00  0.00     0.000 C
ATOM    145  C5  IDS B   8      24.130  20.853  19.5410  0.00  0.00     0.000 C
ATOM    146  O5  IDS B   8      22.732  20.579  19.4820  0.00  0.00     0.000 O
BRANCH 142 147
ATOM    147   O  IDS B   8      22.564  17.660  19.0060  0.00  0.00     0.000 O
ATOM    148   S  IDS B   8      22.389  16.100  18.5970  0.00  0.00     0.000 S
ATOM    149   O  IDS B   8      22.469  16.012  17.1560  0.00  0.00     0.000 OA
ATOM    150   O  IDS B   8      23.473  15.402  19.2630  0.00  0.00     0.000 OA
ATOM    151   O  IDS B   8      21.079  15.720  19.0910  0.00  0.00     0.000 OA
ENDBRANCH 142 147
BRANCH 145 152
ATOM    152   C  IDS B   8      24.342  21.672  20.7980  0.00  0.00     0.000 C
ATOM    153   O  IDS B   8      23.492  21.654  21.6810  0.00  0.00     0.000 OA
ATOM    154   O  IDS B   8      25.363  22.323  20.9270  0.00  0.00     0.000 OA
ENDBRANCH 145 152
ENDBRANCH 140 144
ENDBRANCH 120 140
ENDBRANCH 119 123
ENDBRANCH 103 119
ENDBRANCH 102 106
ENDBRANCH 82 102
ENDBRANCH 81 85
ENDBRANCH 65 81
ENDBRANCH 64 68
ENDBRANCH 41 64
ENDBRANCH 40 44
ENDBRANCH 24 40
ENDBRANCH 23 27
ENDBRANCH 1 23
TORSDOF 31
ENDMDL
MODEL 37
REMARK VINA RESULT:      -3.6     22.277     33.134
ROOT
ATOM      1  C1  SGN B   1      35.580  17.253  28.5140  0.00  0.00     0.000 C
ATOM      2  C2  SGN B   1      34.076  16.946  28.4350  0.00  0.00     0.000 C
ATOM      3  C3  SGN B   1      33.719  16.329  27.0780  0.00  0.00     0.000 C
ATOM      4  C4  SGN B   1      34.175  17.244  25.9470  0.00  0.00     0.000 C
ATOM      5  C5  SGN B   1      35.638  17.621  26.1690  0.00  0.00     0.000 C
ATOM      6  O5  SGN B   1      35.793  18.202  27.4780  0.00  0.00     0.000 O
ATOM      7   O  SGN B   1      32.319  16.087  26.9920  0.00  0.00     0.000 O
ATOM      9  HD  SGN B   1      32.344  16.947  27.0980  0.00  0.00     0.000 HD
ATOM      9   O  SGN B   1      34.025  16.573  24.7090  0.00  0.00     0.000 O
ATOM     11  HD  SGN B   1      34.050  17.433  24.8160  0.00  0.00     0.000 HD
ENDROOT
BRANCH 2 13
ATOM     11   N  SGN B   1      33.571  17.378  29.7520  0.00  0.00     0.000 N
ATOM     13  HD  SGN B   1      34.252  16.847  29.6950  0.00  0.00     0.000 HD
ATOM     13   S  SGN B   1      33.732  16.474  31.0730  0.00  0.00     0.000 S
ATOM     14   O  SGN B   1      34.446  15.295  30.7700  0.00  0.00     0.000 OA
ATOM     15   O  SGN B   1      34.178  17.308  32.1380  0.00  0.00     0.000 OA
ATOM     16   O  SGN B   1      32.222  16.175  31.3240  0.00  0.00     0.000 OA
ENDBRANCH 2 13
BRANCH 5 17
ATOM     17   C  SGN B   1      36.174  18.616  25.1690  0.00  0.00     0.000 C
ATOM     18   O  SGN B   1      37.279  18.058  24.4300  0.00  0.00     0.000 O
ATOM     19   S  SGN B   1      38.554  19.006  24.2520  0.00  0.00     0.000 S
ATOM     20   O  SGN B   1      39.400  18.322  23.2970  0.00  0.00     0.000 OA
ATOM     21   O  SGN B   1      38.005  20.246  23.7540  0.00  0.00     0.000 OA
ATOM     22   O  SGN B   1      39.135  19.109  25.5720  0.00  0.00     0.000 OA
ENDBRANCH 5 17
BRANCH 1 23
ATOM     23  O4  IDS B   2      36.756  16.671  28.8870  0.00  0.00     0.000 O
BRANCH 23 27
ATOM     24  C1  IDS B   2      39.962  14.035  28.9570  0.00  0.00     0.000 C
ATOM     25  C2  IDS B   2      38.830  13.682  27.9670  0.00  0.00     0.000 C
ATOM     26  C3  IDS B   2      37.861  14.851  27.8060  0.00  0.00     0.000 C
ATOM     27  C4  IDS B   2      37.287  15.351  29.1250  0.00  0.00     0.000 C
ATOM     28  C5  IDS B   2      38.364  15.286  30.2260  0.00  0.00     0.000 C
ATOM     29  O5  IDS B   2      39.666  15.248  29.6620  0.00  0.00     0.000 O
ATOM     30   O  IDS B   2      36.770  14.446  26.9880  0.00  0.00     0.000 O
ATOM     32  HD  IDS B   2      36.180  13.977  27.4140  0.00  0.00     0.000 HD
BRANCH 25 32
ATOM     32   O  IDS B   2      39.348  13.341  26.6190  0.00  0.00     0.000 O
ATOM     33   S  IDS B   2      39.019  11.893  25.9000  0.00  0.00     0.000 S
ATOM     34   O  IDS B   2      39.863  11.827  24.7170  0.00  0.00     0.000 OA
ATOM     35   O  IDS B   2      39.318  10.812  26.8280  0.00  0.00     0.000 OA
ATOM     36   O  IDS B   2      37.619  11.943  25.5450  0.00  0.00     0.000 OA
ENDBRANCH 25 32
BRANCH 28 37
ATOM     37   C  IDS B   2      38.342  16.373  31.3210  0.00  0.00     0.000 C
ATOM     38   O  IDS B   2      39.257  17.155  31.2220  0.00  0.00     0.000 OA
ATOM     39   O  IDS B   2      37.467  16.534  32.2070  0.00  0.00     0.000 OA
ENDBRANCH 28 37
BRANCH 24 40
ATOM     40  O4  SUS B   3      40.883  13.105  29.2850  0.00  0.00     0.000 O
BRANCH 40 44
ATOM     41  C1  SUS B   3      44.986  13.648  29.9260  0.00  0.00     0.000 C
ATOM     42  C2  SUS B   3      44.091  13.504  31.1730  0.00  0.00     0.000 C
ATOM     43  C3  SUS B   3      42.771  12.850  30.7710  0.00  0.00     0.000 C
ATOM     44  C4  SUS B   3      42.142  13.660  29.6490  0.00  0.00     0.000 C
ATOM     45  C5  SUS B   3      43.074  13.650  28.4550  0.00  0.00     0.000 C
ATOM     46  O5  SUS B   3      44.307  14.289  28.8410  0.00  0.00     0.000 O
BRANCH 42 49
ATOM     47   N  SUS B   3      45.067  14.297  31.9390  0.00  0.00     0.000 N
ATOM     49  HD  SUS B   3      45.851  14.393  31.5850  0.00  0.00     0.000 HD
ATOM     49   S  SUS B   3      45.260  13.761  33.4370  0.00  0.00     0.000 S
ATOM     50   O  SUS B   3      45.661  12.409  33.4140  0.00  0.00     0.000 OA
ATOM     51   O  SUS B   3      46.454  14.679  33.8040  0.00  0.00     0.000 OA
ATOM     52   O  SUS B   3      44.124  14.092  34.2010  0.00  0.00     0.000 OA
ENDBRANCH 42 49
BRANCH 43 53
ATOM     53   O  SUS B   3      41.884  12.853  31.9510  0.00  0.00     0.000 O
ATOM     54   S  SUS B   3      41.517  11.396  32.6180  0.00  0.00     0.000 S
ATOM     55   O  SUS B   3      42.720  10.901  33.2720  0.00  0.00     0.000 OA
ATOM     56   O  SUS B   3      40.431  11.693  33.5350  0.00  0.00     0.000 OA
ATOM     57   O  SUS B   3      41.116  10.523  31.5110  0.00  0.00     0.000 OA
ENDBRANCH 43 53
BRANCH 45 58
ATOM     58   C  SUS B   3      42.471  14.354  27.2590  0.00  0.00     0.000 C
ATOM     59   S  SUS B   3      42.741  16.429  25.7730  0.00  0.00     0.000 S
ATOM     60   O  SUS B   3      43.321  15.446  26.8710  0.00  0.00     0.000 O
ATOM     61   O  SUS B   3      41.805  17.280  26.4820  0.00  0.00     0.000 OA
ATOM     62   O  SUS B   3      43.936  17.124  25.3780  0.00  0.00     0.000 OA
ATOM     63   O  SUS B   3      42.168  15.592  24.7790  0.00  0.00     0.000 OA
ENDBRANCH 45 58
BRANCH 41 64
ATOM     64  O4  IDS B   4      45.638  12.491  29.5760  0.00  0.00     0.000 O
BRANCH 64 68
ATOM     65  C1  IDS B   4      48.455  10.496  28.4120  0.00  0.00     0.000 C
ATOM     66  C2  IDS B   4      48.690  11.701  29.3320  0.00  0.00     0.000 C
ATOM     67  C3  IDS B   4      47.937  12.956  28.9250  0.00  0.00     0.000 C
ATOM     68  C4  IDS B   4      46.525  12.670  28.4500  0.00  0.00     0.000 C
ATOM     69  C5  IDS B   4      46.574  11.457  27.5120  0.00  0.00     0.000 C
ATOM     70  O5  IDS B   4      47.061  10.323  28.2330  0.00  0.00     0.000 O
ATOM     71   O  IDS B   4      48.675  13.570  27.8880  0.00  0.00     0.000 O
ATOM     73  HD  IDS B   4      48.554  13.035  28.5580  0.00  0.00     0.000 HD
BRANCH 66 73
ATOM     73   O  IDS B   4      48.202  11.370  30.6780  0.00  0.00     0.000 O
ATOM     74   S  IDS B   4      49.294  11.193  31.8580  0.00  0.00     0.000 S
ATOM     75   O  IDS B   4      50.218  10.172  31.4120  0.00  0.00     0.000 OA
ATOM     76   O  IDS B   4      48.468  10.792  32.9690  0.00  0.00     0.000 OA
ATOM     77   O  IDS B   4      49.908  12.491  32.0130  0.00  0.00     0.000 OA
ENDBRANCH 66 73
BRANCH 69 78
ATOM     78   C  IDS B   4      45.270  11.177  26.7770  0.00  0.00     0.000 C
ATOM     79   O  IDS B   4      44.824  12.035  26.0170  0.00  0.00     0.000 OA
ATOM     80   O  IDS B   4      44.755  10.049  26.8880  0.00  0.00     0.000 OA
ENDBRANCH 69 78
BRANCH 65 81
ATOM     81  O4  SGN B   5      49.206  10.634  27.2840  0.00  0.00     0.000 O
BRANCH 81 85
ATOM     82  C1  SGN B   5      51.568   8.512  24.5340  0.00  0.00     0.000 C
ATOM     83  C2  SGN B   5      50.048   8.497  24.3070  0.00  0.00     0.000 C
ATOM     84  C3  SGN B   5      49.402   9.656  25.0790  0.00  0.00     0.000 C
ATOM     85  C4  SGN B   5      49.788   9.558  26.5440  0.00  0.00     0.000 C
ATOM     86  C5  SGN B   5      51.310   9.607  26.6440  0.00  0.00     0.000 C
ATOM     87  O5  SGN B   5      51.857   8.488  25.9190  0.00  0.00     0.000 O
ATOM     88   O  SGN B   5      48.001   9.615  24.9210  0.00  0.00     0.000 O
ATOM     90  HD  SGN B   5      48.538  10.149  24.5010  0.00  0.00     0.000 HD
BRANCH 83 92
ATOM     90   N  SGN B   5      50.229   8.335  22.8510  0.00  0.00     0.000 N
ATOM     92  HD  SGN B   5      51.060   8.431  22.6280  0.00  0.00     0.000 HD
ATOM     92   S  SGN B   5      49.470   7.127  22.1300  0.00  0.00     0.000 S
ATOM     93   O  SGN B   5      49.850   7.241  20.7540  0.00  0.00     0.000 OA
ATOM     94   O  SGN B   5      49.811   5.961  22.8700  0.00  0.00     0.000 OA
ATOM     95   O  SGN B   5      48.001   7.399  22.3680  0.00  0.00     0.000 OA
ENDBRANCH 83 92
BRANCH 86 96
ATOM     96   C  SGN B   5      51.843   9.530  28.0600  0.00  0.00     0.000 C
ATOM     97   O  SGN B   5      51.371   8.347  28.7110  0.00  0.00     0.000 O
ATOM     98   S  SGN B   5      52.486   7.438  29.4190  0.00  0.00     0.000 S
ATOM     99   O  SGN B   5      51.696   6.468  30.1370  0.00  0.00     0.000 OA
ATOM    100   O  SGN B   5      53.305   6.894  28.3950  0.00  0.00     0.000 OA
ATOM    101   O  SGN B   5      53.189   8.339  30.2730  0.00  0.00     0.000 OA
ENDBRANCH 86 96
BRANCH 82 102
ATOM    102  O4  IDS B   6      52.176   9.578  23.9410  0.00  0.00     0.000 O
BRANCH 102 106
ATOM    103  C1  IDS B   6      54.472  11.260  21.6700  0.00  0.00     0.000 C
ATOM    104  C2  IDS B   6      53.539  10.149  21.1640  0.00  0.00     0.000 C
ATOM    105  C3  IDS B   6      53.508   8.897  22.0190  0.00  0.00     0.000 C
ATOM    106  C4  IDS B   6      53.508   9.203  23.5060  0.00  0.00     0.000 C
ATOM    107  C5  IDS B   6      54.513  10.319  23.8050  0.00  0.00     0.000 C
ATOM    108  O5  IDS B   6      54.241  11.498  23.0460  0.00  0.00     0.000 O
ATOM    109   O  IDS B   6      54.624   8.095  21.6690  0.00  0.00     0.000 O
ATOM    111  HD  IDS B   6      55.185   8.658  21.3240  0.00  0.00     0.000 HD
BRANCH 104 111
ATOM    111   O  IDS B   6      52.156  10.650  21.1580  0.00  0.00     0.000 O
ATOM    112   S  IDS B   6      51.445  10.881  19.7420  0.00  0.00     0.000 S
ATOM    113   O  IDS B   6      52.301  11.835  19.0540  0.00  0.00     0.000 OA
ATOM    114   O  IDS B   6      51.312   9.583  19.0720  0.00  0.00     0.000 OA
ATOM    115   O  IDS B   6      50.191  11.441  20.1990  0.00  0.00     0.000 OA
ENDBRANCH 104 111
BRANCH 107 116
ATOM    116   C  IDS B   6      54.480  10.642  25.2930  0.00  0.00     0.000 C
ATOM    117   O  IDS B   6      54.901   9.797  26.0410  0.00  0.00     0.000 OA
ATOM    118   O  IDS B   6      54.037  11.704  25.7020  0.00  0.00     0.000 OA
ENDBRANCH 107 116
BRANCH 103 119
ATOM    119  O4  SGN B   7      55.695  10.886  21.2140  0.00  0.00     0.000 O
BRANCH 119 123
ATOM    120  C1  SGN B   7      59.162  12.859  19.9580  0.00  0.00     0.000 C
ATOM    121  C2  SGN B   7      59.037  12.520  21.4560  0.00  0.00     0.000 C
ATOM    122  C3  SGN B   7      57.940  11.471  21.6800  0.00  0.00     0.000 C
ATOM    123  C4  SGN B   7      56.642  11.941  21.0440  0.00  0.00     0.000 C
ATOM    124  C5  SGN B   7      56.873  12.259  19.5580  0.00  0.00     0.000 C
ATOM    125  O5  SGN B   7      57.912  13.251  19.3940  0.00  0.00     0.000 O
ATOM    126   O  SGN B   7      57.784  11.254  23.0870  0.00  0.00     0.000 O
ATOM    128  HD  SGN B   7      58.243  11.608  22.4440  0.00  0.00     0.000 HD
BRANCH 121 130
ATOM    128   N  SGN B   7      60.262  13.306  21.6180  0.00  0.00     0.000 N
ATOM    130  HD  SGN B   7      59.928  13.698  22.3130  0.00  0.00     0.000 HD
ATOM    130   S  SGN B   7      61.320  13.015  22.7960  0.00  0.00     0.000 S
ATOM    131   O  SGN B   7      61.578  11.617  22.7290  0.00  0.00     0.000 OA
ATOM    132   O  SGN B   7      62.384  13.947  22.6820  0.00  0.00     0.000 OA
ATOM    133   O  SGN B   7      60.499  13.503  24.0380  0.00  0.00     0.000 OA
ENDBRANCH 121 130
BRANCH 124 134
ATOM    134   C  SGN B   7      55.675  12.842  18.8680  0.00  0.00     0.000 C
ATOM    135   O  SGN B   7      56.125  13.608  17.7380  0.00  0.00     0.000 O
ATOM    136   S  SGN B   7      55.009  14.177  16.7900  0.00  0.00     0.000 S
ATOM    137   O  SGN B   7      55.688  14.985  15.8040  0.00  0.00     0.000 OA
ATOM    138   O  SGN B   7      54.140  14.948  17.6490  0.00  0.00     0.000 OA
ATOM    139   O  SGN B   7      54.407  12.967  16.2520  0.00  0.00     0.000 OA
ENDBRANCH 124 134
BRANCH 120 140
ATOM    140  O4  IDS B   8      59.599  12.071  18.9700  0.00  0.00     0.000 O
BRANCH 140 144
ATOM    141  C1  IDS B   8      60.836  10.606  15.9230  0.00  0.00     0.000 C
ATOM    142  C2  IDS B   8      59.571  10.038  16.6270  0.00  0.00     0.000 C
ATOM    143  C3  IDS B   8      59.772   9.807  18.1360  0.00  0.00     0.000 C
ATOM    144  C4  IDS B   8      60.503  10.972  18.8010  0.00  0.00     0.000 C
ATOM    145  C5  IDS B   8      61.704  11.402  17.9450  0.00  0.00     0.000 C
ATOM    146  O5  IDS B   8      61.308  11.752  16.6200  0.00  0.00     0.000 O
BRANCH 142 147
ATOM    147   O  IDS B   8      58.446  10.998  16.4750  0.00  0.00     0.000 O
ATOM    148   S  IDS B   8      57.328  10.800  15.3170  0.00  0.00     0.000 S
ATOM    149   O  IDS B   8      57.858   9.864  14.3510  0.00  0.00     0.000 OA
ATOM    150   O  IDS B   8      56.150  10.296  15.9990  0.00  0.00     0.000 OA
ATOM    151   O  IDS B   8      57.134  12.118  14.7440  0.00  0.00     0.000 OA
ENDBRANCH 142 147
BRANCH 145 152
ATOM    152   C  IDS B   8      62.412  12.620  18.5030  0.00  0.00     0.000 C
ATOM    153   O  IDS B   8      62.564  13.609  17.7940  0.00  0.00     0.000 OA
ATOM    154   O  IDS B   8      62.804  12.612  19.6560  0.00  0.00     0.000 OA
ENDBRANCH 145 152
ENDBRANCH 140 144
ENDBRANCH 120 140
ENDBRANCH 119 123
ENDBRANCH 103 119
ENDBRANCH 102 106
ENDBRANCH 82 102
ENDBRANCH 81 85
ENDBRANCH 65 81
ENDBRANCH 64 68
ENDBRANCH 41 64
ENDBRANCH 40 44
ENDBRANCH 24 40
ENDBRANCH 23 27
ENDBRANCH 1 23
TORSDOF 31
ENDMDL
MODEL 38
REMARK VINA RESULT:      -3.5     17.245     21.757
ROOT
ATOM      1  C1  SGN B   1      50.709  26.819  29.5040  0.00  0.00     0.000 C
ATOM      2  C2  SGN B   1      51.970  27.034  28.6510  0.00  0.00     0.000 C
ATOM      3  C3  SGN B   1      52.823  25.762  28.6140  0.00  0.00     0.000 C
ATOM      4  C4  SGN B   1      53.163  25.314  30.0310  0.00  0.00     0.000 C
ATOM      5  C5  SGN B   1      51.880  25.258  30.8580  0.00  0.00     0.000 C
ATOM      6  O5  SGN B   1      51.215  26.535  30.8010  0.00  0.00     0.000 O
ATOM      7   O  SGN B   1      54.011  25.978  27.8610  0.00  0.00     0.000 O
ATOM      9  HD  SGN B   1      54.100  26.556  28.5000  0.00  0.00     0.000 HD
ATOM      9   O  SGN B   1      53.771  24.036  29.9880  0.00  0.00     0.000 O
ATOM     11  HD  SGN B   1      53.860  24.613  30.6270  0.00  0.00     0.000 HD
ENDROOT
BRANCH 2 13
ATOM     11   N  SGN B   1      51.506  27.396  27.2990  0.00  0.00     0.000 N
ATOM     13  HD  SGN B   1      51.795  28.005  27.8420  0.00  0.00     0.000 HD
ATOM     13   S  SGN B   1      50.879  28.839  26.9620  0.00  0.00     0.000 S
ATOM     14   O  SGN B   1      50.904  29.658  28.1100  0.00  0.00     0.000 OA
ATOM     15   O  SGN B   1      51.461  29.312  25.7520  0.00  0.00     0.000 OA
ATOM     16   O  SGN B   1      49.427  28.378  26.6250  0.00  0.00     0.000 OA
ENDBRANCH 2 13
BRANCH 5 17
ATOM     17   C  SGN B   1      52.101  24.931  32.3140  0.00  0.00     0.000 C
ATOM     18   O  SGN B   1      52.810  25.996  32.9790  0.00  0.00     0.000 O
ATOM     19   S  SGN B   1      54.011  25.549  33.9360  0.00  0.00     0.000 S
ATOM     20   O  SGN B   1      54.391  26.751  34.6470  0.00  0.00     0.000 OA
ATOM     21   O  SGN B   1      53.428  24.535  34.7830  0.00  0.00     0.000 OA
ATOM     22   O  SGN B   1      55.038  25.053  33.0460  0.00  0.00     0.000 OA
ENDBRANCH 5 17
BRANCH 1 23
ATOM     23  O4  IDS B   2      49.416  26.400  29.3860  0.00  0.00     0.000 O
BRANCH 23 27
ATOM     24  C1  IDS B   2      45.789  24.388  29.2410  0.00  0.00     0.000 C
ATOM     25  C2  IDS B   2      46.424  24.518  30.6430  0.00  0.00     0.000 C
ATOM     26  C3  IDS B   2      47.580  25.515  30.6290  0.00  0.00     0.000 C
ATOM     27  C4  IDS B   2      48.641  25.199  29.5840  0.00  0.00     0.000 C
ATOM     28  C5  IDS B   2      47.975  24.653  28.3050  0.00  0.00     0.000 C
ATOM     29  O5  IDS B   2      46.605  25.022  28.2480  0.00  0.00     0.000 O
ATOM     30   O  IDS B   2      48.216  25.513  31.9010  0.00  0.00     0.000 O
ATOM     32  HD  IDS B   2      48.755  24.844  32.0130  0.00  0.00     0.000 HD
BRANCH 25 32
ATOM     32   O  IDS B   2      45.448  24.977  31.6620  0.00  0.00     0.000 O
ATOM     33   S  IDS B   2      45.058  24.056  32.9740  0.00  0.00     0.000 S
ATOM     34   O  IDS B   2      43.929  24.715  33.6110  0.00  0.00     0.000 OA
ATOM     35   O  IDS B   2      44.712  22.711  32.5360  0.00  0.00     0.000 OA
ATOM     36   O  IDS B   2      46.226  24.075  33.8240  0.00  0.00     0.000 OA
ENDBRANCH 25 32
BRANCH 28 37
ATOM     37   C  IDS B   2      48.627  24.997  26.9490  0.00  0.00     0.000 C
ATOM     38   O  IDS B   2      47.848  25.492  26.1690  0.00  0.00     0.000 OA
ATOM     39   O  IDS B   2      49.837  24.872  26.6400  0.00  0.00     0.000 OA
ENDBRANCH 28 37
BRANCH 24 40
ATOM     40  O4  SUS B   3      44.793  23.502  29.0340  0.00  0.00     0.000 O
BRANCH 40 44
ATOM     41  C1  SUS B   3      41.464  23.705  26.4980  0.00  0.00     0.000 C
ATOM     42  C2  SUS B   3      42.853  23.629  25.8330  0.00  0.00     0.000 C
ATOM     43  C3  SUS B   3      43.864  23.086  26.8410  0.00  0.00     0.000 C
ATOM     44  C4  SUS B   3      43.824  23.951  28.0920  0.00  0.00     0.000 C
ATOM     45  C5  SUS B   3      42.439  23.869  28.6990  0.00  0.00     0.000 C
ATOM     46  O5  SUS B   3      41.498  24.404  27.7470  0.00  0.00     0.000 O
BRANCH 42 49
ATOM     47   N  SUS B   3      42.564  22.908  24.5820  0.00  0.00     0.000 N
ATOM     49  HD  SUS B   3      42.937  22.132  24.4870  0.00  0.00     0.000 HD
ATOM     49   S  SUS B   3      42.890  23.779  23.2780  0.00  0.00     0.000 S
ATOM     50   O  SUS B   3      44.242  24.178  23.2930  0.00  0.00     0.000 OA
ATOM     51   O  SUS B   3      42.666  22.646  22.2440  0.00  0.00     0.000 OA
ATOM     52   O  SUS B   3      41.914  24.785  23.1320  0.00  0.00     0.000 OA
ENDBRANCH 42 49
BRANCH 43 53
ATOM     53   O  SUS B   3      45.204  23.157  26.2250  0.00  0.00     0.000 O
ATOM     54   S  SUS B   3      45.918  21.734  25.8180  0.00  0.00     0.000 S
ATOM     55   O  SUS B   3      45.197  21.196  24.6730  0.00  0.00     0.000 OA
ATOM     56   O  SUS B   3      47.292  22.101  25.5260  0.00  0.00     0.000 OA
ATOM     57   O  SUS B   3      45.790  20.857  26.9860  0.00  0.00     0.000 OA
ENDBRANCH 43 53
BRANCH 45 58
ATOM     58   C  SUS B   3      42.348  24.626  30.0070  0.00  0.00     0.000 C
ATOM     59   S  SUS B   3      41.908  26.960  30.9780  0.00  0.00     0.000 S
ATOM     60   O  SUS B   3      41.862  25.955  29.7550  0.00  0.00     0.000 O
ATOM     61   O  SUS B   3      43.293  27.378  31.0740  0.00  0.00     0.000 OA
ATOM     62   O  SUS B   3      41.043  28.005  30.4990  0.00  0.00     0.000 OA
ATOM     63   O  SUS B   3      41.416  26.227  32.0910  0.00  0.00     0.000 OA
ENDBRANCH 45 58
BRANCH 41 64
ATOM     64  O4  IDS B   4      40.807  22.500  26.5460  0.00  0.00     0.000 O
BRANCH 64 68
ATOM     65  C1  IDS B   4      38.103  20.066  26.3580  0.00  0.00     0.000 C
ATOM     66  C2  IDS B   4      38.461  20.919  25.1340  0.00  0.00     0.000 C
ATOM     67  C3  IDS B   4      38.645  22.397  25.4310  0.00  0.00     0.000 C
ATOM     68  C4  IDS B   4      39.382  22.650  26.7330  0.00  0.00     0.000 C
ATOM     69  C5  IDS B   4      38.804  21.710  27.7990  0.00  0.00     0.000 C
ATOM     70  O5  IDS B   4      39.018  20.355  27.3990  0.00  0.00     0.000 O
ATOM     71   O  IDS B   4      37.358  22.976  25.4920  0.00  0.00     0.000 O
ATOM     73  HD  IDS B   4      37.939  22.368  25.2850  0.00  0.00     0.000 HD
BRANCH 66 73
ATOM     73   O  IDS B   4      39.752  20.463  24.6020  0.00  0.00     0.000 O
ATOM     74   S  IDS B   4      39.808  19.979  23.0590  0.00  0.00     0.000 S
ATOM     75   O  IDS B   4      38.827  18.924  22.9240  0.00  0.00     0.000 OA
ATOM     76   O  IDS B   4      41.173  19.531  22.9380  0.00  0.00     0.000 OA
ATOM     77   O  IDS B   4      39.497  21.152  22.2760  0.00  0.00     0.000 OA
ENDBRANCH 66 73
BRANCH 69 78
ATOM     78   C  IDS B   4      39.286  21.993  29.2160  0.00  0.00     0.000 C
ATOM     79   O  IDS B   4      40.072  21.204  29.7410  0.00  0.00     0.000 OA
ATOM     80   O  IDS B   4      38.955  23.064  29.7550  0.00  0.00     0.000 OA
ENDBRANCH 69 78
BRANCH 65 81
ATOM     81  O4  SGN B   5      36.780  20.218  26.6450  0.00  0.00     0.000 O
BRANCH 81 85
ATOM     82  C1  SGN B   5      33.401  18.074  27.9190  0.00  0.00     0.000 C
ATOM     83  C2  SGN B   5      34.192  18.834  28.9940  0.00  0.00     0.000 C
ATOM     84  C3  SGN B   5      35.070  19.902  28.3280  0.00  0.00     0.000 C
ATOM     85  C4  SGN B   5      35.958  19.241  27.2880  0.00  0.00     0.000 C
ATOM     86  C5  SGN B   5      35.064  18.543  26.2670  0.00  0.00     0.000 C
ATOM     87  O5  SGN B   5      34.281  17.543  26.9460  0.00  0.00     0.000 O
ATOM     88   O  SGN B   5      35.842  20.565  29.3040  0.00  0.00     0.000 O
ATOM     90  HD  SGN B   5      35.123  20.877  28.9350  0.00  0.00     0.000 HD
BRANCH 83 92
ATOM     90   N  SGN B   5      33.182  18.130  29.8090  0.00  0.00     0.000 N
ATOM     92  HD  SGN B   5      33.200  17.277  29.6570  0.00  0.00     0.000 HD
ATOM     92   S  SGN B   5      33.036  18.542  31.3460  0.00  0.00     0.000 S
ATOM     93   O  SGN B   5      32.000  17.688  31.8450  0.00  0.00     0.000 OA
ATOM     94   O  SGN B   5      34.348  18.465  31.8920  0.00  0.00     0.000 OA
ATOM     95   O  SGN B   5      32.644  20.003  31.3170  0.00  0.00     0.000 OA
ENDBRANCH 83 92
BRANCH 86 96
ATOM     96   C  SGN B   5      35.819  17.846  25.1540  0.00  0.00     0.000 C
ATOM     97   O  SGN B   5      36.665  16.823  25.6860  0.00  0.00     0.000 O
ATOM     98   S  SGN B   5      36.535  15.376  25.0070  0.00  0.00     0.000 S
ATOM     99   O  SGN B   5      37.628  14.646  25.6030  0.00  0.00     0.000 OA
ATOM    100   O  SGN B   5      35.246  14.872  25.3210  0.00  0.00     0.000 OA
ATOM    101   O  SGN B   5      36.712  15.620  23.6130  0.00  0.00     0.000 OA
ENDBRANCH 86 96
BRANCH 82 102
ATOM    102  O4  IDS B   6      32.448  18.847  27.3250  0.00  0.00     0.000 O
BRANCH 102 106
ATOM    103  C1  IDS B   6      28.931  18.942  26.3850  0.00  0.00     0.000 C
ATOM    104  C2  IDS B   6      29.437  17.939  27.4340  0.00  0.00     0.000 C
ATOM    105  C3  IDS B   6      30.693  17.181  27.0460  0.00  0.00     0.000 C
ATOM    106  C4  IDS B   6      31.717  18.060  26.3500  0.00  0.00     0.000 C
ATOM    107  C5  IDS B   6      31.015  18.967  25.3350  0.00  0.00     0.000 C
ATOM    108  O5  IDS B   6      29.997  19.762  25.9450  0.00  0.00     0.000 O
ATOM    109   O  IDS B   6      30.314  16.095  26.2170  0.00  0.00     0.000 O
ATOM    111  HD  IDS B   6      29.550  16.339  25.8900  0.00  0.00     0.000 HD
BRANCH 104 111
ATOM    111   O  IDS B   6      29.788  18.668  28.6630  0.00  0.00     0.000 O
ATOM    112   S  IDS B   6      28.872  18.445  29.9570  0.00  0.00     0.000 S
ATOM    113   O  IDS B   6      27.537  18.838  29.5340  0.00  0.00     0.000 OA
ATOM    114   O  IDS B   6      28.995  17.044  30.3770  0.00  0.00     0.000 OA
ATOM    115   O  IDS B   6      29.505  19.387  30.8560  0.00  0.00     0.000 OA
ENDBRANCH 104 111
BRANCH 107 116
ATOM    116   C  IDS B   6      32.045  19.870  24.6680  0.00  0.00     0.000 C
ATOM    117   O  IDS B   6      32.033  21.032  24.9840  0.00  0.00     0.000 OA
ATOM    118   O  IDS B   6      32.837  19.432  23.8480  0.00  0.00     0.000 OA
ENDBRANCH 107 116
BRANCH 103 119
ATOM    119  O4  SGN B   7      28.229  18.170  25.5160  0.00  0.00     0.000 O
BRANCH 119 123
ATOM    120  C1  SGN B   7      25.563  18.916  22.3820  0.00  0.00     0.000 C
ATOM    121  C2  SGN B   7      27.038  18.666  22.0190  0.00  0.00     0.000 C
ATOM    122  C3  SGN B   7      27.781  18.023  23.1970  0.00  0.00     0.000 C
ATOM    123  C4  SGN B   7      27.589  18.867  24.4470  0.00  0.00     0.000 C
ATOM    124  C5  SGN B   7      26.089  19.064  24.7190  0.00  0.00     0.000 C
ATOM    125  O5  SGN B   7      25.431  19.672  23.5840  0.00  0.00     0.000 O
ATOM    126   O  SGN B   7      29.167  17.896  22.8610  0.00  0.00     0.000 O
ATOM    128  HD  SGN B   7      28.360  18.073  22.6010  0.00  0.00     0.000 HD
BRANCH 121 130
ATOM    128   N  SGN B   7      27.002  19.266  20.6830  0.00  0.00     0.000 N
ATOM    130  HD  SGN B   7      27.868  19.289  20.6620  0.00  0.00     0.000 HD
ATOM    130   S  SGN B   7      27.398  18.440  19.3580  0.00  0.00     0.000 S
ATOM    131   O  SGN B   7      26.644  17.236  19.4310  0.00  0.00     0.000 OA
ATOM    132   O  SGN B   7      27.267  19.302  18.2390  0.00  0.00     0.000 OA
ATOM    133   O  SGN B   7      28.944  18.297  19.5680  0.00  0.00     0.000 OA
ENDBRANCH 121 130
BRANCH 124 134
ATOM    134   C  SGN B   7      25.796  19.982  25.8690  0.00  0.00     0.000 C
ATOM    135   O  SGN B   7      26.397  21.260  25.5990  0.00  0.00     0.000 O
ATOM    136   S  SGN B   7      26.076  22.413  26.6160  0.00  0.00     0.000 S
ATOM    137   O  SGN B   7      26.863  23.550  26.2030  0.00  0.00     0.000 OA
ATOM    138   O  SGN B   7      26.466  21.897  27.9090  0.00  0.00     0.000 OA
ATOM    139   O  SGN B   7      24.642  22.591  26.4450  0.00  0.00     0.000 OA
ENDBRANCH 124 134
BRANCH 120 140
ATOM    140  O4  IDS B   8      24.603  18.010  22.5990  0.00  0.00     0.000 O
BRANCH 140 144
ATOM    141  C1  IDS B   8      23.028  15.094  24.0060  0.00  0.00     0.000 C
ATOM    142  C2  IDS B   8      24.544  15.094  23.6560  0.00  0.00     0.000 C
ATOM    143  C3  IDS B   8      24.837  15.629  22.2420  0.00  0.00     0.000 C
ATOM    144  C4  IDS B   8      24.026  16.884  21.9250  0.00  0.00     0.000 C
ATOM    145  C5  IDS B   8      22.566  16.697  22.3660  0.00  0.00     0.000 C
ATOM    146  O5  IDS B   8      22.471  16.378  23.7520  0.00  0.00     0.000 O
BRANCH 142 147
ATOM    147   O  IDS B   8      25.274  15.964  24.6150  0.00  0.00     0.000 O
ATOM    148   S  IDS B   8      26.052  15.332  25.8910  0.00  0.00     0.000 S
ATOM    149   O  IDS B   8      25.564  13.984  26.0790  0.00  0.00     0.000 OA
ATOM    150   O  IDS B   8      27.461  15.377  25.5460  0.00  0.00     0.000 OA
ATOM    151   O  IDS B   8      25.712  16.192  27.0090  0.00  0.00     0.000 OA
ENDBRANCH 142 147
BRANCH 145 152
ATOM    152   C  IDS B   8      21.732  17.947  22.1680  0.00  0.00     0.000 C
ATOM    153   O  IDS B   8      21.295  18.543  23.1460  0.00  0.00     0.000 OA
ATOM    154   O  IDS B   8      21.522  18.358  21.0410  0.00  0.00     0.000 OA
ENDBRANCH 145 152
ENDBRANCH 140 144
ENDBRANCH 120 140
ENDBRANCH 119 123
ENDBRANCH 103 119
ENDBRANCH 102 106
ENDBRANCH 82 102
ENDBRANCH 81 85
ENDBRANCH 65 81
ENDBRANCH 64 68
ENDBRANCH 41 64
ENDBRANCH 40 44
ENDBRANCH 24 40
ENDBRANCH 23 27
ENDBRANCH 1 23
TORSDOF 31
ENDMDL
MODEL 39
REMARK VINA RESULT:      -3.4     23.195     33.744
ROOT
ATOM      1  C1  SGN B   1      35.575  17.380  28.4280  0.00  0.00     0.000 C
ATOM      2  C2  SGN B   1      34.058  17.131  28.4040  0.00  0.00     0.000 C
ATOM      3  C3  SGN B   1      33.644  16.426  27.1080  0.00  0.00     0.000 C
ATOM      4  C4  SGN B   1      34.110  17.232  25.8990  0.00  0.00     0.000 C
ATOM      5  C5  SGN B   1      35.591  17.563  26.0600  0.00  0.00     0.000 C
ATOM      6  O5  SGN B   1      35.800  18.236  27.3170  0.00  0.00     0.000 O
ATOM      7   O  SGN B   1      32.235  16.237  27.0690  0.00  0.00     0.000 O
ATOM      9  HD  SGN B   1      32.296  17.100  27.1070  0.00  0.00     0.000 HD
ATOM      9   O  SGN B   1      33.904  16.474  24.7210  0.00  0.00     0.000 O
ATOM     11  HD  SGN B   1      33.965  17.337  24.7590  0.00  0.00     0.000 HD
ENDROOT
BRANCH 2 13
ATOM     11   N  SGN B   1      33.672  17.712  29.7040  0.00  0.00     0.000 N
ATOM     13  HD  SGN B   1      34.270  17.087  29.6620  0.00  0.00     0.000 HD
ATOM     13   S  SGN B   1      33.759  16.879  31.0770  0.00  0.00     0.000 S
ATOM     14   O  SGN B   1      34.289  15.594  30.8340  0.00  0.00     0.000 OA
ATOM     15   O  SGN B   1      34.358  17.707  32.0690  0.00  0.00     0.000 OA
ATOM     16   O  SGN B   1      32.233  16.812  31.3950  0.00  0.00     0.000 OA
ENDBRANCH 2 13
BRANCH 5 17
ATOM     17   C  SGN B   1      36.143  18.454  24.9750  0.00  0.00     0.000 C
ATOM     18   O  SGN B   1      37.339  17.888  24.4030  0.00  0.00     0.000 O
ATOM     19   S  SGN B   1      38.561  18.899  24.1910  0.00  0.00     0.000 S
ATOM     20   O  SGN B   1      39.526  18.160  23.4050  0.00  0.00     0.000 OA
ATOM     21   O  SGN B   1      37.975  20.016  23.4870  0.00  0.00     0.000 OA
ATOM     22   O  SGN B   1      39.022  19.220  25.5240  0.00  0.00     0.000 OA
ENDBRANCH 5 17
BRANCH 1 23
ATOM     23  O4  IDS B   2      36.735  16.780  28.8210  0.00  0.00     0.000 O
BRANCH 23 27
ATOM     24  C1  IDS B   2      39.781  13.961  28.8900  0.00  0.00     0.000 C
ATOM     25  C2  IDS B   2      38.533  13.574  28.0670  0.00  0.00     0.000 C
ATOM     26  C3  IDS B   2      37.619  14.779  27.8630  0.00  0.00     0.000 C
ATOM     27  C4  IDS B   2      37.216  15.463  29.1620  0.00  0.00     0.000 C
ATOM     28  C5  IDS B   2      38.398  15.452  30.1520  0.00  0.00     0.000 C
ATOM     29  O5  IDS B   2      39.629  15.264  29.4700  0.00  0.00     0.000 O
ATOM     30   O  IDS B   2      36.426  14.357  27.2110  0.00  0.00     0.000 O
ATOM     32  HD  IDS B   2      35.859  13.980  27.7470  0.00  0.00     0.000 HD
BRANCH 25 32
ATOM     32   O  IDS B   2      38.886  13.047  26.7260  0.00  0.00     0.000 O
ATOM     33   S  IDS B   2      38.227  11.655  26.1340  0.00  0.00     0.000 S
ATOM     34   O  IDS B   2      38.965  11.341  24.9210  0.00  0.00     0.000 OA
ATOM     35   O  IDS B   2      38.359  10.597  27.1260  0.00  0.00     0.000 OA
ATOM     36   O  IDS B   2      36.847  11.969  25.8450  0.00  0.00     0.000 OA
ENDBRANCH 25 32
BRANCH 28 37
ATOM     37   C  IDS B   2      38.551  16.656  31.1050  0.00  0.00     0.000 C
ATOM     38   O  IDS B   2      39.436  17.407  30.7700  0.00  0.00     0.000 OA
ATOM     39   O  IDS B   2      37.832  16.930  32.0960  0.00  0.00     0.000 OA
ENDBRANCH 28 37
BRANCH 24 40
ATOM     40  O4  SUS B   3      40.679  13.015  29.2350  0.00  0.00     0.000 O
BRANCH 40 44
ATOM     41  C1  SUS B   3      44.842  13.433  29.4440  0.00  0.00     0.000 C
ATOM     42  C2  SUS B   3      44.077  13.322  30.7780  0.00  0.00     0.000 C
ATOM     43  C3  SUS B   3      42.703  12.707  30.5200  0.00  0.00     0.000 C
ATOM     44  C4  SUS B   3      41.986  13.532  29.4630  0.00  0.00     0.000 C
ATOM     45  C5  SUS B   3      42.788  13.488  28.1790  0.00  0.00     0.000 C
ATOM     46  O5  SUS B   3      44.074  14.091  28.4300  0.00  0.00     0.000 O
BRANCH 42 49
ATOM     47   N  SUS B   3      45.060  14.160  31.4860  0.00  0.00     0.000 N
ATOM     49  HD  SUS B   3      45.783  14.358  31.0520  0.00  0.00     0.000 HD
ATOM     49   S  SUS B   3      45.482  13.551  32.9060  0.00  0.00     0.000 S
ATOM     50   O  SUS B   3      46.002  12.252  32.7360  0.00  0.00     0.000 OA
ATOM     51   O  SUS B   3      46.620  14.561  33.2030  0.00  0.00     0.000 OA
ATOM     52   O  SUS B   3      44.421  13.715  33.8180  0.00  0.00     0.000 OA
ENDBRANCH 42 49
BRANCH 43 53
ATOM     53   O  SUS B   3      41.944  12.743  31.7850  0.00  0.00     0.000 O
ATOM     54   S  SUS B   3      41.635  11.303  32.5150  0.00  0.00     0.000 S
ATOM     55   O  SUS B   3      42.895  10.806  33.0500  0.00  0.00     0.000 OA
ATOM     56   O  SUS B   3      40.653  11.629  33.5350  0.00  0.00     0.000 OA
ATOM     57   O  SUS B   3      41.112  10.414  31.4740  0.00  0.00     0.000 OA
ENDBRANCH 43 53
BRANCH 45 58
ATOM     58   C  SUS B   3      42.086  14.206  27.0470  0.00  0.00     0.000 C
ATOM     59   S  SUS B   3      42.282  16.245  25.5010  0.00  0.00     0.000 S
ATOM     60   O  SUS B   3      42.938  15.249  26.5440  0.00  0.00     0.000 O
ATOM     61   O  SUS B   3      41.476  17.151  26.2970  0.00  0.00     0.000 OA
ATOM     62   O  SUS B   3      43.456  16.875  24.9590  0.00  0.00     0.000 OA
ATOM     63   O  SUS B   3      41.560  15.424  24.5950  0.00  0.00     0.000 OA
ENDBRANCH 45 58
BRANCH 41 64
ATOM     64  O4  IDS B   4      45.418  12.255  29.0370  0.00  0.00     0.000 O
BRANCH 64 68
ATOM     65  C1  IDS B   4      47.679   9.890  27.4330  0.00  0.00     0.000 C
ATOM     66  C2  IDS B   4      47.885  10.280  28.9020  0.00  0.00     0.000 C
ATOM     67  C3  IDS B   4      47.801  11.773  29.1720  0.00  0.00     0.000 C
ATOM     68  C4  IDS B   4      46.694  12.453  28.3890  0.00  0.00     0.000 C
ATOM     69  C5  IDS B   4      46.736  11.927  26.9480  0.00  0.00     0.000 C
ATOM     70  O5  IDS B   4      46.502  10.516  26.9550  0.00  0.00     0.000 O
ATOM     71   O  IDS B   4      49.049  12.334  28.8200  0.00  0.00     0.000 O
ATOM     73  HD  IDS B   4      48.504  11.694  29.0280  0.00  0.00     0.000 HD
BRANCH 66 73
ATOM     73   O  IDS B   4      46.814   9.676  29.7070  0.00  0.00     0.000 O
ATOM     74   S  IDS B   4      47.225   8.550  30.7930  0.00  0.00     0.000 S
ATOM     75   O  IDS B   4      47.927   7.515  30.0640  0.00  0.00     0.000 OA
ATOM     76   O  IDS B   4      45.938   8.141  31.2970  0.00  0.00     0.000 OA
ATOM     77   O  IDS B   4      48.053   9.230  31.7600  0.00  0.00     0.000 OA
ENDBRANCH 66 73
BRANCH 69 78
ATOM     78   C  IDS B   4      45.829  12.673  25.9790  0.00  0.00     0.000 C
ATOM     79   O  IDS B   4      46.046  13.865  25.7650  0.00  0.00     0.000 OA
ATOM     80   O  IDS B   4      44.967  12.029  25.3540  0.00  0.00     0.000 OA
ENDBRANCH 69 78
BRANCH 65 81
ATOM     81  O4  SGN B   5      48.825  10.125  26.7370  0.00  0.00     0.000 O
BRANCH 81 85
ATOM     82  C1  SGN B   5      51.263   8.529  23.7120  0.00  0.00     0.000 C
ATOM     83  C2  SGN B   5      50.204   9.556  23.2850  0.00  0.00     0.000 C
ATOM     84  C3  SGN B   5      49.744  10.359  24.5100  0.00  0.00     0.000 C
ATOM     85  C4  SGN B   5      49.250   9.401  25.5800  0.00  0.00     0.000 C
ATOM     86  C5  SGN B   5      50.390   8.450  25.9360  0.00  0.00     0.000 C
ATOM     87  O5  SGN B   5      50.763   7.714  24.7560  0.00  0.00     0.000 O
ATOM     88   O  SGN B   5      48.730  11.266  24.1360  0.00  0.00     0.000 O
ATOM     90  HD  SGN B   5      49.561  11.469  24.2720  0.00  0.00     0.000 HD
BRANCH 83 92
ATOM     90   N  SGN B   5      51.044   9.948  22.1370  0.00  0.00     0.000 N
ATOM     92  HD  SGN B   5      51.814   9.552  22.1650  0.00  0.00     0.000 HD
ATOM     92   S  SGN B   5      50.364  10.000  20.6910  0.00  0.00     0.000 S
ATOM     93   O  SGN B   5      51.424  10.398  19.8150  0.00  0.00     0.000 OA
ATOM     94   O  SGN B   5      49.730   8.738  20.5170  0.00  0.00     0.000 OA
ATOM     95   O  SGN B   5      49.272  11.040  20.8180  0.00  0.00     0.000 OA
ENDBRANCH 83 92
BRANCH 86 96
ATOM     96   C  SGN B   5      50.042   7.438  27.0080  0.00  0.00     0.000 C
ATOM     97   O  SGN B   5      48.952   6.615  26.5860  0.00  0.00     0.000 O
ATOM     98   S  SGN B   5      49.171   5.032  26.7160  0.00  0.00     0.000 S
ATOM     99   O  SGN B   5      47.861   4.504  26.4190  0.00  0.00     0.000 OA
ATOM    100   O  SGN B   5      50.182   4.664  25.7910  0.00  0.00     0.000 OA
ATOM    101   O  SGN B   5      49.564   4.838  28.0740  0.00  0.00     0.000 OA
ENDBRANCH 86 96
BRANCH 82 102
ATOM    102  O4  IDS B   6      52.438   9.111  24.0850  0.00  0.00     0.000 O
BRANCH 102 106
ATOM    103  C1  IDS B   6      56.022   9.670  23.7730  0.00  0.00     0.000 C
ATOM    104  C2  IDS B   6      55.142   9.501  22.5250  0.00  0.00     0.000 C
ATOM    105  C3  IDS B   6      54.179   8.330  22.5710  0.00  0.00     0.000 C
ATOM    106  C4  IDS B   6      53.525   8.163  23.9310  0.00  0.00     0.000 C
ATOM    107  C5  IDS B   6      54.570   8.349  25.0350  0.00  0.00     0.000 C
ATOM    108  O5  IDS B   6      55.224   9.616  24.9400  0.00  0.00     0.000 O
ATOM    109   O  IDS B   6      54.890   7.159  22.2070  0.00  0.00     0.000 O
ATOM    111  HD  IDS B   6      55.716   7.355  22.3780  0.00  0.00     0.000 HD
BRANCH 104 111
ATOM    111   O  IDS B   6      54.295  10.694  22.3700  0.00  0.00     0.000 O
ATOM    112   S  IDS B   6      54.680  11.747  21.2270  0.00  0.00     0.000 S
ATOM    113   O  IDS B   6      56.035  12.163  21.5540  0.00  0.00     0.000 OA
ATOM    114   O  IDS B   6      54.538  11.090  19.9230  0.00  0.00     0.000 OA
ATOM    115   O  IDS B   6      53.677  12.756  21.4920  0.00  0.00     0.000 OA
ENDBRANCH 104 111
BRANCH 107 116
ATOM    116   C  IDS B   6      53.897   8.215  26.3950  0.00  0.00     0.000 C
ATOM    117   O  IDS B   6      53.567   7.106  26.7290  0.00  0.00     0.000 OA
ATOM    118   O  IDS B   6      53.695   9.190  27.1020  0.00  0.00     0.000 OA
ENDBRANCH 107 116
BRANCH 103 119
ATOM    119  O4  SGN B   7      57.038   8.793  23.5710  0.00  0.00     0.000 O
BRANCH 119 123
ATOM    120  C1  SGN B   7      61.100   8.580  24.5430  0.00  0.00     0.000 C
ATOM    121  C2  SGN B   7      60.084   8.226  25.6450  0.00  0.00     0.000 C
ATOM    122  C3  SGN B   7      58.701   7.962  25.0360  0.00  0.00     0.000 C
ATOM    123  C4  SGN B   7      58.286   9.141  24.1710  0.00  0.00     0.000 C
ATOM    124  C5  SGN B   7      59.365   9.417  23.1120  0.00  0.00     0.000 C
ATOM    125  O5  SGN B   7      60.649   9.662  23.7290  0.00  0.00     0.000 O
ATOM    126   O  SGN B   7      57.762   7.734  26.0930  0.00  0.00     0.000 O
ATOM    128  HD  SGN B   7      58.588   7.829  25.8500  0.00  0.00     0.000 HD
BRANCH 121 130
ATOM    128   N  SGN B   7      61.247   8.161  26.5330  0.00  0.00     0.000 N
ATOM    130  HD  SGN B   7      60.818   8.607  27.1390  0.00  0.00     0.000 HD
ATOM    130   S  SGN B   7      61.282   7.215  27.8350  0.00  0.00     0.000 S
ATOM    131   O  SGN B   7      60.881   5.930  27.3730  0.00  0.00     0.000 OA
ATOM    132   O  SGN B   7      62.535   7.387  28.4780  0.00  0.00     0.000 OA
ATOM    133   O  SGN B   7      60.259   7.964  28.7550  0.00  0.00     0.000 OA
ENDBRANCH 121 130
BRANCH 124 134
ATOM    134   C  SGN B   7      59.101  10.638  22.2800  0.00  0.00     0.000 C
ATOM    135   O  SGN B   7      60.356  11.130  21.7780  0.00  0.00     0.000 O
ATOM    136   S  SGN B   7      60.282  12.320  20.7560  0.00  0.00     0.000 S
ATOM    137   O  SGN B   7      61.646  12.704  20.4800  0.00  0.00     0.000 OA
ATOM    138   O  SGN B   7      59.530  13.354  21.4310  0.00  0.00     0.000 OA
ATOM    139   O  SGN B   7      59.595  11.718  19.6240  0.00  0.00     0.000 OA
ENDBRANCH 124 134
BRANCH 120 140
ATOM    140  O4  IDS B   8      61.584   7.785  23.5830  0.00  0.00     0.000 O
BRANCH 140 144
ATOM    141  C1  IDS B   8      63.465   6.174  20.9690  0.00  0.00     0.000 C
ATOM    142  C2  IDS B   8      61.931   6.393  20.8320  0.00  0.00     0.000 C
ATOM    143  C3  IDS B   8      61.143   5.944  22.0770  0.00  0.00     0.000 C
ATOM    144  C4  IDS B   8      61.820   6.387  23.3730  0.00  0.00     0.000 C
ATOM    145  C5  IDS B   8      63.329   6.110  23.3040  0.00  0.00     0.000 C
ATOM    146  O5  IDS B   8      63.932   6.751  22.1820  0.00  0.00     0.000 O
BRANCH 142 147
ATOM    147   O  IDS B   8      61.653   7.840  20.6340  0.00  0.00     0.000 O
ATOM    148   S  IDS B   8      61.382   8.445  19.1540  0.00  0.00     0.000 S
ATOM    149   O  IDS B   8      61.843   7.470  18.1910  0.00  0.00     0.000 OA
ATOM    150   O  IDS B   8      59.950   8.670  19.0840  0.00  0.00     0.000 OA
ATOM    151   O  IDS B   8      62.154   9.671  19.0940  0.00  0.00     0.000 OA
ENDBRANCH 142 147
BRANCH 145 152
ATOM    152   C  IDS B   8      64.072   6.619  24.5230  0.00  0.00     0.000 C
ATOM    153   O  IDS B   8      64.937   7.477  24.3900  0.00  0.00     0.000 OA
ATOM    154   O  IDS B   8      63.787   6.185  25.6250  0.00  0.00     0.000 OA
ENDBRANCH 145 152
ENDBRANCH 140 144
ENDBRANCH 120 140
ENDBRANCH 119 123
ENDBRANCH 103 119
ENDBRANCH 102 106
ENDBRANCH 82 102
ENDBRANCH 81 85
ENDBRANCH 65 81
ENDBRANCH 64 68
ENDBRANCH 41 64
ENDBRANCH 40 44
ENDBRANCH 24 40
ENDBRANCH 23 27
ENDBRANCH 1 23
TORSDOF 31
ENDMDL
MODEL 40
REMARK VINA RESULT:      -3.3     17.462     26.568
ROOT
ATOM      1  C1  SGN B   1      51.080  26.274  30.2040  0.00  0.00     0.000 C
ATOM      2  C2  SGN B   1      52.194  25.329  30.6840  0.00  0.00     0.000 C
ATOM      3  C3  SGN B   1      51.613  24.195  31.5360  0.00  0.00     0.000 C
ATOM      4  C4  SGN B   1      50.812  24.770  32.7000  0.00  0.00     0.000 C
ATOM      5  C5  SGN B   1      49.825  25.803  32.1650  0.00  0.00     0.000 C
ATOM      6  O5  SGN B   1      50.536  26.801  31.4070  0.00  0.00     0.000 O
ATOM      7   O  SGN B   1      52.651  23.348  32.0150  0.00  0.00     0.000 O
ATOM      9  HD  SGN B   1      52.866  24.108  32.3700  0.00  0.00     0.000 HD
ATOM      9   O  SGN B   1      50.118  23.724  33.3550  0.00  0.00     0.000 O
ATOM     11  HD  SGN B   1      50.333  24.484  33.7100  0.00  0.00     0.000 HD
ENDROOT
BRANCH 2 13
ATOM     11   N  SGN B   1      53.426  25.895  30.1020  0.00  0.00     0.000 N
ATOM     13  HD  SGN B   1      52.726  25.762  29.6080  0.00  0.00     0.000 HD
ATOM     13   S  SGN B   1      53.820  25.687  28.5560  0.00  0.00     0.000 S
ATOM     14   O  SGN B   1      52.811  24.959  27.8910  0.00  0.00     0.000 OA
ATOM     15   O  SGN B   1      54.243  26.940  28.0270  0.00  0.00     0.000 OA
ATOM     16   O  SGN B   1      55.100  24.821  28.7670  0.00  0.00     0.000 OA
ENDBRANCH 2 13
BRANCH 5 17
ATOM     17   C  SGN B   1      49.047  26.524  33.2380  0.00  0.00     0.000 C
ATOM     18   O  SGN B   1      49.904  26.885  34.3400  0.00  0.00     0.000 O
ATOM     19   S  SGN B   1      49.328  26.590  35.8020  0.00  0.00     0.000 S
ATOM     20   O  SGN B   1      50.249  27.245  36.7070  0.00  0.00     0.000 OA
ATOM     21   O  SGN B   1      48.011  27.183  35.7880  0.00  0.00     0.000 OA
ATOM     22   O  SGN B   1      49.323  25.149  35.9220  0.00  0.00     0.000 OA
ENDBRANCH 5 17
BRANCH 1 23
ATOM     23  O4  IDS B   2      50.211  26.438  29.1670  0.00  0.00     0.000 O
BRANCH 23 27
ATOM     24  C1  IDS B   2      46.960  25.982  26.6260  0.00  0.00     0.000 C
ATOM     25  C2  IDS B   2      47.157  27.398  27.2100  0.00  0.00     0.000 C
ATOM     26  C3  IDS B   2      48.524  27.529  27.8760  0.00  0.00     0.000 C
ATOM     27  C4  IDS B   2      48.787  26.468  28.9370  0.00  0.00     0.000 C
ATOM     28  C5  IDS B   2      48.183  25.120  28.4940  0.00  0.00     0.000 C
ATOM     29  O5  IDS B   2      47.983  25.090  27.0890  0.00  0.00     0.000 O
ATOM     30   O  IDS B   2      48.617  28.800  28.5080  0.00  0.00     0.000 O
ATOM     32  HD  IDS B   2      48.209  28.833  29.2710  0.00  0.00     0.000 HD
BRANCH 25 32
ATOM     32   O  IDS B   2      47.062  28.452  26.1700  0.00  0.00     0.000 O
ATOM     33   S  IDS B   2      45.905  29.628  26.2230  0.00  0.00     0.000 S
ATOM     34   O  IDS B   2      45.979  30.326  24.9500  0.00  0.00     0.000 OA
ATOM     35   O  IDS B   2      44.599  29.013  26.4170  0.00  0.00     0.000 OA
ATOM     36   O  IDS B   2      46.276  30.491  27.3200  0.00  0.00     0.000 OA
ENDBRANCH 25 32
BRANCH 28 37
ATOM     37   C  IDS B   2      48.922  23.830  28.9060  0.00  0.00     0.000 C
ATOM     38   O  IDS B   2      48.525  23.378  29.9540  0.00  0.00     0.000 OA
ATOM     39   O  IDS B   2      49.800  23.219  28.2480  0.00  0.00     0.000 OA
ENDBRANCH 28 37
BRANCH 24 40
ATOM     40  O4  SUS B   3      45.784  25.648  26.0550  0.00  0.00     0.000 O
BRANCH 40 44
ATOM     41  C1  SUS B   3      44.968  23.159  22.7850  0.00  0.00     0.000 C
ATOM     42  C2  SUS B   3      45.431  22.480  24.0890  0.00  0.00     0.000 C
ATOM     43  C3  SUS B   3      45.215  23.438  25.2590  0.00  0.00     0.000 C
ATOM     44  C4  SUS B   3      45.924  24.749  24.9600  0.00  0.00     0.000 C
ATOM     45  C5  SUS B   3      45.319  25.359  23.7120  0.00  0.00     0.000 C
ATOM     46  O5  SUS B   3      45.550  24.456  22.6120  0.00  0.00     0.000 O
BRANCH 42 49
ATOM     47   N  SUS B   3      46.120  21.383  23.3880  0.00  0.00     0.000 N
ATOM     49  HD  SUS B   3      46.020  21.351  22.5280  0.00  0.00     0.000 HD
ATOM     49   S  SUS B   3      45.754  19.942  23.9860  0.00  0.00     0.000 S
ATOM     50   O  SUS B   3      44.360  19.739  23.9300  0.00  0.00     0.000 OA
ATOM     51   O  SUS B   3      46.472  19.108  22.8940  0.00  0.00     0.000 OA
ATOM     52   O  SUS B   3      46.388  19.780  25.2340  0.00  0.00     0.000 OA
ENDBRANCH 42 49
BRANCH 43 53
ATOM     53   O  SUS B   3      45.794  22.818  26.4670  0.00  0.00     0.000 O
ATOM     54   S  SUS B   3      44.751  22.381  27.6590  0.00  0.00     0.000 S
ATOM     55   O  SUS B   3      44.001  21.227  27.1810  0.00  0.00     0.000 OA
ATOM     56   O  SUS B   3      45.613  22.091  28.7920  0.00  0.00     0.000 OA
ATOM     57   O  SUS B   3      43.870  23.531  27.8830  0.00  0.00     0.000 OA
ENDBRANCH 43 53
BRANCH 45 58
ATOM     58   C  SUS B   3      45.906  26.719  23.4050  0.00  0.00     0.000 C
ATOM     59   S  SUS B   3      47.873  27.863  22.2170  0.00  0.00     0.000 S
ATOM     60   O  SUS B   3      47.000  26.569  22.4840  0.00  0.00     0.000 O
ATOM     61   O  SUS B   3      48.736  27.985  23.3770  0.00  0.00     0.000 OA
ATOM     62   O  SUS B   3      48.586  27.466  21.0330  0.00  0.00     0.000 OA
ATOM     63   O  SUS B   3      46.941  28.920  22.0400  0.00  0.00     0.000 OA
ENDBRANCH 45 58
BRANCH 41 64
ATOM     64  O4  IDS B   4      43.608  23.123  22.5950  0.00  0.00     0.000 O
BRANCH 64 68
ATOM     65  C1  IDS B   4      40.376  22.953  20.9220  0.00  0.00     0.000 C
ATOM     66  C2  IDS B   4      41.354  21.775  20.8340  0.00  0.00     0.000 C
ATOM     67  C3  IDS B   4      42.785  22.170  20.5110  0.00  0.00     0.000 C
ATOM     68  C4  IDS B   4      43.227  23.428  21.2350  0.00  0.00     0.000 C
ATOM     69  C5  IDS B   4      42.096  24.460  21.1340  0.00  0.00     0.000 C
ATOM     70  O5  IDS B   4      40.928  23.941  21.7740  0.00  0.00     0.000 O
ATOM     71   O  IDS B   4      42.860  22.372  19.1150  0.00  0.00     0.000 O
ATOM     73  HD  IDS B   4      42.511  22.076  19.8500  0.00  0.00     0.000 HD
BRANCH 66 73
ATOM     73   O  IDS B   4      41.417  21.113  22.1450  0.00  0.00     0.000 O
ATOM     74   S  IDS B   4      40.925  19.575  22.2420  0.00  0.00     0.000 S
ATOM     75   O  IDS B   4      39.565  19.548  21.7490  0.00  0.00     0.000 OA
ATOM     76   O  IDS B   4      41.042  19.316  23.6550  0.00  0.00     0.000 OA
ATOM     77   O  IDS B   4      41.845  18.824  21.4220  0.00  0.00     0.000 OA
ENDBRANCH 66 73
BRANCH 69 78
ATOM     78   C  IDS B   4      42.469  25.853  21.6210  0.00  0.00     0.000 C
ATOM     79   O  IDS B   4      43.251  26.524  20.9490  0.00  0.00     0.000 OA
ATOM     80   O  IDS B   4      41.891  26.308  22.6250  0.00  0.00     0.000 OA
ENDBRANCH 69 78
BRANCH 65 81
ATOM     81  O4  SGN B   5      40.030  23.350  19.6660  0.00  0.00     0.000 O
BRANCH 81 85
ATOM     82  C1  SGN B   5      36.777  24.642  17.3450  0.00  0.00     0.000 C
ATOM     83  C2  SGN B   5      37.585  25.724  18.0770  0.00  0.00     0.000 C
ATOM     84  C3  SGN B   5      38.958  25.160  18.4710  0.00  0.00     0.000 C
ATOM     85  C4  SGN B   5      38.764  23.900  19.2950  0.00  0.00     0.000 C
ATOM     86  C5  SGN B   5      37.973  22.897  18.4590  0.00  0.00     0.000 C
ATOM     87  O5  SGN B   5      36.692  23.472  18.1380  0.00  0.00     0.000 O
ATOM     88   O  SGN B   5      39.684  26.130  19.1940  0.00  0.00     0.000 O
ATOM     90  HD  SGN B   5      39.804  25.932  18.3590  0.00  0.00     0.000 HD
BRANCH 83 92
ATOM     90   N  SGN B   5      36.394  26.585  17.9400  0.00  0.00     0.000 N
ATOM     92  HD  SGN B   5      35.844  26.460  18.5970  0.00  0.00     0.000 HD
ATOM     92   S  SGN B   5      36.615  28.112  17.5230  0.00  0.00     0.000 S
ATOM     93   O  SGN B   5      35.294  28.663  17.4850  0.00  0.00     0.000 OA
ATOM     94   O  SGN B   5      37.576  28.626  18.4380  0.00  0.00     0.000 OA
ATOM     95   O  SGN B   5      37.275  28.047  16.1630  0.00  0.00     0.000 OA
ENDBRANCH 83 92
BRANCH 86 96
ATOM     96   C  SGN B   5      37.713  21.577  19.1550  0.00  0.00     0.000 C
ATOM     97   O  SGN B   5      36.388  21.545  19.6920  0.00  0.00     0.000 O
ATOM     98   S  SGN B   5      35.505  20.260  19.3180  0.00  0.00     0.000 S
ATOM     99   O  SGN B   5      34.339  20.421  20.1530  0.00  0.00     0.000 OA
ATOM    100   O  SGN B   5      35.247  20.312  17.9240  0.00  0.00     0.000 OA
ATOM    101   O  SGN B   5      36.319  19.149  19.6920  0.00  0.00     0.000 OA
ENDBRANCH 86 96
BRANCH 82 102
ATOM    102  O4  IDS B   6      37.288  24.347  16.1170  0.00  0.00     0.000 O
BRANCH 102 106
ATOM    103  C1  IDS B   6      35.957  23.382  12.8680  0.00  0.00     0.000 C
ATOM    104  C2  IDS B   6      35.020  23.839  13.9960  0.00  0.00     0.000 C
ATOM    105  C3  IDS B   6      35.281  23.201  15.3470  0.00  0.00     0.000 C
ATOM    106  C4  IDS B   6      36.762  23.075  15.6590  0.00  0.00     0.000 C
ATOM    107  C5  IDS B   6      37.513  22.590  14.4160  0.00  0.00     0.000 C
ATOM    108  O5  IDS B   6      37.304  23.453  13.2970  0.00  0.00     0.000 O
ATOM    109   O  IDS B   6      34.652  21.930  15.3640  0.00  0.00     0.000 O
ATOM    111  HD  IDS B   6      34.581  21.722  14.5260  0.00  0.00     0.000 HD
BRANCH 104 111
ATOM    111   O  IDS B   6      35.195  25.284  14.2080  0.00  0.00     0.000 O
ATOM    112   S  IDS B   6      33.898  26.219  14.1370  0.00  0.00     0.000 S
ATOM    113   O  IDS B   6      33.358  25.995  12.8050  0.00  0.00     0.000 OA
ATOM    114   O  IDS B   6      32.997  25.847  15.2340  0.00  0.00     0.000 OA
ATOM    115   O  IDS B   6      34.530  27.510  14.3050  0.00  0.00     0.000 OA
ENDBRANCH 104 111
BRANCH 107 116
ATOM    116   C  IDS B   6      39.001  22.501  14.7290  0.00  0.00     0.000 C
ATOM    117   O  IDS B   6      39.332  21.702  15.5680  0.00  0.00     0.000 OA
ATOM    118   O  IDS B   6      39.813  23.214  14.1610  0.00  0.00     0.000 OA
ENDBRANCH 107 116
BRANCH 103 119
ATOM    119  O4  SGN B   7      35.410  22.211  12.4500  0.00  0.00     0.000 O
BRANCH 119 123
ATOM    120  C1  SGN B   7      35.640  19.822   9.0250  0.00  0.00     0.000 C
ATOM    121  C2  SGN B   7      36.726  19.634  10.1010  0.00  0.00     0.000 C
ATOM    122  C3  SGN B   7      36.285  20.265  11.4280  0.00  0.00     0.000 C
ATOM    123  C4  SGN B   7      35.889  21.714  11.2000  0.00  0.00     0.000 C
ATOM    124  C5  SGN B   7      34.809  21.796  10.1080  0.00  0.00     0.000 C
ATOM    125  O5  SGN B   7      35.268  21.192   8.8780  0.00  0.00     0.000 O
ATOM    126   O  SGN B   7      37.355  20.158  12.3730  0.00  0.00     0.000 O
ATOM    128  HD  SGN B   7      37.029  19.934  11.6030  0.00  0.00     0.000 HD
BRANCH 121 130
ATOM    128   N  SGN B   7      36.923  18.333   9.4560  0.00  0.00     0.000 N
ATOM    130  HD  SGN B   7      37.447  18.695   8.8700  0.00  0.00     0.000 HD
ATOM    130   S  SGN B   7      38.301  17.510   9.5820  0.00  0.00     0.000 S
ATOM    131   O  SGN B   7      38.586  17.473  10.9760  0.00  0.00     0.000 OA
ATOM    132   O  SGN B   7      38.172  16.306   8.8440  0.00  0.00     0.000 OA
ATOM    133   O  SGN B   7      39.245  18.408   8.7120  0.00  0.00     0.000 OA
ENDBRANCH 121 130
BRANCH 124 134
ATOM    134   C  SGN B   7      34.434  23.199   9.7290  0.00  0.00     0.000 C
ATOM    135   O  SGN B   7      33.261  23.150   8.9000  0.00  0.00     0.000 O
ATOM    136   S  SGN B   7      32.615  24.531   8.5200  0.00  0.00     0.000 S
ATOM    137   O  SGN B   7      31.533  24.237   7.6120  0.00  0.00     0.000 OA
ATOM    138   O  SGN B   7      33.680  25.290   7.9030  0.00  0.00     0.000 OA
ATOM    139   O  SGN B   7      32.183  25.040   9.8120  0.00  0.00     0.000 OA
ENDBRANCH 124 134
BRANCH 120 140
ATOM    140  O4  IDS B   8      34.423  19.269   8.9780  0.00  0.00     0.000 O
BRANCH 140 144
ATOM    141  C1  IDS B   8      31.036  18.326   9.7520  0.00  0.00     0.000 C
ATOM    142  C2  IDS B   8      32.125  18.377  10.8610  0.00  0.00     0.000 C
ATOM    143  C3  IDS B   8      33.423  17.647  10.4670  0.00  0.00     0.000 C
ATOM    144  C4  IDS B   8      33.843  17.960   9.0320  0.00  0.00     0.000 C
ATOM    145  C5  IDS B   8      32.628  17.883   8.0950  0.00  0.00     0.000 C
ATOM    146  O5  IDS B   8      31.584  18.759   8.5130  0.00  0.00     0.000 O
BRANCH 142 147
ATOM    147   O  IDS B   8      32.484  19.792  11.1390  0.00  0.00     0.000 O
ATOM    148   S  IDS B   8      31.838  20.587  12.3970  0.00  0.00     0.000 S
ATOM    149   O  IDS B   8      30.683  19.840  12.8410  0.00  0.00     0.000 OA
ATOM    150   O  IDS B   8      32.888  20.645  13.3980  0.00  0.00     0.000 OA
ATOM    151   O  IDS B   8      31.473  21.891  11.8780  0.00  0.00     0.000 OA
ENDBRANCH 142 147
BRANCH 145 152
ATOM    152   C  IDS B   8      32.962  18.281   6.6720  0.00  0.00     0.000 C
ATOM    153   O  IDS B   8      33.824  17.662   6.0580  0.00  0.00     0.000 OA
ATOM    154   O  IDS B   8      32.357  19.197   6.1460  0.00  0.00     0.000 OA
ENDBRANCH 145 152
ENDBRANCH 140 144
ENDBRANCH 120 140
ENDBRANCH 119 123
ENDBRANCH 103 119
ENDBRANCH 102 106
ENDBRANCH 82 102
ENDBRANCH 81 85
ENDBRANCH 65 81
ENDBRANCH 64 68
ENDBRANCH 41 64
ENDBRANCH 40 44
ENDBRANCH 24 40
ENDBRANCH 23 27
ENDBRANCH 1 23
TORSDOF 31
ENDMDL
MODEL 41
REMARK VINA RESULT:      -3.1     13.239     18.039
ROOT
ATOM      1  C1  SGN B   1      39.711  31.484  31.4440  0.00  0.00     0.000 C
ATOM      2  C2  SGN B   1      41.181  31.660  31.8600  0.00  0.00     0.000 C
ATOM      3  C3  SGN B   1      41.354  31.410  33.3620  0.00  0.00     0.000 C
ATOM      4  C4  SGN B   1      40.424  32.320  34.1580  0.00  0.00     0.000 C
ATOM      5  C5  SGN B   1      39.008  32.198  33.5980  0.00  0.00     0.000 C
ATOM      6  O5  SGN B   1      39.023  32.483  32.1850  0.00  0.00     0.000 O
ATOM      7   O  SGN B   1      42.707  31.617  33.7510  0.00  0.00     0.000 O
ATOM      9  HD  SGN B   1      42.488  32.400  33.4510  0.00  0.00     0.000 HD
ATOM      9   O  SGN B   1      40.444  31.937  35.5210  0.00  0.00     0.000 O
ATOM     11  HD  SGN B   1      40.225  32.720  35.2210  0.00  0.00     0.000 HD
ENDROOT
BRANCH 2 13
ATOM     11   N  SGN B   1      41.844  32.003  30.5870  0.00  0.00     0.000 N
ATOM     13  HD  SGN B   1      41.338  31.302  30.6450  0.00  0.00     0.000 HD
ATOM     13   S  SGN B   1      42.248  30.886  29.5010  0.00  0.00     0.000 S
ATOM     14   O  SGN B   1      41.830  29.611  29.9370  0.00  0.00     0.000 OA
ATOM     15   O  SGN B   1      41.855  31.349  28.2120  0.00  0.00     0.000 OA
ATOM     16   O  SGN B   1      43.798  31.038  29.5920  0.00  0.00     0.000 OA
ENDBRANCH 2 13
BRANCH 5 17
ATOM     17   C  SGN B   1      38.013  33.136  34.2350  0.00  0.00     0.000 C
ATOM     18   O  SGN B   1      37.173  32.435  35.1730  0.00  0.00     0.000 O
ATOM     19   S  SGN B   1      35.608  32.757  35.0900  0.00  0.00     0.000 S
ATOM     20   O  SGN B   1      35.033  32.127  36.2600  0.00  0.00     0.000 OA
ATOM     21   O  SGN B   1      35.543  34.199  35.1190  0.00  0.00     0.000 OA
ATOM     22   O  SGN B   1      35.169  32.172  33.8420  0.00  0.00     0.000 OA
ENDBRANCH 5 17
BRANCH 1 23
ATOM     23  O4  IDS B   2      38.848  30.524  31.0070  0.00  0.00     0.000 O
BRANCH 23 27
ATOM     24  C1  IDS B   2      36.458  27.129  31.0100  0.00  0.00     0.000 C
ATOM     25  C2  IDS B   2      37.322  27.338  32.2730  0.00  0.00     0.000 C
ATOM     26  C3  IDS B   2      37.922  28.741  32.2990  0.00  0.00     0.000 C
ATOM     27  C4  IDS B   2      38.711  29.088  31.0440  0.00  0.00     0.000 C
ATOM     28  C5  IDS B   2      38.023  28.481  29.8040  0.00  0.00     0.000 C
ATOM     29  O5  IDS B   2      36.658  28.195  30.0710  0.00  0.00     0.000 O
ATOM     30   O  IDS B   2      38.807  28.852  33.4070  0.00  0.00     0.000 O
ATOM     32  HD  IDS B   2      39.581  28.491  33.2630  0.00  0.00     0.000 HD
BRANCH 25 32
ATOM     32   O  IDS B   2      36.542  27.161  33.5230  0.00  0.00     0.000 O
ATOM     33   S  IDS B   2      36.912  25.988  34.6230  0.00  0.00     0.000 S
ATOM     34   O  IDS B   2      35.818  25.972  35.5810  0.00  0.00     0.000 OA
ATOM     35   O  IDS B   2      37.041  24.708  33.9410  0.00  0.00     0.000 OA
ATOM     36   O  IDS B   2      38.147  26.410  35.2420  0.00  0.00     0.000 OA
ENDBRANCH 25 32
BRANCH 28 37
ATOM     37   C  IDS B   2      38.103  29.266  28.4790  0.00  0.00     0.000 C
ATOM     38   O  IDS B   2      37.052  29.780  28.1750  0.00  0.00     0.000 OA
ATOM     39   O  IDS B   2      39.125  29.454  27.7740  0.00  0.00     0.000 OA
ENDBRANCH 28 37
BRANCH 24 40
ATOM     40  O4  SUS B   3      35.895  25.927  30.7710  0.00  0.00     0.000 O
BRANCH 40 44
ATOM     41  C1  SUS B   3      32.242  24.949  28.9700  0.00  0.00     0.000 C
ATOM     42  C2  SUS B   3      33.330  25.567  28.0680  0.00  0.00     0.000 C
ATOM     43  C3  SUS B   3      34.691  25.407  28.7410  0.00  0.00     0.000 C
ATOM     44  C4  SUS B   3      34.625  26.014  30.1340  0.00  0.00     0.000 C
ATOM     45  C5  SUS B   3      33.589  25.264  30.9460  0.00  0.00     0.000 C
ATOM     46  O5  SUS B   3      32.306  25.441  30.3130  0.00  0.00     0.000 O
BRANCH 42 49
ATOM     47   N  SUS B   3      33.113  24.952  26.7470  0.00  0.00     0.000 N
ATOM     49  HD  SUS B   3      33.770  24.490  26.4230  0.00  0.00     0.000 HD
ATOM     49   S  SUS B   3      32.658  26.016  25.6380  0.00  0.00     0.000 S
ATOM     50   O  SUS B   3      33.621  27.040  25.5320  0.00  0.00     0.000 OA
ATOM     51   O  SUS B   3      32.745  25.057  24.4230  0.00  0.00     0.000 OA
ATOM     52   O  SUS B   3      31.323  26.397  25.8770  0.00  0.00     0.000 OA
ENDBRANCH 42 49
BRANCH 43 53
ATOM     53   O  SUS B   3      35.688  26.128  27.9260  0.00  0.00     0.000 O
ATOM     54   S  SUS B   3      36.816  25.221  27.1470  0.00  0.00     0.000 S
ATOM     55   O  SUS B   3      36.140  24.520  26.0640  0.00  0.00     0.000 OA
ATOM     56   O  SUS B   3      37.796  26.192  26.6940  0.00  0.00     0.000 OA
ATOM     57   O  SUS B   3      37.349  24.281  28.1370  0.00  0.00     0.000 OA
ENDBRANCH 43 53
BRANCH 45 58
ATOM     58   C  SUS B   3      33.536  25.746  32.3800  0.00  0.00     0.000 C
ATOM     59   S  SUS B   3      32.484  27.540  33.8830  0.00  0.00     0.000 S
ATOM     60   O  SUS B   3      32.531  26.767  32.5020  0.00  0.00     0.000 O
ATOM     61   O  SUS B   3      33.580  28.488  33.8260  0.00  0.00     0.000 OA
ATOM     62   O  SUS B   3      31.196  28.174  33.7910  0.00  0.00     0.000 OA
ATOM     63   O  SUS B   3      32.598  26.538  34.8830  0.00  0.00     0.000 OA
ENDBRANCH 45 58
BRANCH 41 64
ATOM     64  O4  IDS B   4      32.156  23.582  28.8760  0.00  0.00     0.000 O
BRANCH 64 68
ATOM     65  C1  IDS B   4      30.381  20.403  28.7280  0.00  0.00     0.000 C
ATOM     66  C2  IDS B   4      29.771  21.658  28.0920  0.00  0.00     0.000 C
ATOM     67  C3  IDS B   4      29.821  22.896  28.9720  0.00  0.00     0.000 C
ATOM     68  C4  IDS B   4      31.129  23.029  29.7290  0.00  0.00     0.000 C
ATOM     69  C5  IDS B   4      31.490  21.652  30.3040  0.00  0.00     0.000 C
ATOM     70  O5  IDS B   4      31.666  20.725  29.2310  0.00  0.00     0.000 O
ATOM     71   O  IDS B   4      28.748  22.805  29.8850  0.00  0.00     0.000 O
ATOM     73  HD  IDS B   4      29.189  22.608  29.1660  0.00  0.00     0.000 HD
BRANCH 66 73
ATOM     73   O  IDS B   4      30.543  22.002  26.8890  0.00  0.00     0.000 O
ATOM     74   S  IDS B   4      29.826  21.820  25.4510  0.00  0.00     0.000 S
ATOM     75   O  IDS B   4      29.400  20.439  25.3770  0.00  0.00     0.000 OA
ATOM     76   O  IDS B   4      30.894  22.154  24.5430  0.00  0.00     0.000 OA
ATOM     77   O  IDS B   4      28.728  22.757  25.4460  0.00  0.00     0.000 OA
ENDBRANCH 66 73
BRANCH 69 78
ATOM     78   C  IDS B   4      32.662  21.664  31.2760  0.00  0.00     0.000 C
ATOM     79   O  IDS B   4      32.449  21.413  32.4610  0.00  0.00     0.000 OA
ATOM     80   O  IDS B   4      33.810  21.821  30.8220  0.00  0.00     0.000 OA
ENDBRANCH 69 78
BRANCH 65 81
ATOM     81  O4  SGN B   5      29.494  19.866  29.6110  0.00  0.00     0.000 O
BRANCH 81 85
ATOM     82  C1  SGN B   5      28.150  16.258  31.2890  0.00  0.00     0.000 C
ATOM     83  C2  SGN B   5      29.546  16.744  31.7050  0.00  0.00     0.000 C
ATOM     84  C3  SGN B   5      29.683  18.241  31.3940  0.00  0.00     0.000 C
ATOM     85  C4  SGN B   5      29.383  18.475  29.9240  0.00  0.00     0.000 C
ATOM     86  C5  SGN B   5      27.968  17.977  29.6380  0.00  0.00     0.000 C
ATOM     87  O5  SGN B   5      27.907  16.568  29.9300  0.00  0.00     0.000 O
ATOM     88   O  SGN B   5      30.983  18.681  31.7200  0.00  0.00     0.000 O
ATOM     90  HD  SGN B   5      30.274  18.811  32.2000  0.00  0.00     0.000 HD
BRANCH 83 92
ATOM     90   N  SGN B   5      29.415  16.045  32.9990  0.00  0.00     0.000 N
ATOM     92  HD  SGN B   5      28.619  15.718  33.0960  0.00  0.00     0.000 HD
ATOM     92   S  SGN B   5      30.603  15.077  33.4530  0.00  0.00     0.000 S
ATOM     93   O  SGN B   5      30.174  14.560  34.7180  0.00  0.00     0.000 OA
ATOM     94   O  SGN B   5      30.822  14.194  32.3590  0.00  0.00     0.000 OA
ATOM     95   O  SGN B   5      31.814  15.978  33.5560  0.00  0.00     0.000 OA
ENDBRANCH 83 92
BRANCH 86 96
ATOM     96   C  SGN B   5      27.524  18.160  28.2010  0.00  0.00     0.000 C
ATOM     97   O  SGN B   5      28.555  17.748  27.3010  0.00  0.00     0.000 O
ATOM     98   S  SGN B   5      28.116  16.724  26.1470  0.00  0.00     0.000 S
ATOM     99   O  SGN B   5      29.290  16.667  25.3090  0.00  0.00     0.000 OA
ATOM    100   O  SGN B   5      27.775  15.497  26.7720  0.00  0.00     0.000 OA
ATOM    101   O  SGN B   5      27.003  17.356  25.5170  0.00  0.00     0.000 OA
ENDBRANCH 86 96
BRANCH 82 102
ATOM    102  O4  IDS B   6      27.161  16.769  32.0760  0.00  0.00     0.000 O
BRANCH 102 106
ATOM    103  C1  IDS B   6      24.354  16.693  34.3950  0.00  0.00     0.000 C
ATOM    104  C2  IDS B   6      25.665  15.961  34.7230  0.00  0.00     0.000 C
ATOM    105  C3  IDS B   6      26.227  15.113  33.5990  0.00  0.00     0.000 C
ATOM    106  C4  IDS B   6      26.108  15.785  32.2420  0.00  0.00     0.000 C
ATOM    107  C5  IDS B   6      24.728  16.435  32.1060  0.00  0.00     0.000 C
ATOM    108  O5  IDS B   6      24.473  17.368  33.1570  0.00  0.00     0.000 O
ATOM    109   O  IDS B   6      25.551  13.867  33.6050  0.00  0.00     0.000 O
ATOM    111  HD  IDS B   6      24.803  14.038  34.0060  0.00  0.00     0.000 HD
BRANCH 104 111
ATOM    111   O  IDS B   6      26.708  16.956  35.0190  0.00  0.00     0.000 O
ATOM    112   S  IDS B   6      27.348  16.963  36.4860  0.00  0.00     0.000 S
ATOM    113   O  IDS B   6      26.218  17.177  37.3770  0.00  0.00     0.000 OA
ATOM    114   O  IDS B   6      28.057  15.694  36.6890  0.00  0.00     0.000 OA
ATOM    115   O  IDS B   6      28.219  18.111  36.3550  0.00  0.00     0.000 OA
ENDBRANCH 104 111
BRANCH 107 116
ATOM    116   C  IDS B   6      24.632  17.136  30.7570  0.00  0.00     0.000 C
ATOM    117   O  IDS B   6      24.621  16.432  29.7790  0.00  0.00     0.000 OA
ATOM    118   O  IDS B   6      24.580  18.353  30.6760  0.00  0.00     0.000 OA
ENDBRANCH 107 116
BRANCH 103 119
ATOM    119  O4  SGN B   7      23.400  15.748  34.5950  0.00  0.00     0.000 O
BRANCH 119 123
ATOM    120  C1  SGN B   7      19.566  15.653  36.2640  0.00  0.00     0.000 C
ATOM    121  C2  SGN B   7      19.685  15.998  34.7670  0.00  0.00     0.000 C
ATOM    122  C3  SGN B   7      21.066  15.601  34.2310  0.00  0.00     0.000 C
ATOM    123  C4  SGN B   7      22.150  16.225  35.0940  0.00  0.00     0.000 C
ATOM    124  C5  SGN B   7      21.941  15.828  36.5650  0.00  0.00     0.000 C
ATOM    125  O5  SGN B   7      20.629  16.221  37.0270  0.00  0.00     0.000 O
ATOM    126   O  SGN B   7      21.176  16.025  32.8680  0.00  0.00     0.000 O
ATOM    128  HD  SGN B   7      20.673  15.905  33.5620  0.00  0.00     0.000 HD
BRANCH 121 130
ATOM    128   N  SGN B   7      18.370  16.627  34.6240  0.00  0.00     0.000 N
ATOM    130  HD  SGN B   7      18.611  16.978  33.8700  0.00  0.00     0.000 HD
ATOM    130   S  SGN B   7      17.277  16.104  33.5640  0.00  0.00     0.000 S
ATOM    131   O  SGN B   7      17.185  14.701  33.7860  0.00  0.00     0.000 OA
ATOM    132   O  SGN B   7      16.124  16.924  33.6690  0.00  0.00     0.000 OA
ATOM    133   O  SGN B   7      17.954  16.544  32.2220  0.00  0.00     0.000 OA
ENDBRANCH 121 130
BRANCH 124 134
ATOM    134   C  SGN B   7      22.896  16.489  37.5140  0.00  0.00     0.000 C
ATOM    135   O  SGN B   7      22.139  17.101  38.5720  0.00  0.00     0.000 O
ATOM    136   S  SGN B   7      22.965  17.719  39.7570  0.00  0.00     0.000 S
ATOM    137   O  SGN B   7      22.009  18.357  40.6300  0.00  0.00     0.000 OA
ATOM    138   O  SGN B   7      23.875  18.655  39.1360  0.00  0.00     0.000 OA
ATOM    139   O  SGN B   7      23.606  16.548  40.3360  0.00  0.00     0.000 OA
ENDBRANCH 124 134
BRANCH 120 140
ATOM    140  O4  IDS B   8      19.529  14.441  36.8280  0.00  0.00     0.000 O
BRANCH 140 144
ATOM    141  C1  IDS B   8      17.655  11.737  38.2910  0.00  0.00     0.000 C
ATOM    142  C2  IDS B   8      17.213  13.215  38.4880  0.00  0.00     0.000 C
ATOM    143  C3  IDS B   8      18.366  14.137  38.9270  0.00  0.00     0.000 C
ATOM    144  C4  IDS B   8      19.646  13.869  38.1370  0.00  0.00     0.000 C
ATOM    145  C5  IDS B   8      19.896  12.357  38.0320  0.00  0.00     0.000 C
ATOM    146  O5  IDS B   8      18.791  11.679  37.4380  0.00  0.00     0.000 O
BRANCH 142 147
ATOM    147   O  IDS B   8      16.686  13.750  37.2050  0.00  0.00     0.000 O
ATOM    148   S  IDS B   8      15.514  14.872  37.1850  0.00  0.00     0.000 S
ATOM    149   O  IDS B   8      14.903  14.890  38.4950  0.00  0.00     0.000 OA
ATOM    150   O  IDS B   8      16.179  16.119  36.8580  0.00  0.00     0.000 OA
ATOM    151   O  IDS B   8      14.586  14.436  36.1600  0.00  0.00     0.000 OA
ENDBRANCH 142 147
BRANCH 145 152
ATOM    152   C  IDS B   8      21.100  12.023  37.1740  0.00  0.00     0.000 C
ATOM    153   O  IDS B   8      22.218  12.369  37.5400  0.00  0.00     0.000 OA
ATOM    154   O  IDS B   8      20.947  11.398  36.1400  0.00  0.00     0.000 OA
ENDBRANCH 145 152
ENDBRANCH 140 144
ENDBRANCH 120 140
ENDBRANCH 119 123
ENDBRANCH 103 119
ENDBRANCH 102 106
ENDBRANCH 82 102
ENDBRANCH 81 85
ENDBRANCH 65 81
ENDBRANCH 64 68
ENDBRANCH 41 64
ENDBRANCH 40 44
ENDBRANCH 24 40
ENDBRANCH 23 27
ENDBRANCH 1 23
TORSDOF 31
ENDMDL
MODEL 42
REMARK VINA RESULT:      -3.0     14.516     21.467
ROOT
ATOM      1  C1  SGN B   1      40.653  34.202  32.3520  0.00  0.00     0.000 C
ATOM      2  C2  SGN B   1      41.867  34.097  33.2890  0.00  0.00     0.000 C
ATOM      3  C3  SGN B   1      41.529  33.253  34.5230  0.00  0.00     0.000 C
ATOM      4  C4  SGN B   1      40.307  33.826  35.2340  0.00  0.00     0.000 C
ATOM      5  C5  SGN B   1      39.189  34.035  34.2150  0.00  0.00     0.000 C
ATOM      6  O5  SGN B   1      39.669  34.862  33.1370  0.00  0.00     0.000 O
ATOM      7   O  SGN B   1      42.640  33.195  35.4090  0.00  0.00     0.000 O
ATOM      9  HD  SGN B   1      42.474  34.045  35.3910  0.00  0.00     0.000 HD
ATOM      9   O  SGN B   1      39.886  32.928  36.2440  0.00  0.00     0.000 O
ATOM     11  HD  SGN B   1      39.719  33.777  36.2260  0.00  0.00     0.000 HD
ENDROOT
BRANCH 2 13
ATOM     11   N  SGN B   1      43.111  33.597  32.6740  0.00  0.00     0.000 N
ATOM     13  HD  SGN B   1      42.886  34.430  32.5970  0.00  0.00     0.000 HD
ATOM     13   S  SGN B   1      43.746  34.266  31.3560  0.00  0.00     0.000 S
ATOM     14   O  SGN B   1      42.976  35.379  30.9560  0.00  0.00     0.000 OA
ATOM     15   O  SGN B   1      45.147  34.422  31.5610  0.00  0.00     0.000 OA
ATOM     16   O  SGN B   1      43.555  33.064  30.3800  0.00  0.00     0.000 OA
ENDBRANCH 2 13
BRANCH 5 17
ATOM     17   C  SGN B   1      37.960  34.702  34.7810  0.00  0.00     0.000 C
ATOM     18   O  SGN B   1      38.214  36.092  35.0670  0.00  0.00     0.000 O
ATOM     19   S  SGN B   1      37.685  36.626  36.4790  0.00  0.00     0.000 S
ATOM     20   O  SGN B   1      37.847  38.063  36.4210  0.00  0.00     0.000 OA
ATOM     21   O  SGN B   1      36.305  36.201  36.5210  0.00  0.00     0.000 OA
ATOM     22   O  SGN B   1      38.528  35.986  37.4650  0.00  0.00     0.000 OA
ENDBRANCH 5 17
BRANCH 1 23
ATOM     23  O4  IDS B   2      40.078  33.558  31.2960  0.00  0.00     0.000 O
BRANCH 23 27
ATOM     24  C1  IDS B   2      38.310  30.555  29.0410  0.00  0.00     0.000 C
ATOM     25  C2  IDS B   2      38.785  30.139  30.4510  0.00  0.00     0.000 C
ATOM     26  C3  IDS B   2      39.139  31.363  31.2910  0.00  0.00     0.000 C
ATOM     27  C4  IDS B   2      40.157  32.281  30.6290  0.00  0.00     0.000 C
ATOM     28  C5  IDS B   2      39.903  32.339  29.1090  0.00  0.00     0.000 C
ATOM     29  O5  IDS B   2      38.575  31.943  28.8000  0.00  0.00     0.000 O
ATOM     30   O  IDS B   2      39.689  30.936  32.5320  0.00  0.00     0.000 O
ATOM     32  HD  IDS B   2      40.519  30.698  32.4740  0.00  0.00     0.000 HD
BRANCH 25 32
ATOM     32   O  IDS B   2      37.751  29.372  31.1880  0.00  0.00     0.000 O
ATOM     33   S  IDS B   2      38.006  27.818  31.6830  0.00  0.00     0.000 S
ATOM     34   O  IDS B   2      36.721  27.329  32.1570  0.00  0.00     0.000 OA
ATOM     35   O  IDS B   2      38.495  27.027  30.5620  0.00  0.00     0.000 OA
ATOM     36   O  IDS B   2      38.966  27.903  32.7580  0.00  0.00     0.000 OA
ENDBRANCH 25 32
BRANCH 28 37
ATOM     37   C  IDS B   2      40.195  33.667  28.3800  0.00  0.00     0.000 C
ATOM     38   O  IDS B   2      39.195  34.201  27.9630  0.00  0.00     0.000 OA
ATOM     39   O  IDS B   2      41.311  34.229  28.2530  0.00  0.00     0.000 OA
ENDBRANCH 28 37
BRANCH 24 40
ATOM     40  O4  SUS B   3      38.015  29.610  28.1240  0.00  0.00     0.000 O
BRANCH 40 44
ATOM     41  C1  SUS B   3      35.123  29.577  25.0940  0.00  0.00     0.000 C
ATOM     42  C2  SUS B   3      36.294  30.568  24.9400  0.00  0.00     0.000 C
ATOM     43  C3  SUS B   3      37.452  30.121  25.8300  0.00  0.00     0.000 C
ATOM     44  C4  SUS B   3      36.947  29.977  27.2580  0.00  0.00     0.000 C
ATOM     45  C5  SUS B   3      35.867  28.915  27.2920  0.00  0.00     0.000 C
ATOM     46  O5  SUS B   3      34.772  29.359  26.4650  0.00  0.00     0.000 O
BRANCH 42 49
ATOM     47   N  SUS B   3      36.853  31.787  24.3310  0.00  0.00     0.000 N
ATOM     49  HD  SUS B   3      36.835  32.505  24.8150  0.00  0.00     0.000 HD
ATOM     49   S  SUS B   3      36.193  32.126  22.9110  0.00  0.00     0.000 S
ATOM     50   O  SUS B   3      34.797  32.264  23.0520  0.00  0.00     0.000 OA
ATOM     51   O  SUS B   3      36.863  33.512  22.7280  0.00  0.00     0.000 OA
ATOM     52   O  SUS B   3      36.665  31.214  21.9460  0.00  0.00     0.000 OA
ENDBRANCH 42 49
BRANCH 43 53
ATOM     53   O  SUS B   3      38.499  31.158  25.7700  0.00  0.00     0.000 O
ATOM     54   S  SUS B   3      39.947  30.726  25.1240  0.00  0.00     0.000 S
ATOM     55   O  SUS B   3      39.752  30.553  23.6920  0.00  0.00     0.000 OA
ATOM     56   O  SUS B   3      40.829  31.827  25.4670  0.00  0.00     0.000 OA
ATOM     57   O  SUS B   3      40.326  29.462  25.7640  0.00  0.00     0.000 OA
ENDBRANCH 43 53
BRANCH 45 58
ATOM     58   C  SUS B   3      35.384  28.643  28.6990  0.00  0.00     0.000 C
ATOM     59   S  SUS B   3      33.719  29.465  30.4710  0.00  0.00     0.000 S
ATOM     60   O  SUS B   3      34.231  29.457  28.9720  0.00  0.00     0.000 O
ATOM     61   O  SUS B   3      34.629  30.345  31.1780  0.00  0.00     0.000 OA
ATOM     62   O  SUS B   3      32.410  30.037  30.3030  0.00  0.00     0.000 OA
ATOM     63   O  SUS B   3      33.740  28.108  30.8870  0.00  0.00     0.000 OA
ENDBRANCH 45 58
BRANCH 41 64
ATOM     64  O4  IDS B   4      35.273  28.424  24.3620  0.00  0.00     0.000 O
BRANCH 64 68
ATOM     65  C1  IDS B   4      34.471  25.532  22.2980  0.00  0.00     0.000 C
ATOM     66  C2  IDS B   4      34.301  26.950  21.7390  0.00  0.00     0.000 C
ATOM     67  C3  IDS B   4      33.592  27.913  22.6770  0.00  0.00     0.000 C
ATOM     68  C4  IDS B   4      34.018  27.749  24.1230  0.00  0.00     0.000 C
ATOM     69  C5  IDS B   4      34.062  26.248  24.4410  0.00  0.00     0.000 C
ATOM     70  O5  IDS B   4      35.028  25.617  23.5970  0.00  0.00     0.000 O
ATOM     71   O  IDS B   4      32.206  27.671  22.5570  0.00  0.00     0.000 O
ATOM     73  HD  IDS B   4      33.035  27.634  22.3120  0.00  0.00     0.000 HD
BRANCH 66 73
ATOM     73   O  IDS B   4      35.631  27.532  21.5130  0.00  0.00     0.000 O
ATOM     74   S  IDS B   4      36.023  27.965  20.0040  0.00  0.00     0.000 S
ATOM     75   O  IDS B   4      35.864  26.783  19.1850  0.00  0.00     0.000 OA
ATOM     76   O  IDS B   4      37.391  28.388  20.1640  0.00  0.00     0.000 OA
ATOM     77   O  IDS B   4      35.109  29.027  19.6580  0.00  0.00     0.000 OA
ENDBRANCH 66 73
BRANCH 69 78
ATOM     78   C  IDS B   4      34.260  25.922  25.9150  0.00  0.00     0.000 C
ATOM     79   O  IDS B   4      33.329  26.122  26.6940  0.00  0.00     0.000 OA
ATOM     80   O  IDS B   4      35.317  25.366  26.2650  0.00  0.00     0.000 OA
ENDBRANCH 69 78
BRANCH 65 81
ATOM     81  O4  SGN B   5      33.295  24.854  22.1770  0.00  0.00     0.000 O
BRANCH 81 85
ATOM     82  C1  SGN B   5      31.766  20.944  22.2920  0.00  0.00     0.000 C
ATOM     83  C2  SGN B   5      31.496  21.836  23.5140  0.00  0.00     0.000 C
ATOM     84  C3  SGN B   5      31.695  23.308  23.1290  0.00  0.00     0.000 C
ATOM     85  C4  SGN B   5      33.089  23.490  22.5530  0.00  0.00     0.000 C
ATOM     86  C5  SGN B   5      33.228  22.577  21.3380  0.00  0.00     0.000 C
ATOM     87  O5  SGN B   5      33.051  21.212  21.7640  0.00  0.00     0.000 O
ATOM     88   O  SGN B   5      31.505  24.129  24.2610  0.00  0.00     0.000 O
ATOM     90  HD  SGN B   5      30.928  24.006  23.6270  0.00  0.00     0.000 HD
BRANCH 83 92
ATOM     90   N  SGN B   5      31.444  21.146  24.8180  0.00  0.00     0.000 N
ATOM     92  HD  SGN B   5      31.869  21.596  25.4240  0.00  0.00     0.000 HD
ATOM     92   S  SGN B   5      30.047  20.529  25.2870  0.00  0.00     0.000 S
ATOM     93   O  SGN B   5      30.327  19.949  26.5660  0.00  0.00     0.000 OA
ATOM     94   O  SGN B   5      29.101  21.587  25.1760  0.00  0.00     0.000 OA
ATOM     95   O  SGN B   5      29.704  19.504  24.2290  0.00  0.00     0.000 OA
ENDBRANCH 83 92
BRANCH 86 96
ATOM     96   C  SGN B   5      34.574  22.663  20.6490  0.00  0.00     0.000 C
ATOM     97   O  SGN B   5      35.536  21.845  21.3200  0.00  0.00     0.000 O
ATOM     98   S  SGN B   5      36.366  20.829  20.3980  0.00  0.00     0.000 S
ATOM     99   O  SGN B   5      37.363  20.317  21.3070  0.00  0.00     0.000 OA
ATOM    100   O  SGN B   5      35.455  19.857  19.9090  0.00  0.00     0.000 OA
ATOM    101   O  SGN B   5      36.910  21.650  19.3660  0.00  0.00     0.000 OA
ENDBRANCH 86 96
BRANCH 82 102
ATOM    102  O4  IDS B   6      30.816  21.081  21.3230  0.00  0.00     0.000 O
BRANCH 102 106
ATOM    103  C1  IDS B   6      28.152  19.777  19.2110  0.00  0.00     0.000 C
ATOM    104  C2  IDS B   6      28.311  19.297  20.6620  0.00  0.00     0.000 C
ATOM    105  C3  IDS B   6      29.723  18.920  21.0640  0.00  0.00     0.000 C
ATOM    106  C4  IDS B   6      30.765  19.878  20.5140  0.00  0.00     0.000 C
ATOM    107  C5  IDS B   6      30.439  20.216  19.0560  0.00  0.00     0.000 C
ATOM    108  O5  IDS B   6      29.126  20.761  18.9170  0.00  0.00     0.000 O
ATOM    109   O  IDS B   6      29.971  17.597  20.6180  0.00  0.00     0.000 O
ATOM    111  HD  IDS B   6      29.405  17.486  19.9710  0.00  0.00     0.000 HD
BRANCH 104 111
ATOM    111   O  IDS B   6      27.926  20.387  21.5720  0.00  0.00     0.000 O
ATOM    112   S  IDS B   6      26.559  20.237  22.3910  0.00  0.00     0.000 S
ATOM    113   O  IDS B   6      25.535  20.084  21.3690  0.00  0.00     0.000 OA
ATOM    114   O  IDS B   6      26.687  19.095  23.3040  0.00  0.00     0.000 OA
ATOM    115   O  IDS B   6      26.541  21.523  23.0540  0.00  0.00     0.000 OA
ENDBRANCH 104 111
BRANCH 107 116
ATOM    116   C  IDS B   6      31.468  21.206  18.5260  0.00  0.00     0.000 C
ATOM    117   O  IDS B   6      32.587  20.789  18.3630  0.00  0.00     0.000 OA
ATOM    118   O  IDS B   6      31.171  22.366  18.2880  0.00  0.00     0.000 OA
ENDBRANCH 107 116
BRANCH 103 119
ATOM    119  O4  SGN B   7      28.075  18.624  18.4980  0.00  0.00     0.000 O
BRANCH 119 123
ATOM    120  C1  SGN B   7      26.321  17.422  14.8970  0.00  0.00     0.000 C
ATOM    121  C2  SGN B   7      27.730  18.039  14.8330  0.00  0.00     0.000 C
ATOM    122  C3  SGN B   7      28.378  18.047  16.2230  0.00  0.00     0.000 C
ATOM    123  C4  SGN B   7      27.453  18.729  17.2170  0.00  0.00     0.000 C
ATOM    124  C5  SGN B   7      26.075  18.047  17.2010  0.00  0.00     0.000 C
ATOM    125  O5  SGN B   7      25.503  18.064  15.8740  0.00  0.00     0.000 O
ATOM    126   O  SGN B   7      29.643  18.715  16.1440  0.00  0.00     0.000 O
ATOM    128  HD  SGN B   7      28.965  18.371  15.7280  0.00  0.00     0.000 HD
BRANCH 121 130
ATOM    128   N  SGN B   7      27.749  17.412  13.5090  0.00  0.00     0.000 N
ATOM    130  HD  SGN B   7      27.417  18.129  13.1560  0.00  0.00     0.000 HD
ATOM    130   S  SGN B   7      28.809  17.834  12.3720  0.00  0.00     0.000 S
ATOM    131   O  SGN B   7      30.079  17.787  13.0120  0.00  0.00     0.000 OA
ATOM    132   O  SGN B   7      28.559  17.052  11.2160  0.00  0.00     0.000 OA
ATOM    133   O  SGN B   7      28.276  19.261  12.0070  0.00  0.00     0.000 OA
ENDBRANCH 121 130
BRANCH 124 134
ATOM    134   C  SGN B   7      25.053  18.723  18.0670  0.00  0.00     0.000 C
ATOM    135   O  SGN B   7      23.966  19.162  17.2360  0.00  0.00     0.000 O
ATOM    136   S  SGN B   7      22.716  19.761  17.9750  0.00  0.00     0.000 S
ATOM    137   O  SGN B   7      21.816  20.221  16.9450  0.00  0.00     0.000 OA
ATOM    138   O  SGN B   7      23.238  20.835  18.7900  0.00  0.00     0.000 OA
ATOM    139   O  SGN B   7      22.221  18.619  18.7280  0.00  0.00     0.000 OA
ENDBRANCH 124 134
BRANCH 120 140
ATOM    140  O4  IDS B   8      25.989  16.151  15.1500  0.00  0.00     0.000 O
BRANCH 140 144
ATOM    141  C1  IDS B   8      24.492  12.949  15.8320  0.00  0.00     0.000 C
ATOM    142  C2  IDS B   8      25.460  13.613  16.8530  0.00  0.00     0.000 C
ATOM    143  C3  IDS B   8      26.763  14.118  16.2070  0.00  0.00     0.000 C
ATOM    144  C4  IDS B   8      26.506  14.840  14.8860  0.00  0.00     0.000 C
ATOM    145  C5  IDS B   8      25.510  14.042  14.0310  0.00  0.00     0.000 C
ATOM    146  O5  IDS B   8      24.284  13.816  14.7240  0.00  0.00     0.000 O
BRANCH 142 147
ATOM    147   O  IDS B   8      24.794  14.787  17.4760  0.00  0.00     0.000 O
ATOM    148   S  IDS B   8      24.342  14.762  19.0340  0.00  0.00     0.000 S
ATOM    149   O  IDS B   8      24.345  13.384  19.4690  0.00  0.00     0.000 OA
ATOM    150   O  IDS B   8      25.320  15.574  19.7330  0.00  0.00     0.000 OA
ATOM    151   O  IDS B   8      23.009  15.334  19.0540  0.00  0.00     0.000 OA
ENDBRANCH 142 147
BRANCH 145 152
ATOM    152   C  IDS B   8      25.137  14.758  12.7490  0.00  0.00     0.000 C
ATOM    153   O  IDS B   8      23.967  15.060  12.5430  0.00  0.00     0.000 OA
ATOM    154   O  IDS B   8      26.007  15.044  11.9450  0.00  0.00     0.000 OA
ENDBRANCH 145 152
ENDBRANCH 140 144
ENDBRANCH 120 140
ENDBRANCH 119 123
ENDBRANCH 103 119
ENDBRANCH 102 106
ENDBRANCH 82 102
ENDBRANCH 81 85
ENDBRANCH 65 81
ENDBRANCH 64 68
ENDBRANCH 41 64
ENDBRANCH 40 44
ENDBRANCH 24 40
ENDBRANCH 23 27
ENDBRANCH 1 23
TORSDOF 31
ENDMDL
MODEL 43
REMARK VINA RESULT:      -2.9     43.142     53.690
ROOT
ATOM      1  C1  SGN B   1      81.853  13.541  28.9870  0.00  0.00     0.000 C
ATOM      2  C2  SGN B   1      83.011  14.300  29.6550  0.00  0.00     0.000 C
ATOM      3  C3  SGN B   1      84.325  13.525  29.5070  0.00  0.00     0.000 C
ATOM      4  C4  SGN B   1      84.170  12.114  30.0660  0.00  0.00     0.000 C
ATOM      5  C5  SGN B   1      82.921  11.474  29.4650  0.00  0.00     0.000 C
ATOM      6  O5  SGN B   1      81.780  12.319  29.7100  0.00  0.00     0.000 O
ATOM      7   O  SGN B   1      85.386  14.208  30.1650  0.00  0.00     0.000 O
ATOM      9  HD  SGN B   1      84.845  14.048  30.8220  0.00  0.00     0.000 HD
ATOM      9   O  SGN B   1      85.316  11.350  29.7390  0.00  0.00     0.000 O
ATOM     11  HD  SGN B   1      84.776  11.189  30.3970  0.00  0.00     0.000 HD
ENDROOT
BRANCH 2 13
ATOM     11   N  SGN B   1      82.282  15.481  30.1540  0.00  0.00     0.000 N
ATOM     13  HD  SGN B   1      82.272  15.281  29.3110  0.00  0.00     0.000 HD
ATOM     13   S  SGN B   1      82.018  16.778  29.2390  0.00  0.00     0.000 S
ATOM     14   O  SGN B   1      82.530  16.569  27.9410  0.00  0.00     0.000 OA
ATOM     15   O  SGN B   1      80.659  17.173  29.4000  0.00  0.00     0.000 OA
ATOM     16   O  SGN B   1      82.891  17.795  30.0370  0.00  0.00     0.000 OA
ENDBRANCH 2 13
BRANCH 5 17
ATOM     17   C  SGN B   1      82.599  10.111  30.0260  0.00  0.00     0.000 C
ATOM     18   O  SGN B   1      82.765  10.091  31.4570  0.00  0.00     0.000 O
ATOM     19   S  SGN B   1      83.544   8.829  32.0560  0.00  0.00     0.000 S
ATOM     20   O  SGN B   1      83.371   8.926  33.4900  0.00  0.00     0.000 OA
ATOM     21   O  SGN B   1      82.875   7.691  31.4680  0.00  0.00     0.000 OA
ATOM     22   O  SGN B   1      84.915   8.992  31.6240  0.00  0.00     0.000 OA
ENDBRANCH 5 17
BRANCH 1 23
ATOM     23  O4  IDS B   2      81.222  13.430  27.7840  0.00  0.00     0.000 O
BRANCH 23 27
ATOM     24  C1  IDS B   2      78.497  13.507  24.6530  0.00  0.00     0.000 C
ATOM     25  C2  IDS B   2      79.635  14.547  24.5720  0.00  0.00     0.000 C
ATOM     26  C3  IDS B   2      80.728  14.241  25.5930  0.00  0.00     0.000 C
ATOM     27  C4  IDS B   2      80.210  14.119  27.0190  0.00  0.00     0.000 C
ATOM     28  C5  IDS B   2      78.830  13.432  27.0220  0.00  0.00     0.000 C
ATOM     29  O5  IDS B   2      78.629  12.693  25.8260  0.00  0.00     0.000 O
ATOM     30   O  IDS B   2      81.693  15.287  25.5740  0.00  0.00     0.000 O
ATOM     32  HD  IDS B   2      81.441  15.992  26.0100  0.00  0.00     0.000 HD
BRANCH 25 32
ATOM     32   O  IDS B   2      80.270  14.582  23.2320  0.00  0.00     0.000 O
ATOM     33   S  IDS B   2      80.248  15.938  22.2910  0.00  0.00     0.000 S
ATOM     34   O  IDS B   2      80.754  15.535  20.9890  0.00  0.00     0.000 OA
ATOM     35   O  IDS B   2      78.885  16.441  22.2000  0.00  0.00     0.000 OA
ATOM     36   O  IDS B   2      81.139  16.874  22.9360  0.00  0.00     0.000 OA
ENDBRANCH 25 32
BRANCH 28 37
ATOM     37   C  IDS B   2      78.479  12.524  28.2190  0.00  0.00     0.000 C
ATOM     38   O  IDS B   2      78.161  13.149  29.2020  0.00  0.00     0.000 OA
ATOM     39   O  IDS B   2      78.439  11.269  28.2280  0.00  0.00     0.000 OA
ENDBRANCH 28 37
BRANCH 24 40
ATOM     40  O4  SUS B   3      77.403  13.644  23.8750  0.00  0.00     0.000 O
BRANCH 40 44
ATOM     41  C1  SUS B   3      74.973  10.747  22.0720  0.00  0.00     0.000 C
ATOM     42  C2  SUS B   3      74.943  10.834  23.6110  0.00  0.00     0.000 C
ATOM     43  C3  SUS B   3      75.475  12.197  24.0480  0.00  0.00     0.000 C
ATOM     44  C4  SUS B   3      76.856  12.402  23.4450  0.00  0.00     0.000 C
ATOM     45  C5  SUS B   3      76.738  12.387  21.9350  0.00  0.00     0.000 C
ATOM     46  O5  SUS B   3      76.256  11.089  21.5340  0.00  0.00     0.000 O
BRANCH 42 49
ATOM     47   N  SUS B   3      73.570  10.467  23.9980  0.00  0.00     0.000 N
ATOM     49  HD  SUS B   3      73.120  11.061  24.4390  0.00  0.00     0.000 HD
ATOM     49   S  SUS B   3      73.505   9.088  24.8100  0.00  0.00     0.000 S
ATOM     50   O  SUS B   3      74.315   9.171  25.9610  0.00  0.00     0.000 OA
ATOM     51   O  SUS B   3      72.005   9.175  25.1910  0.00  0.00     0.000 OA
ATOM     52   O  SUS B   3      73.733   8.014  23.9270  0.00  0.00     0.000 OA
ENDBRANCH 42 49
BRANCH 43 53
ATOM     53   O  SUS B   3      75.566  12.198  25.5210  0.00  0.00     0.000 O
ATOM     54   S  SUS B   3      74.530  13.181  26.3350  0.00  0.00     0.000 S
ATOM     55   O  SUS B   3      73.198  12.604  26.2160  0.00  0.00     0.000 OA
ATOM     56   O  SUS B   3      75.045  13.188  27.6930  0.00  0.00     0.000 OA
ATOM     57   O  SUS B   3      74.601  14.491  25.6830  0.00  0.00     0.000 OA
ENDBRANCH 43 53
BRANCH 45 58
ATOM     58   C  SUS B   3      78.059  12.686  21.2600  0.00  0.00     0.000 C
ATOM     59   S  SUS B   3      80.227  11.574  20.4540  0.00  0.00     0.000 S
ATOM     60   O  SUS B   3      78.733  11.451  20.9650  0.00  0.00     0.000 O
ATOM     61   O  SUS B   3      81.015  11.834  21.6440  0.00  0.00     0.000 OA
ATOM     62   O  SUS B   3      80.439  10.254  19.9250  0.00  0.00     0.000 OA
ATOM     63   O  SUS B   3      80.215  12.619  19.4930  0.00  0.00     0.000 OA
ENDBRANCH 45 58
BRANCH 41 64
ATOM     64  O4  IDS B   4      73.920  11.383  21.4600  0.00  0.00     0.000 O
BRANCH 64 68
ATOM     65  C1  IDS B   4      71.111  12.066  19.2430  0.00  0.00     0.000 C
ATOM     66  C2  IDS B   4      70.918  11.189  20.4870  0.00  0.00     0.000 C
ATOM     67  C3  IDS B   4      71.987  10.126  20.6780  0.00  0.00     0.000 C
ATOM     68  C4  IDS B   4      73.382  10.628  20.3530  0.00  0.00     0.000 C
ATOM     69  C5  IDS B   4      73.308  11.429  19.0460  0.00  0.00     0.000 C
ATOM     70  O5  IDS B   4      72.442  12.551  19.2290  0.00  0.00     0.000 O
ATOM     71   O  IDS B   4      71.659   9.044  19.8300  0.00  0.00     0.000 O
ATOM     73  HD  IDS B   4      71.505   9.772  20.2730  0.00  0.00     0.000 HD
BRANCH 66 73
ATOM     73   O  IDS B   4      70.994  12.039  21.6820  0.00  0.00     0.000 O
ATOM     74   S  IDS B   4      69.752  12.004  22.7180  0.00  0.00     0.000 S
ATOM     75   O  IDS B   4      68.571  12.345  21.9540  0.00  0.00     0.000 OA
ATOM     76   O  IDS B   4      70.139  13.007  23.6790  0.00  0.00     0.000 OA
ATOM     77   O  IDS B   4      69.725  10.659  23.2420  0.00  0.00     0.000 OA
ENDBRANCH 66 73
BRANCH 69 78
ATOM     78   C  IDS B   4      74.663  11.815  18.4680  0.00  0.00     0.000 C
ATOM     79   O  IDS B   4      75.157  11.104  17.5940  0.00  0.00     0.000 OA
ATOM     80   O  IDS B   4      75.176  12.893  18.8200  0.00  0.00     0.000 OA
ENDBRANCH 69 78
BRANCH 65 81
ATOM     81  O4  SGN B   5      70.694  11.385  18.1400  0.00  0.00     0.000 O
BRANCH 81 85
ATOM     82  C1  SGN B   5      70.205  11.849  13.9940  0.00  0.00     0.000 C
ATOM     83  C2  SGN B   5      71.439  11.066  14.4680  0.00  0.00     0.000 C
ATOM     84  C3  SGN B   5      71.226  10.597  15.9140  0.00  0.00     0.000 C
ATOM     85  C4  SGN B   5      70.908  11.798  16.7880  0.00  0.00     0.000 C
ATOM     86  C5  SGN B   5      69.657  12.476  16.2350  0.00  0.00     0.000 C
ATOM     87  O5  SGN B   5      69.924  12.910  14.8870  0.00  0.00     0.000 O
ATOM     88   O  SGN B   5      72.378   9.927  16.3760  0.00  0.00     0.000 O
ATOM     90  HD  SGN B   5      71.648   9.545  16.1080  0.00  0.00     0.000 HD
BRANCH 83 92
ATOM     90   N  SGN B   5      72.686  11.147  13.6820  0.00  0.00     0.000 N
ATOM     92  HD  SGN B   5      73.379  11.162  14.2000  0.00  0.00     0.000 HD
ATOM     92   S  SGN B   5      72.823  10.211  12.3940  0.00  0.00     0.000 S
ATOM     93   O  SGN B   5      74.121  10.518  11.8700  0.00  0.00     0.000 OA
ATOM     94   O  SGN B   5      72.528   8.893  12.8400  0.00  0.00     0.000 OA
ATOM     95   O  SGN B   5      71.695  10.643  11.4830  0.00  0.00     0.000 OA
ENDBRANCH 83 92
BRANCH 86 96
ATOM     96   C  SGN B   5      69.212  13.693  17.0200  0.00  0.00     0.000 C
ATOM     97   O  SGN B   5      70.243  14.682  17.0410  0.00  0.00     0.000 O
ATOM     98   S  SGN B   5      69.807  16.166  16.6160  0.00  0.00     0.000 S
ATOM     99   O  SGN B   5      70.980  16.945  16.9300  0.00  0.00     0.000 OA
ATOM    100   O  SGN B   5      69.469  16.133  15.2390  0.00  0.00     0.000 OA
ATOM    101   O  SGN B   5      68.691  16.461  17.4550  0.00  0.00     0.000 OA
ENDBRANCH 86 96
BRANCH 82 102
ATOM    102  O4  IDS B   6      69.108  11.055  13.8400  0.00  0.00     0.000 O
BRANCH 102 106
ATOM    103  C1  IDS B   6      66.376   9.822  11.7720  0.00  0.00     0.000 C
ATOM    104  C2  IDS B   6      67.708  10.254  11.1390  0.00  0.00     0.000 C
ATOM    105  C3  IDS B   6      68.248  11.586  11.6240  0.00  0.00     0.000 C
ATOM    106  C4  IDS B   6      68.077  11.778  13.1210  0.00  0.00     0.000 C
ATOM    107  C5  IDS B   6      66.683  11.306  13.5460  0.00  0.00     0.000 C
ATOM    108  O5  IDS B   6      66.446   9.946  13.1800  0.00  0.00     0.000 O
ATOM    109   O  IDS B   6      67.592  12.617  10.9050  0.00  0.00     0.000 O
ATOM    111  HD  IDS B   6      66.854  12.249  10.6410  0.00  0.00     0.000 HD
BRANCH 104 111
ATOM    111   O  IDS B   6      68.744   9.267  11.4800  0.00  0.00     0.000 O
ATOM    112   S  IDS B   6      69.294   8.319  10.3130  0.00  0.00     0.000 S
ATOM    113   O  IDS B   6      68.116   7.623   9.8200  0.00  0.00     0.000 OA
ATOM    114   O  IDS B   6      69.973   9.156   9.3170  0.00  0.00     0.000 OA
ATOM    115   O  IDS B   6      70.186   7.486  11.0900  0.00  0.00     0.000 OA
ENDBRANCH 104 111
BRANCH 107 116
ATOM    116   C  IDS B   6      66.535  11.469  15.0540  0.00  0.00     0.000 C
ATOM    117   O  IDS B   6      66.641  10.471  15.7200  0.00  0.00     0.000 OA
ATOM    118   O  IDS B   6      66.309  12.559  15.5560  0.00  0.00     0.000 OA
ENDBRANCH 107 116
BRANCH 103 119
ATOM    119  O4  SGN B   7      65.444  10.493  11.0490  0.00  0.00     0.000 O
BRANCH 119 123
ATOM    120  C1  SGN B   7      61.394   9.928  10.1700  0.00  0.00     0.000 C
ATOM    121  C2  SGN B   7      61.833   9.780  11.6390  0.00  0.00     0.000 C
ATOM    122  C3  SGN B   7      63.219  10.401  11.8520  0.00  0.00     0.000 C
ATOM    123  C4  SGN B   7      64.203   9.813  10.8540  0.00  0.00     0.000 C
ATOM    124  C5  SGN B   7      63.674  10.004   9.4230  0.00  0.00     0.000 C
ATOM    125  O5  SGN B   7      62.368   9.404   9.2690  0.00  0.00     0.000 O
ATOM    126   O  SGN B   7      63.636  10.159  13.2010  0.00  0.00     0.000 O
ATOM    128  HD  SGN B   7      63.002  10.135  12.6110  0.00  0.00     0.000 HD
BRANCH 121 130
ATOM    128   N  SGN B   7      60.648   9.037  12.0750  0.00  0.00     0.000 N
ATOM    130  HD  SGN B   7      61.067   8.772  12.7850  0.00  0.00     0.000 HD
ATOM    130   S  SGN B   7      59.726   9.531  13.3000  0.00  0.00     0.000 S
ATOM    131   O  SGN B   7      59.437  10.896  13.0210  0.00  0.00     0.000 OA
ATOM    132   O  SGN B   7      58.674   8.595  13.4720  0.00  0.00     0.000 OA
ATOM    133   O  SGN B   7      60.692   9.265  14.5040  0.00  0.00     0.000 OA
ENDBRANCH 121 130
BRANCH 124 134
ATOM    134   C  SGN B   7      64.522   9.353   8.3700  0.00  0.00     0.000 C
ATOM    135   O  SGN B   7      63.812   8.217   7.8490  0.00  0.00     0.000 O
ATOM    136   S  SGN B   7      64.467   7.485   6.6230  0.00  0.00     0.000 S
ATOM    137   O  SGN B   7      63.641   6.333   6.3490  0.00  0.00     0.000 OA
ATOM    138   O  SGN B   7      65.799   7.133   7.0600  0.00  0.00     0.000 OA
ATOM    139   O  SGN B   7      64.422   8.506   5.5880  0.00  0.00     0.000 OA
ENDBRANCH 124 134
BRANCH 120 140
ATOM    140  O4  IDS B   8      61.084  11.050   9.5120  0.00  0.00     0.000 O
BRANCH 140 144
ATOM    141  C1  IDS B   8      60.763  14.528   8.6390  0.00  0.00     0.000 C
ATOM    142  C2  IDS B   8      60.551  14.049  10.1030  0.00  0.00     0.000 C
ATOM    143  C3  IDS B   8      59.609  12.835  10.2110  0.00  0.00     0.000 C
ATOM    144  C4  IDS B   8      59.907  11.782   9.1450  0.00  0.00     0.000 C
ATOM    145  C5  IDS B   8      60.108  12.453   7.7780  0.00  0.00     0.000 C
ATOM    146  O5  IDS B   8      61.145  13.431   7.8180  0.00  0.00     0.000 O
BRANCH 142 147
ATOM    147   O  IDS B   8      61.857  13.644  10.6860  0.00  0.00     0.000 O
ATOM    148   S  IDS B   8      62.481  14.426  11.9630  0.00  0.00     0.000 S
ATOM    149   O  IDS B   8      61.781  15.685  12.0910  0.00  0.00     0.000 OA
ATOM    150   O  IDS B   8      62.267  13.547  13.0970  0.00  0.00     0.000 OA
ATOM    151   O  IDS B   8      63.884  14.616  11.6470  0.00  0.00     0.000 OA
ENDBRANCH 142 147
BRANCH 145 152
ATOM    152   C  IDS B   8      60.506  11.468   6.6980  0.00  0.00     0.000 C
ATOM    153   O  IDS B   8      61.693  11.293   6.4460  0.00  0.00     0.000 OA
ATOM    154   O  IDS B   8      59.644  10.845   6.1040  0.00  0.00     0.000 OA
ENDBRANCH 145 152
ENDBRANCH 140 144
ENDBRANCH 120 140
ENDBRANCH 119 123
ENDBRANCH 103 119
ENDBRANCH 102 106
ENDBRANCH 82 102
ENDBRANCH 81 85
ENDBRANCH 65 81
ENDBRANCH 64 68
ENDBRANCH 41 64
ENDBRANCH 40 44
ENDBRANCH 24 40
ENDBRANCH 23 27
ENDBRANCH 1 23
TORSDOF 31
ENDMDL
MODEL 44
REMARK VINA RESULT:      -2.4     20.989     25.478
ROOT
ATOM      1  C1  SGN B   1      54.727  25.988  31.9670  0.00  0.00     0.000 C
ATOM      2  C2  SGN B   1      55.518  25.941  30.6500  0.00  0.00     0.000 C
ATOM      3  C3  SGN B   1      54.644  25.406  29.5110  0.00  0.00     0.000 C
ATOM      4  C4  SGN B   1      54.072  24.041  29.8820  0.00  0.00     0.000 C
ATOM      5  C5  SGN B   1      53.427  24.130  31.2630  0.00  0.00     0.000 C
ATOM      6  O5  SGN B   1      54.387  24.630  32.2130  0.00  0.00     0.000 O
ATOM      7   O  SGN B   1      55.392  25.321  28.3030  0.00  0.00     0.000 O
ATOM      9  HD  SGN B   1      55.830  24.782  28.8200  0.00  0.00     0.000 HD
ATOM      9   O  SGN B   1      53.111  23.655  28.9170  0.00  0.00     0.000 O
ATOM     11  HD  SGN B   1      53.549  23.116  29.4340  0.00  0.00     0.000 HD
ENDROOT
BRANCH 2 13
ATOM     11   N  SGN B   1      56.851  26.461  31.0100  0.00  0.00     0.000 N
ATOM     13  HD  SGN B   1      56.134  26.891  31.2380  0.00  0.00     0.000 HD
ATOM     13   S  SGN B   1      57.136  28.033  31.2030  0.00  0.00     0.000 S
ATOM     14   O  SGN B   1      55.945  28.768  31.0300  0.00  0.00     0.000 OA
ATOM     15   O  SGN B   1      57.901  28.209  32.3920  0.00  0.00     0.000 OA
ATOM     16   O  SGN B   1      58.107  28.233  29.9980  0.00  0.00     0.000 OA
ENDBRANCH 2 13
BRANCH 5 17
ATOM     17   C  SGN B   1      52.919  22.810  31.7900  0.00  0.00     0.000 C
ATOM     18   O  SGN B   1      51.870  22.290  30.9490  0.00  0.00     0.000 O
ATOM     19   S  SGN B   1      50.582  21.719  31.7060  0.00  0.00     0.000 S
ATOM     20   O  SGN B   1      49.806  21.057  30.6800  0.00  0.00     0.000 OA
ATOM     21   O  SGN B   1      51.126  20.816  32.6930  0.00  0.00     0.000 OA
ATOM     22   O  SGN B   1      49.929  22.881  32.2680  0.00  0.00     0.000 OA
ENDBRANCH 5 17
BRANCH 1 23
ATOM     23  O4  IDS B   2      53.926  26.825  32.6860  0.00  0.00     0.000 O
BRANCH 23 27
ATOM     24  C1  IDS B   2      49.955  26.766  31.4790  0.00  0.00     0.000 C
ATOM     25  C2  IDS B   2      50.848  27.815  30.7820  0.00  0.00     0.000 C
ATOM     26  C3  IDS B   2      52.324  27.556  31.0730  0.00  0.00     0.000 C
ATOM     27  C4  IDS B   2      52.645  27.478  32.5590  0.00  0.00     0.000 C
ATOM     28  C5  IDS B   2      51.496  26.776  33.3100  0.00  0.00     0.000 C
ATOM     29  O5  IDS B   2      50.711  25.994  32.4210  0.00  0.00     0.000 O
ATOM     30   O  IDS B   2      53.103  28.611  30.5200  0.00  0.00     0.000 O
ATOM     32  HD  IDS B   2      53.102  29.328  31.0070  0.00  0.00     0.000 HD
BRANCH 25 32
ATOM     32   O  IDS B   2      50.675  27.811  29.3080  0.00  0.00     0.000 O
ATOM     33   S  IDS B   2      50.109  29.130  28.4930  0.00  0.00     0.000 S
ATOM     34   O  IDS B   2      49.862  28.688  27.1300  0.00  0.00     0.000 OA
ATOM     35   O  IDS B   2      48.888  29.604  29.1290  0.00  0.00     0.000 OA
ATOM     36   O  IDS B   2      51.172  30.106  28.5450  0.00  0.00     0.000 OA
ENDBRANCH 25 32
BRANCH 28 37
ATOM     37   C  IDS B   2      51.858  25.905  34.5310  0.00  0.00     0.000 C
ATOM     38   O  IDS B   2      51.569  24.742  34.3780  0.00  0.00     0.000 OA
ATOM     39   O  IDS B   2      52.450  26.276  35.5740  0.00  0.00     0.000 OA
ENDBRANCH 28 37
BRANCH 24 40
ATOM     40  O4  SUS B   3      48.612  26.864  31.3970  0.00  0.00     0.000 O
BRANCH 40 44
ATOM     41  C1  SUS B   3      45.675  23.882  31.2440  0.00  0.00     0.000 C
ATOM     42  C2  SUS B   3      46.434  24.056  32.5740  0.00  0.00     0.000 C
ATOM     43  C3  SUS B   3      47.081  25.439  32.6070  0.00  0.00     0.000 C
ATOM     44  C4  SUS B   3      47.953  25.603  31.3720  0.00  0.00     0.000 C
ATOM     45  C5  SUS B   3      47.079  25.503  30.1380  0.00  0.00     0.000 C
ATOM     46  O5  SUS B   3      46.492  24.186  30.1080  0.00  0.00     0.000 O
BRANCH 42 49
ATOM     47   N  SUS B   3      46.338  22.627  32.9200  0.00  0.00     0.000 N
ATOM     49  HD  SUS B   3      45.849  22.136  32.4000  0.00  0.00     0.000 HD
ATOM     49   S  SUS B   3      45.856  22.387  34.4290  0.00  0.00     0.000 S
ATOM     50   O  SUS B   3      44.610  23.011  34.6400  0.00  0.00     0.000 OA
ATOM     51   O  SUS B   3      45.687  20.850  34.3210  0.00  0.00     0.000 OA
ATOM     52   O  SUS B   3      46.906  22.712  35.3110  0.00  0.00     0.000 OA
ENDBRANCH 42 49
BRANCH 43 53
ATOM     53   O  SUS B   3      47.913  25.523  33.8230  0.00  0.00     0.000 O
ATOM     54   S  SUS B   3      47.447  26.597  34.9770  0.00  0.00     0.000 S
ATOM     55   O  SUS B   3      46.237  26.075  35.5960  0.00  0.00     0.000 OA
ATOM     56   O  SUS B   3      48.585  26.662  35.8770  0.00  0.00     0.000 OA
ATOM     57   O  SUS B   3      47.186  27.863  34.2840  0.00  0.00     0.000 OA
ENDBRANCH 43 53
BRANCH 45 58
ATOM     58   C  SUS B   3      47.861  25.756  28.8680  0.00  0.00     0.000 C
ATOM     59   S  SUS B   3      49.389  24.605  27.1570  0.00  0.00     0.000 S
ATOM     60   O  SUS B   3      48.365  24.509  28.3620  0.00  0.00     0.000 O
ATOM     61   O  SUS B   3      50.652  24.984  27.7620  0.00  0.00     0.000 OA
ATOM     62   O  SUS B   3      49.382  23.245  26.6910  0.00  0.00     0.000 OA
ATOM     63   O  SUS B   3      48.833  25.557  26.2620  0.00  0.00     0.000 OA
ENDBRANCH 45 58
BRANCH 41 64
ATOM     64  O4  IDS B   4      44.442  24.486  31.2270  0.00  0.00     0.000 O
BRANCH 64 68
ATOM     65  C1  IDS B   4      40.897  25.073  30.6220  0.00  0.00     0.000 C
ATOM     66  C2  IDS B   4      41.342  24.019  31.6440  0.00  0.00     0.000 C
ATOM     67  C3  IDS B   4      42.445  23.096  31.1540  0.00  0.00     0.000 C
ATOM     68  C4  IDS B   4      43.507  23.820  30.3490  0.00  0.00     0.000 C
ATOM     69  C5  IDS B   4      42.801  24.772  29.3740  0.00  0.00     0.000 C
ATOM     70  O5  IDS B   4      42.045  25.731  30.1160  0.00  0.00     0.000 O
ATOM     71   O  IDS B   4      41.835  22.102  30.3550  0.00  0.00     0.000 O
ATOM     73  HD  IDS B   4      41.854  22.737  30.9440  0.00  0.00     0.000 HD
BRANCH 66 73
ATOM     73   O  IDS B   4      41.899  24.705  32.8180  0.00  0.00     0.000 O
ATOM     74   S  IDS B   4      41.099  24.582  34.2190  0.00  0.00     0.000 S
ATOM     75   O  IDS B   4      39.757  25.062  33.9670  0.00  0.00     0.000 OA
ATOM     76   O  IDS B   4      41.876  25.437  35.0800  0.00  0.00     0.000 OA
ATOM     77   O  IDS B   4      41.148  23.183  34.5700  0.00  0.00     0.000 OA
ENDBRANCH 66 73
BRANCH 69 78
ATOM     78   C  IDS B   4      43.720  25.412  28.3430  0.00  0.00     0.000 C
ATOM     79   O  IDS B   4      43.902  26.628  28.3870  0.00  0.00     0.000 OA
ATOM     80   O  IDS B   4      44.340  24.672  27.5570  0.00  0.00     0.000 OA
ENDBRANCH 69 78
BRANCH 65 81
ATOM     81  O4  SGN B   5      40.068  24.496  29.7080  0.00  0.00     0.000 O
BRANCH 81 85
ATOM     82  C1  SGN B   5      36.572  25.177  27.4840  0.00  0.00     0.000 C
ATOM     83  C2  SGN B   5      37.905  25.552  26.8200  0.00  0.00     0.000 C
ATOM     84  C3  SGN B   5      39.056  24.831  27.5360  0.00  0.00     0.000 C
ATOM     85  C4  SGN B   5      39.011  25.165  29.0170  0.00  0.00     0.000 C
ATOM     86  C5  SGN B   5      37.656  24.728  29.5660  0.00  0.00     0.000 C
ATOM     87  O5  SGN B   5      36.621  25.449  28.8710  0.00  0.00     0.000 O
ATOM     88   O  SGN B   5      40.289  25.215  26.9680  0.00  0.00     0.000 O
ATOM     90  HD  SGN B   5      39.874  24.471  26.8120  0.00  0.00     0.000 HD
BRANCH 83 92
ATOM     90   N  SGN B   5      37.227  26.543  25.9620  0.00  0.00     0.000 N
ATOM     92  HD  SGN B   5      37.276  27.337  26.3050  0.00  0.00     0.000 HD
ATOM     92   S  SGN B   5      37.481  26.471  24.3860  0.00  0.00     0.000 S
ATOM     93   O  SGN B   5      36.702  27.548  23.8520  0.00  0.00     0.000 OA
ATOM     94   O  SGN B   5      38.894  26.464  24.2220  0.00  0.00     0.000 OA
ATOM     95   O  SGN B   5      36.971  25.107  23.9760  0.00  0.00     0.000 OA
ENDBRANCH 83 92
BRANCH 86 96
ATOM     96   C  SGN B   5      37.472  24.990  31.0470  0.00  0.00     0.000 C
ATOM     97   O  SGN B   5      37.640  26.380  31.3350  0.00  0.00     0.000 O
ATOM     98   S  SGN B   5      36.474  27.068  32.1940  0.00  0.00     0.000 S
ATOM     99   O  SGN B   5      37.021  28.372  32.4850  0.00  0.00     0.000 OA
ATOM    100   O  SGN B   5      35.304  27.082  31.3910  0.00  0.00     0.000 OA
ATOM    101   O  SGN B   5      36.346  26.239  33.3480  0.00  0.00     0.000 OA
ENDBRANCH 86 96
BRANCH 82 102
ATOM    102  O4  IDS B   6      36.225  23.877  27.2670  0.00  0.00     0.000 O
BRANCH 102 106
ATOM    103  C1  IDS B   6      34.184  21.071  26.1630  0.00  0.00     0.000 C
ATOM    104  C2  IDS B   6      34.654  22.141  25.1660  0.00  0.00     0.000 C
ATOM    105  C3  IDS B   6      34.457  23.575  25.6200  0.00  0.00     0.000 C
ATOM    106  C4  IDS B   6      34.789  23.776  27.0880  0.00  0.00     0.000 C
ATOM    107  C5  IDS B   6      34.219  22.617  27.9110  0.00  0.00     0.000 C
ATOM    108  O5  IDS B   6      34.696  21.351  27.4520  0.00  0.00     0.000 O
ATOM    109   O  IDS B   6      33.113  23.941  25.3530  0.00  0.00     0.000 O
ATOM    111  HD  IDS B   6      32.693  23.185  25.3200  0.00  0.00     0.000 HD
BRANCH 104 111
ATOM    111   O  IDS B   6      36.102  21.997  24.9550  0.00  0.00     0.000 O
ATOM    112   S  IDS B   6      36.605  21.438  23.5410  0.00  0.00     0.000 S
ATOM    113   O  IDS B   6      35.972  20.134  23.4170  0.00  0.00     0.000 OA
ATOM    114   O  IDS B   6      36.231  22.402  22.5010  0.00  0.00     0.000 OA
ATOM    115   O  IDS B   6      38.027  21.378  23.8060  0.00  0.00     0.000 OA
ENDBRANCH 104 111
BRANCH 107 116
ATOM    116   C  IDS B   6      34.589  22.809  29.3760  0.00  0.00     0.000 C
ATOM    117   O  IDS B   6      35.365  22.017  29.8470  0.00  0.00     0.000 OA
ATOM    118   O  IDS B   6      34.112  23.717  30.0380  0.00  0.00     0.000 OA
ENDBRANCH 107 116
BRANCH 103 119
ATOM    119  O4  SGN B   7      32.848  20.987  25.9370  0.00  0.00     0.000 O
BRANCH 119 123
ATOM    120  C1  SGN B   7      29.876  18.170  26.7900  0.00  0.00     0.000 C
ATOM    121  C2  SGN B   7      30.026  19.362  27.7540  0.00  0.00     0.000 C
ATOM    122  C3  SGN B   7      30.851  20.480  27.1020  0.00  0.00     0.000 C
ATOM    123  C4  SGN B   7      32.173  19.920  26.6050  0.00  0.00     0.000 C
ATOM    124  C5  SGN B   7      31.916  18.735  25.6590  0.00  0.00     0.000 C
ATOM    125  O5  SGN B   7      31.139  17.707  26.3140  0.00  0.00     0.000 O
ATOM    126   O  SGN B   7      31.054  21.527  28.0580  0.00  0.00     0.000 O
ATOM    128  HD  SGN B   7      30.647  20.792  27.8470  0.00  0.00     0.000 HD
BRANCH 121 130
ATOM    128   N  SGN B   7      29.355  18.789  28.9230  0.00  0.00     0.000 N
ATOM    130  HD  SGN B   7      29.653  19.434  29.4190  0.00  0.00     0.000 HD
ATOM    130   S  SGN B   7      28.036  19.451  29.5660  0.00  0.00     0.000 S
ATOM    131   O  SGN B   7      27.146  19.645  28.4730  0.00  0.00     0.000 OA
ATOM    132   O  SGN B   7      27.641  18.667  30.6810  0.00  0.00     0.000 OA
ATOM    133   O  SGN B   7      28.649  20.749  30.1930  0.00  0.00     0.000 OA
ENDBRANCH 121 130
BRANCH 124 134
ATOM    134   C  SGN B   7      33.165  18.039  25.2050  0.00  0.00     0.000 C
ATOM    135   O  SGN B   7      33.839  17.508  26.3590  0.00  0.00     0.000 O
ATOM    136   S  SGN B   7      35.096  16.607  26.0820  0.00  0.00     0.000 S
ATOM    137   O  SGN B   7      35.656  16.284  27.3730  0.00  0.00     0.000 OA
ATOM    138   O  SGN B   7      35.975  17.421  25.2740  0.00  0.00     0.000 OA
ATOM    139   O  SGN B   7      34.518  15.468  25.3860  0.00  0.00     0.000 OA
ENDBRANCH 124 134
BRANCH 120 140
ATOM    140  O4  IDS B   8      29.190  18.121  25.6430  0.00  0.00     0.000 O
BRANCH 140 144
ATOM    141  C1  IDS B   8      26.417  17.679  23.3890  0.00  0.00     0.000 C
ATOM    142  C2  IDS B   8      26.603  16.748  24.6200  0.00  0.00     0.000 C
ATOM    143  C3  IDS B   8      28.034  16.194  24.7480  0.00  0.00     0.000 C
ATOM    144  C4  IDS B   8      29.089  17.269  24.4950  0.00  0.00     0.000 C
ATOM    145  C5  IDS B   8      28.716  18.095  23.2550  0.00  0.00     0.000 C
ATOM    146  O5  IDS B   8      27.424  18.684  23.3830  0.00  0.00     0.000 O
BRANCH 142 147
ATOM    147   O  IDS B   8      26.313  17.508  25.8650  0.00  0.00     0.000 O
ATOM    148   S  IDS B   8      24.998  17.181  26.7560  0.00  0.00     0.000 S
ATOM    149   O  IDS B   8      24.096  16.402  25.9380  0.00  0.00     0.000 OA
ATOM    150   O  IDS B   8      25.484  16.448  27.9100  0.00  0.00     0.000 OA
ATOM    151   O  IDS B   8      24.438  18.475  27.0980  0.00  0.00     0.000 OA
ENDBRANCH 142 147
BRANCH 145 152
ATOM    152   C  IDS B   8      29.674  19.243  23.0090  0.00  0.00     0.000 C
ATOM    153   O  IDS B   8      29.391  20.365  23.4150  0.00  0.00     0.000 OA
ATOM    154   O  IDS B   8      30.725  19.036  22.4290  0.00  0.00     0.000 OA
ENDBRANCH 145 152
ENDBRANCH 140 144
ENDBRANCH 120 140
ENDBRANCH 119 123
ENDBRANCH 103 119
ENDBRANCH 102 106
ENDBRANCH 82 102
ENDBRANCH 81 85
ENDBRANCH 65 81
ENDBRANCH 64 68
ENDBRANCH 41 64
ENDBRANCH 40 44
ENDBRANCH 24 40
ENDBRANCH 23 27
ENDBRANCH 1 23
TORSDOF 31
ENDMDL
MODEL 45
REMARK VINA RESULT:      -2.4     43.327     54.108
ROOT
ATOM      1  C1  SGN B   1      81.921  13.551  28.0320  0.00  0.00     0.000 C
ATOM      2  C2  SGN B   1      82.682  14.415  29.0510  0.00  0.00     0.000 C
ATOM      3  C3  SGN B   1      84.157  14.546  28.6570  0.00  0.00     0.000 C
ATOM      4  C4  SGN B   1      84.785  13.166  28.4990  0.00  0.00     0.000 C
ATOM      5  C5  SGN B   1      83.902  12.317  27.5870  0.00  0.00     0.000 C
ATOM      6  O5  SGN B   1      82.560  12.283  28.1110  0.00  0.00     0.000 O
ATOM      7   O  SGN B   1      84.867  15.309  29.6260  0.00  0.00     0.000 O
ATOM      9  HD  SGN B   1      84.590  14.639  30.0990  0.00  0.00     0.000 HD
ATOM      9   O  SGN B   1      86.079  13.298  27.9410  0.00  0.00     0.000 O
ATOM     11  HD  SGN B   1      85.802  12.627  28.4130  0.00  0.00     0.000 HD
ENDROOT
BRANCH 2 13
ATOM     11   N  SGN B   1      82.120  15.752  29.3200  0.00  0.00     0.000 N
ATOM     13  HD  SGN B   1      81.793  15.051  29.7090  0.00  0.00     0.000 HD
ATOM     13   S  SGN B   1      80.582  15.969  29.7420  0.00  0.00     0.000 S
ATOM     14   O  SGN B   1      79.929  14.724  29.8530  0.00  0.00     0.000 OA
ATOM     15   O  SGN B   1      80.540  16.882  30.8350  0.00  0.00     0.000 OA
ATOM     16   O  SGN B   1      80.111  16.746  28.4750  0.00  0.00     0.000 OA
ENDBRANCH 2 13
BRANCH 5 17
ATOM     17   C  SGN B   1      84.363  10.888  27.4410  0.00  0.00     0.000 C
ATOM     18   O  SGN B   1      84.767  10.345  28.7140  0.00  0.00     0.000 O
ATOM     19   S  SGN B   1      86.139   9.524  28.7230  0.00  0.00     0.000 S
ATOM     20   O  SGN B   1      86.194   8.900  30.0280  0.00  0.00     0.000 OA
ATOM     21   O  SGN B   1      85.994   8.583  27.6370  0.00  0.00     0.000 OA
ATOM     22   O  SGN B   1      87.172  10.514  28.5100  0.00  0.00     0.000 OA
ENDBRANCH 5 17
BRANCH 1 23
ATOM     23  O4  IDS B   2      81.218  13.666  26.8690  0.00  0.00     0.000 O
BRANCH 23 27
ATOM     24  C1  IDS B   2      78.266  13.789  23.9540  0.00  0.00     0.000 C
ATOM     25  C2  IDS B   2      78.844  15.158  24.3750  0.00  0.00     0.000 C
ATOM     26  C3  IDS B   2      80.107  14.981  25.2150  0.00  0.00     0.000 C
ATOM     27  C4  IDS B   2      79.909  14.084  26.4280  0.00  0.00     0.000 C
ATOM     28  C5  IDS B   2      78.954  12.925  26.0770  0.00  0.00     0.000 C
ATOM     29  O5  IDS B   2      78.898  12.722  24.6730  0.00  0.00     0.000 O
ATOM     30   O  IDS B   2      80.537  16.253  25.6860  0.00  0.00     0.000 O
ATOM     32  HD  IDS B   2      80.085  16.534  26.3690  0.00  0.00     0.000 HD
BRANCH 25 32
ATOM     32   O  IDS B   2      79.197  16.001  23.2070  0.00  0.00     0.000 O
ATOM     33   S  IDS B   2      78.466  17.455  22.9290  0.00  0.00     0.000 S
ATOM     34   O  IDS B   2      78.892  17.876  21.6040  0.00  0.00     0.000 OA
ATOM     35   O  IDS B   2      77.021  17.290  22.9960  0.00  0.00     0.000 OA
ATOM     36   O  IDS B   2      78.967  18.345  23.9510  0.00  0.00     0.000 OA
ENDBRANCH 25 32
BRANCH 28 37
ATOM     37   C  IDS B   2      79.197  11.560  26.7550  0.00  0.00     0.000 C
ATOM     38   O  IDS B   2      79.588  10.717  25.9820  0.00  0.00     0.000 OA
ATOM     39   O  IDS B   2      79.089  11.295  27.9770  0.00  0.00     0.000 OA
ENDBRANCH 28 37
BRANCH 24 40
ATOM     40  O4  SUS B   3      77.109  13.732  23.2610  0.00  0.00     0.000 O
BRANCH 40 44
ATOM     41  C1  SUS B   3      75.847  11.050  20.3010  0.00  0.00     0.000 C
ATOM     42  C2  SUS B   3      76.012  10.496  21.7300  0.00  0.00     0.000 C
ATOM     43  C3  SUS B   3      75.995  11.655  22.7240  0.00  0.00     0.000 C
ATOM     44  C4  SUS B   3      77.063  12.661  22.3240  0.00  0.00     0.000 C
ATOM     45  C5  SUS B   3      76.740  13.197  20.9450  0.00  0.00     0.000 C
ATOM     46  O5  SUS B   3      76.781  12.097  20.0130  0.00  0.00     0.000 O
BRANCH 42 49
ATOM     47   N  SUS B   3      76.081   9.183  21.0650  0.00  0.00     0.000 N
ATOM     49  HD  SUS B   3      75.660   9.109  20.3120  0.00  0.00     0.000 HD
ATOM     49   S  SUS B   3      75.613   7.983  22.0180  0.00  0.00     0.000 S
ATOM     50   O  SUS B   3      74.299   8.215  22.4720  0.00  0.00     0.000 OA
ATOM     51   O  SUS B   3      75.629   6.876  20.9320  0.00  0.00     0.000 OA
ATOM     52   O  SUS B   3      76.607   7.743  22.9880  0.00  0.00     0.000 OA
ENDBRANCH 42 49
BRANCH 43 53
ATOM     53   O  SUS B   3      76.294  11.111  24.0630  0.00  0.00     0.000 O
ATOM     54   S  SUS B   3      75.142  11.293  25.2210  0.00  0.00     0.000 S
ATOM     55   O  SUS B   3      74.040  10.404  24.8830  0.00  0.00     0.000 OA
ATOM     56   O  SUS B   3      75.824  10.940  26.4530  0.00  0.00     0.000 OA
ATOM     57   O  SUS B   3      74.725  12.698  25.1730  0.00  0.00     0.000 OA
ENDBRANCH 43 53
BRANCH 45 58
ATOM     58   C  SUS B   3      77.706  14.281  20.5170  0.00  0.00     0.000 C
ATOM     59   S  SUS B   3      79.994  14.645  19.4140  0.00  0.00     0.000 S
ATOM     60   O  SUS B   3      78.776  13.693  19.7590  0.00  0.00     0.000 O
ATOM     61   O  SUS B   3      80.771  14.726  20.6360  0.00  0.00     0.000 OA
ATOM     62   O  SUS B   3      80.649  13.879  18.3880  0.00  0.00     0.000 OA
ATOM     63   O  SUS B   3      79.411  15.866  18.9820  0.00  0.00     0.000 OA
ENDBRANCH 45 58
BRANCH 41 64
ATOM     64  O4  IDS B   4      74.548  11.349  19.9690  0.00  0.00     0.000 O
BRANCH 64 68
ATOM     65  C1  IDS B   4      71.524  11.889  18.0110  0.00  0.00     0.000 C
ATOM     66  C2  IDS B   4      71.740  10.561  18.7470  0.00  0.00     0.000 C
ATOM     67  C3  IDS B   4      73.123   9.960  18.5650  0.00  0.00     0.000 C
ATOM     68  C4  IDS B   4      74.228  11.000  18.6040  0.00  0.00     0.000 C
ATOM     69  C5  IDS B   4      73.785  12.198  17.7550  0.00  0.00     0.000 C
ATOM     70  O5  IDS B   4      72.597  12.761  18.3170  0.00  0.00     0.000 O
ATOM     71   O  IDS B   4      73.133   9.300  17.3170  0.00  0.00     0.000 O
ATOM     73  HD  IDS B   4      72.767   9.668  18.0100  0.00  0.00     0.000 HD
BRANCH 66 73
ATOM     73   O  IDS B   4      71.601  10.793  20.1920  0.00  0.00     0.000 O
ATOM     74   S  IDS B   4      70.118  10.712  20.8340  0.00  0.00     0.000 S
ATOM     75   O  IDS B   4      69.305  11.664  20.1080  0.00  0.00     0.000 OA
ATOM     76   O  IDS B   4      70.369  11.079  22.2050  0.00  0.00     0.000 OA
ATOM     77   O  IDS B   4      69.695   9.344  20.6530  0.00  0.00     0.000 OA
ENDBRANCH 66 73
BRANCH 69 78
ATOM     78   C  IDS B   4      74.874  13.235  17.5130  0.00  0.00     0.000 C
ATOM     79   O  IDS B   4      75.827  12.934  16.7960  0.00  0.00     0.000 OA
ATOM     80   O  IDS B   4      74.711  14.385  17.9600  0.00  0.00     0.000 OA
ENDBRANCH 69 78
BRANCH 65 81
ATOM     81  O4  SGN B   5      71.292  11.642  16.6910  0.00  0.00     0.000 O
BRANCH 81 85
ATOM     82  C1  SGN B   5      69.411  13.405  13.3760  0.00  0.00     0.000 C
ATOM     83  C2  SGN B   5      70.945  13.337  13.3530  0.00  0.00     0.000 C
ATOM     84  C3  SGN B   5      71.427  12.286  14.3630  0.00  0.00     0.000 C
ATOM     85  C4  SGN B   5      70.865  12.614  15.7340  0.00  0.00     0.000 C
ATOM     86  C5  SGN B   5      69.341  12.630  15.6360  0.00  0.00     0.000 C
ATOM     87  O5  SGN B   5      68.950  13.645  14.6920  0.00  0.00     0.000 O
ATOM     88   O  SGN B   5      72.838  12.258  14.3880  0.00  0.00     0.000 O
ATOM     90  HD  SGN B   5      72.331  11.685  13.9810  0.00  0.00     0.000 HD
BRANCH 83 92
ATOM     90   N  SGN B   5      71.675  14.431  12.6830  0.00  0.00     0.000 N
ATOM     92  HD  SGN B   5      72.386  14.647  13.1270  0.00  0.00     0.000 HD
ATOM     92   S  SGN B   5      71.865  14.348  11.0980  0.00  0.00     0.000 S
ATOM     93   O  SGN B   5      72.602  15.530  10.7670  0.00  0.00     0.000 OA
ATOM     94   O  SGN B   5      72.423  13.064  10.8440  0.00  0.00     0.000 OA
ATOM     95   O  SGN B   5      70.457  14.346  10.5420  0.00  0.00     0.000 OA
ENDBRANCH 83 92
BRANCH 86 96
ATOM     96   C  SGN B   5      68.638  12.935  16.9430  0.00  0.00     0.000 C
ATOM     97   O  SGN B   5      68.840  14.300  17.3160  0.00  0.00     0.000 O
ATOM     98   S  SGN B   5      67.521  15.133  17.6870  0.00  0.00     0.000 S
ATOM     99   O  SGN B   5      68.060  16.368  18.2030  0.00  0.00     0.000 OA
ATOM    100   O  SGN B   5      66.756  15.271  16.5010  0.00  0.00     0.000 OA
ATOM    101   O  SGN B   5      66.870  14.342  18.6800  0.00  0.00     0.000 OA
ENDBRANCH 86 96
BRANCH 82 102
ATOM    102  O4  IDS B   6      68.828  12.284  12.8660  0.00  0.00     0.000 O
BRANCH 102 106
ATOM    103  C1  IDS B   6      66.826  10.444  10.4440  0.00  0.00     0.000 C
ATOM    104  C2  IDS B   6      67.828  11.515   9.9840  0.00  0.00     0.000 C
ATOM    105  C3  IDS B   6      67.762  12.826  10.7450  0.00  0.00     0.000 C
ATOM    106  C4  IDS B   6      67.567  12.628  12.2380  0.00  0.00     0.000 C
ATOM    107  C5  IDS B   6      66.520  11.537  12.4830  0.00  0.00     0.000 C
ATOM    108  O5  IDS B   6      66.876  10.306  11.8510  0.00  0.00     0.000 O
ATOM    109   O  IDS B   6      66.708  13.601  10.1980  0.00  0.00     0.000 O
ATOM    111  HD  IDS B   6      66.191  13.016   9.8240  0.00  0.00     0.000 HD
BRANCH 104 111
ATOM    111   O  IDS B   6      69.195  11.014  10.1920  0.00  0.00     0.000 O
ATOM    112   S  IDS B   6      70.118  10.788   8.9040  0.00  0.00     0.000 S
ATOM    113   O  IDS B   6      69.380   9.837   8.0870  0.00  0.00     0.000 OA
ATOM    114   O  IDS B   6      70.354  12.089   8.2680  0.00  0.00     0.000 OA
ATOM    115   O  IDS B   6      71.285  10.226   9.5490  0.00  0.00     0.000 OA
ENDBRANCH 104 111
BRANCH 107 116
ATOM    116   C  IDS B   6      66.359  11.322  13.9820  0.00  0.00     0.000 C
ATOM    117   O  IDS B   6      66.603  10.218  14.4000  0.00  0.00     0.000 OA
ATOM    118   O  IDS B   6      65.990  12.224  14.7180  0.00  0.00     0.000 OA
ENDBRANCH 107 116
BRANCH 103 119
ATOM    119  O4  SGN B   7      65.676  10.786   9.8080  0.00  0.00     0.000 O
BRANCH 119 123
ATOM    120  C1  SGN B   7      62.277   8.793   8.4070  0.00  0.00     0.000 C
ATOM    121  C2  SGN B   7      62.358   9.090   9.9160  0.00  0.00     0.000 C
ATOM    122  C3  SGN B   7      63.430  10.151  10.1980  0.00  0.00     0.000 C
ATOM    123  C4  SGN B   7      64.752   9.721   9.5840  0.00  0.00     0.000 C
ATOM    124  C5  SGN B   7      64.565   9.442   8.0840  0.00  0.00     0.000 C
ATOM    125  O5  SGN B   7      63.548   8.438   7.8650  0.00  0.00     0.000 O
ATOM    126   O  SGN B   7      63.547  10.330  11.6140  0.00  0.00     0.000 O
ATOM    128  HD  SGN B   7      63.110   9.987  10.9500  0.00  0.00     0.000 HD
BRANCH 121 130
ATOM    128   N  SGN B   7      61.183   8.230  10.0750  0.00  0.00     0.000 N
ATOM    130  HD  SGN B   7      61.509   7.909  10.8110  0.00  0.00     0.000 HD
ATOM    130   S  SGN B   7      60.050   8.519  11.1820  0.00  0.00     0.000 S
ATOM    131   O  SGN B   7      59.699   9.887  11.0080  0.00  0.00     0.000 OA
ATOM    132   O  SGN B   7      59.061   7.507  11.0830  0.00  0.00     0.000 OA
ATOM    133   O  SGN B   7      60.840   8.173  12.4900  0.00  0.00     0.000 OA
ENDBRANCH 121 130
BRANCH 124 134
ATOM    134   C  SGN B   7      65.790   8.899   7.4100  0.00  0.00     0.000 C
ATOM    135   O  SGN B   7      65.677   7.468   7.3370  0.00  0.00     0.000 O
ATOM    136   S  SGN B   7      66.793   6.717   6.5260  0.00  0.00     0.000 S
ATOM    137   O  SGN B   7      66.530   5.306   6.6820  0.00  0.00     0.000 OA
ATOM    138   O  SGN B   7      68.041   7.128   7.1300  0.00  0.00     0.000 OA
ATOM    139   O  SGN B   7      66.585   7.213   5.1750  0.00  0.00     0.000 OA
ENDBRANCH 124 134
BRANCH 120 140
ATOM    140  O4  IDS B   8      61.852   9.601   7.4300  0.00  0.00     0.000 O
BRANCH 140 144
ATOM    141  C1  IDS B   8      61.416  12.725   5.6950  0.00  0.00     0.000 C
ATOM    142  C2  IDS B   8      61.403  12.665   7.2490  0.00  0.00     0.000 C
ATOM    143  C3  IDS B   8      60.484  11.561   7.8030  0.00  0.00     0.000 C
ATOM    144  C4  IDS B   8      60.637  10.250   7.0340  0.00  0.00     0.000 C
ATOM    145  C5  IDS B   8      60.652  10.521   5.5220  0.00  0.00     0.000 C
ATOM    146  O5  IDS B   8      61.684  11.435   5.1610  0.00  0.00     0.000 O
BRANCH 142 147
ATOM    147   O  IDS B   8      62.776  12.385   7.7460  0.00  0.00     0.000 O
ATOM    148   S  IDS B   8      63.751  13.587   8.2310  0.00  0.00     0.000 S
ATOM    149   O  IDS B   8      63.205  14.826   7.7240  0.00  0.00     0.000 OA
ATOM    150   O  IDS B   8      63.751  13.524   9.6800  0.00  0.00     0.000 OA
ATOM    151   O  IDS B   8      65.045  13.287   7.6480  0.00  0.00     0.000 OA
ENDBRANCH 142 147
BRANCH 145 152
ATOM    152   C  IDS B   8      60.901   9.268   4.7070  0.00  0.00     0.000 C
ATOM    153   O  IDS B   8      59.970   8.506   4.4700  0.00  0.00     0.000 OA
ATOM    154   O  IDS B   8      62.018   9.040   4.2790  0.00  0.00     0.000 OA
ENDBRANCH 145 152
ENDBRANCH 140 144
ENDBRANCH 120 140
ENDBRANCH 119 123
ENDBRANCH 103 119
ENDBRANCH 102 106
ENDBRANCH 82 102
ENDBRANCH 81 85
ENDBRANCH 65 81
ENDBRANCH 64 68
ENDBRANCH 41 64
ENDBRANCH 40 44
ENDBRANCH 24 40
ENDBRANCH 23 27
ENDBRANCH 1 23
TORSDOF 31
ENDMDL
MODEL 46
REMARK VINA RESULT:      -2.4     16.723     21.774
ROOT
ATOM      1  C1  SGN B   1      46.029  18.768  39.3000  0.00  0.00     0.000 C
ATOM      2  C2  SGN B   1      47.281  18.305  40.0620  0.00  0.00     0.000 C
ATOM      3  C3  SGN B   1      48.280  19.457  40.2160  0.00  0.00     0.000 C
ATOM      4  C4  SGN B   1      48.626  20.039  38.8490  0.00  0.00     0.000 C
ATOM      5  C5  SGN B   1      47.335  20.343  38.0940  0.00  0.00     0.000 C
ATOM      6  O5  SGN B   1      46.525  19.153  38.0250  0.00  0.00     0.000 O
ATOM      7   O  SGN B   1      49.456  19.014  40.8830  0.00  0.00     0.000 O
ATOM      9  HD  SGN B   1      49.457  18.516  40.1750  0.00  0.00     0.000 HD
ATOM      9   O  SGN B   1      49.383  21.224  39.0200  0.00  0.00     0.000 O
ATOM     11  HD  SGN B   1      49.383  20.725  38.3120  0.00  0.00     0.000 HD
ENDROOT
BRANCH 2 13
ATOM     11   N  SGN B   1      46.978  16.889  40.3420  0.00  0.00     0.000 N
ATOM     13  HD  SGN B   1      46.416  17.510  40.5600  0.00  0.00     0.000 HD
ATOM     13   S  SGN B   1      46.036  16.437  41.5660  0.00  0.00     0.000 S
ATOM     14   O  SGN B   1      45.544  17.572  42.2440  0.00  0.00     0.000 OA
ATOM     15   O  SGN B   1      45.122  15.453  41.0920  0.00  0.00     0.000 OA
ATOM     16   O  SGN B   1      47.114  15.694  42.4140  0.00  0.00     0.000 OA
ENDBRANCH 2 13
BRANCH 5 17
ATOM     17   C  SGN B   1      47.548  20.824  36.6800  0.00  0.00     0.000 C
ATOM     18   O  SGN B   1      48.564  20.043  36.0190  0.00  0.00     0.000 O
ATOM     19   S  SGN B   1      49.653  20.869  35.1880  0.00  0.00     0.000 S
ATOM     20   O  SGN B   1      50.394  19.871  34.4470  0.00  0.00     0.000 OA
ATOM     21   O  SGN B   1      48.867  21.745  34.3510  0.00  0.00     0.000 OA
ATOM     22   O  SGN B   1      50.444  21.559  36.1830  0.00  0.00     0.000 OA
ENDBRANCH 5 17
BRANCH 1 23
ATOM     23  O4  IDS B   2      44.799  19.312  39.5260  0.00  0.00     0.000 O
BRANCH 23 27
ATOM     24  C1  IDS B   2      40.868  19.400  38.1970  0.00  0.00     0.000 C
ATOM     25  C2  IDS B   2      41.099  19.926  39.6310  0.00  0.00     0.000 C
ATOM     26  C3  IDS B   2      42.587  20.127  39.9050  0.00  0.00     0.000 C
ATOM     27  C4  IDS B   2      43.427  18.884  39.6450  0.00  0.00     0.000 C
ATOM     28  C5  IDS B   2      42.884  18.130  38.4140  0.00  0.00     0.000 C
ATOM     29  O5  IDS B   2      42.103  18.989  37.5960  0.00  0.00     0.000 O
ATOM     30   O  IDS B   2      42.767  20.490  41.2690  0.00  0.00     0.000 O
ATOM     32  HD  IDS B   2      42.728  19.815  41.8100  0.00  0.00     0.000 HD
BRANCH 25 32
ATOM     32   O  IDS B   2      40.420  21.223  39.8690  0.00  0.00     0.000 O
ATOM     33   S  IDS B   2      39.271  21.403  41.0410  0.00  0.00     0.000 S
ATOM     34   O  IDS B   2      38.681  22.715  40.8320  0.00  0.00     0.000 OA
ATOM     35   O  IDS B   2      38.278  20.346  40.9110  0.00  0.00     0.000 OA
ATOM     36   O  IDS B   2      39.982  21.339  42.2970  0.00  0.00     0.000 OA
ENDBRANCH 25 32
BRANCH 28 37
ATOM     37   C  IDS B   2      43.900  17.395  37.5140  0.00  0.00     0.000 C
ATOM     38   O  IDS B   2      44.312  16.374  38.0120  0.00  0.00     0.000 OA
ATOM     39   O  IDS B   2      44.256  17.721  36.3560  0.00  0.00     0.000 OA
ENDBRANCH 28 37
BRANCH 24 40
ATOM     40  O4  SUS B   3      39.620  19.095  37.7850  0.00  0.00     0.000 O
BRANCH 40 44
ATOM     41  C1  SUS B   3      37.911  19.233  33.9630  0.00  0.00     0.000 C
ATOM     42  C2  SUS B   3      38.956  18.131  34.2290  0.00  0.00     0.000 C
ATOM     43  C3  SUS B   3      39.098  17.926  35.7350  0.00  0.00     0.000 C
ATOM     44  C4  SUS B   3      39.430  19.260  36.3850  0.00  0.00     0.000 C
ATOM     45  C5  SUS B   3      38.290  20.225  36.1300  0.00  0.00     0.000 C
ATOM     46  O5  SUS B   3      38.180  20.427  34.7060  0.00  0.00     0.000 O
BRANCH 42 49
ATOM     47   N  SUS B   3      39.474  18.127  32.8500  0.00  0.00     0.000 N
ATOM     49  HD  SUS B   3      39.063  18.633  32.2810  0.00  0.00     0.000 HD
ATOM     49   S  SUS B   3      39.567  16.653  32.2300  0.00  0.00     0.000 S
ATOM     50   O  SUS B   3      38.299  16.038  32.2610  0.00  0.00     0.000 OA
ATOM     51   O  SUS B   3      39.929  17.088  30.7870  0.00  0.00     0.000 OA
ATOM     52   O  SUS B   3      40.642  15.962  32.8250  0.00  0.00     0.000 OA
ENDBRANCH 42 49
BRANCH 43 53
ATOM     53   O  SUS B   3      40.200  16.970  35.9620  0.00  0.00     0.000 O
ATOM     54   S  SUS B   3      39.803  15.500  36.5810  0.00  0.00     0.000 S
ATOM     55   O  SUS B   3      39.106  14.761  35.5370  0.00  0.00     0.000 OA
ATOM     56   O  SUS B   3      41.079  14.920  36.9570  0.00  0.00     0.000 OA
ATOM     57   O  SUS B   3      38.924  15.756  37.7260  0.00  0.00     0.000 OA
ENDBRANCH 43 53
BRANCH 45 58
ATOM     58   C  SUS B   3      38.501  21.549  36.8310  0.00  0.00     0.000 C
ATOM     59   S  SUS B   3      39.586  23.856  36.5360  0.00  0.00     0.000 S
ATOM     60   O  SUS B   3      39.095  22.484  35.9160  0.00  0.00     0.000 O
ATOM     61   O  SUS B   3      40.844  23.547  37.1910  0.00  0.00     0.000 OA
ATOM     62   O  SUS B   3      39.758  24.643  35.3450  0.00  0.00     0.000 OA
ATOM     63   O  SUS B   3      38.540  24.279  37.3990  0.00  0.00     0.000 OA
ENDBRANCH 45 58
BRANCH 41 64
ATOM     64  O4  IDS B   4      36.612  18.798  34.0520  0.00  0.00     0.000 O
BRANCH 64 68
ATOM     65  C1  IDS B   4      33.096  18.241  33.2730  0.00  0.00     0.000 C
ATOM     66  C2  IDS B   4      34.188  17.515  32.4770  0.00  0.00     0.000 C
ATOM     67  C3  IDS B   4      35.330  18.407  32.0190  0.00  0.00     0.000 C
ATOM     68  C4  IDS B   4      35.749  19.416  33.0720  0.00  0.00     0.000 C
ATOM     69  C5  IDS B   4      34.479  20.029  33.6770  0.00  0.00     0.000 C
ATOM     70  O5  IDS B   4      33.709  18.999  34.3000  0.00  0.00     0.000 O
ATOM     71   O  IDS B   4      34.894  19.082  30.8570  0.00  0.00     0.000 O
ATOM     73  HD  IDS B   4      34.873  18.464  31.4640  0.00  0.00     0.000 HD
BRANCH 66 73
ATOM     73   O  IDS B   4      34.807  16.500  33.3400  0.00  0.00     0.000 O
ATOM     74   S  IDS B   4      34.582  14.943  32.9610  0.00  0.00     0.000 S
ATOM     75   O  IDS B   4      33.151  14.735  32.9160  0.00  0.00     0.000 OA
ATOM     76   O  IDS B   4      35.238  14.274  34.0570  0.00  0.00     0.000 OA
ATOM     77   O  IDS B   4      35.227  14.760  31.6830  0.00  0.00     0.000 OA
ENDBRANCH 66 73
BRANCH 69 78
ATOM     78   C  IDS B   4      34.730  21.218  34.5940  0.00  0.00     0.000 C
ATOM     79   O  IDS B   4      35.381  22.169  34.1640  0.00  0.00     0.000 OA
ATOM     80   O  IDS B   4      34.179  21.236  35.7100  0.00  0.00     0.000 OA
ENDBRANCH 69 78
BRANCH 65 81
ATOM     81  O4  SGN B   5      32.283  18.916  32.4140  0.00  0.00     0.000 O
BRANCH 81 85
ATOM     82  C1  SGN B   5      28.236  19.858  31.8050  0.00  0.00     0.000 C
ATOM     83  C2  SGN B   5      29.132  20.967  32.3760  0.00  0.00     0.000 C
ATOM     84  C3  SGN B   5      30.604  20.631  32.1000  0.00  0.00     0.000 C
ATOM     85  C4  SGN B   5      30.918  19.257  32.6670  0.00  0.00     0.000 C
ATOM     86  C5  SGN B   5      29.986  18.242  32.0110  0.00  0.00     0.000 C
ATOM     87  O5  SGN B   5      28.625  18.599  32.3200  0.00  0.00     0.000 O
ATOM     88   O  SGN B   5      31.436  21.616  32.6720  0.00  0.00     0.000 O
ATOM     90  HD  SGN B   5      31.230  21.558  31.8330  0.00  0.00     0.000 HD
BRANCH 83 92
ATOM     90   N  SGN B   5      27.898  21.595  32.8870  0.00  0.00     0.000 N
ATOM     92  HD  SGN B   5      27.693  21.287  33.6700  0.00  0.00     0.000 HD
ATOM     92   S  SGN B   5      27.735  23.176  32.7190  0.00  0.00     0.000 S
ATOM     93   O  SGN B   5      26.463  23.466  33.3090  0.00  0.00     0.000 OA
ATOM     94   O  SGN B   5      28.920  23.746  33.2630  0.00  0.00     0.000 OA
ATOM     95   O  SGN B   5      27.766  23.410  31.2240  0.00  0.00     0.000 OA
ENDBRANCH 83 92
BRANCH 86 96
ATOM     96   C  SGN B   5      30.195  16.816  32.4750  0.00  0.00     0.000 C
ATOM     97   O  SGN B   5      30.181  16.745  33.9030  0.00  0.00     0.000 O
ATOM     98   S  SGN B   5      29.208  15.644  34.5460  0.00  0.00     0.000 S
ATOM     99   O  SGN B   5      29.566  15.680  35.9430  0.00  0.00     0.000 OA
ATOM    100   O  SGN B   5      27.874  16.037  34.2650  0.00  0.00     0.000 OA
ATOM    101   O  SGN B   5      29.576  14.426  33.9000  0.00  0.00     0.000 OA
ENDBRANCH 86 96
BRANCH 82 102
ATOM    102  O4  IDS B   6      28.235  19.834  30.4420  0.00  0.00     0.000 O
BRANCH 102 106
ATOM    103  C1  IDS B   6      26.868  19.992  27.0720  0.00  0.00     0.000 C
ATOM    104  C2  IDS B   6      26.709  21.174  28.0400  0.00  0.00     0.000 C
ATOM    105  C3  IDS B   6      26.242  20.804  29.4350  0.00  0.00     0.000 C
ATOM    106  C4  IDS B   6      26.900  19.539  29.9580  0.00  0.00     0.000 C
ATOM    107  C5  IDS B   6      26.944  18.483  28.8500  0.00  0.00     0.000 C
ATOM    108  O5  IDS B   6      27.618  18.960  27.6840  0.00  0.00     0.000 O
ATOM    109   O  IDS B   6      24.831  20.661  29.4050  0.00  0.00     0.000 O
ATOM    111  HD  IDS B   6      24.656  20.496  28.5730  0.00  0.00     0.000 HD
BRANCH 104 111
ATOM    111   O  IDS B   6      28.017  21.820  28.2280  0.00  0.00     0.000 O
ATOM    112   S  IDS B   6      28.270  23.229  27.5120  0.00  0.00     0.000 S
ATOM    113   O  IDS B   6      28.068  22.963  26.0970  0.00  0.00     0.000 OA
ATOM    114   O  IDS B   6      27.348  24.215  28.0880  0.00  0.00     0.000 OA
ATOM    115   O  IDS B   6      29.655  23.432  27.8800  0.00  0.00     0.000 OA
ENDBRANCH 104 111
BRANCH 107 116
ATOM    116   C  IDS B   6      27.639  17.232  29.3730  0.00  0.00     0.000 C
ATOM    117   O  IDS B   6      27.073  16.623  30.2450  0.00  0.00     0.000 OA
ATOM    118   O  IDS B   6      28.720  16.875  28.9330  0.00  0.00     0.000 OA
ENDBRANCH 107 116
BRANCH 103 119
ATOM    119  O4  SGN B   7      25.606  19.775  26.6200  0.00  0.00     0.000 O
BRANCH 119 123
ATOM    120  C1  SGN B   7      23.836  18.538  23.0380  0.00  0.00     0.000 C
ATOM    121  C2  SGN B   7      24.470  17.455  23.9320  0.00  0.00     0.000 C
ATOM    122  C3  SGN B   7      24.701  17.995  25.3490  0.00  0.00     0.000 C
ATOM    123  C4  SGN B   7      25.503  19.285  25.2820  0.00  0.00     0.000 C
ATOM    124  C5  SGN B   7      24.793  20.294  24.3640  0.00  0.00     0.000 C
ATOM    125  O5  SGN B   7      24.597  19.744  23.0420  0.00  0.00     0.000 O
ATOM    126   O  SGN B   7      25.380  16.999  26.1220  0.00  0.00     0.000 O
ATOM    128  HD  SGN B   7      24.961  17.205  25.3930  0.00  0.00     0.000 HD
BRANCH 121 130
ATOM    128   N  SGN B   7      23.559  16.523  23.2620  0.00  0.00     0.000 N
ATOM    130  HD  SGN B   7      24.071  16.514  22.5630  0.00  0.00     0.000 HD
ATOM    130   S  SGN B   7      23.925  14.970  23.0460  0.00  0.00     0.000 S
ATOM    131   O  SGN B   7      24.332  14.502  24.3270  0.00  0.00     0.000 OA
ATOM    132   O  SGN B   7      22.847  14.348  22.3650  0.00  0.00     0.000 OA
ATOM    133   O  SGN B   7      25.054  15.094  21.9680  0.00  0.00     0.000 OA
ENDBRANCH 121 130
BRANCH 124 134
ATOM    134   C  SGN B   7      25.567  21.560  24.1420  0.00  0.00     0.000 C
ATOM    135   O  SGN B   7      25.285  22.042  22.8170  0.00  0.00     0.000 O
ATOM    136   S  SGN B   7      25.881  23.446  22.4410  0.00  0.00     0.000 S
ATOM    137   O  SGN B   7      25.560  23.665  21.0510  0.00  0.00     0.000 OA
ATOM    138   O  SGN B   7      27.302  23.330  22.6810  0.00  0.00     0.000 OA
ATOM    139   O  SGN B   7      25.186  24.336  23.3570  0.00  0.00     0.000 OA
ENDBRANCH 124 134
BRANCH 120 140
ATOM    140  O4  IDS B   8      22.610  19.064  23.1270  0.00  0.00     0.000 O
BRANCH 140 144
ATOM    141  C1  IDS B   8      19.159  20.035  22.7920  0.00  0.00     0.000 C
ATOM    142  C2  IDS B   8      20.151  20.185  21.6030  0.00  0.00     0.000 C
ATOM    143  C3  IDS B   8      21.469  20.875  22.0010  0.00  0.00     0.000 C
ATOM    144  C4  IDS B   8      22.013  20.351  23.3290  0.00  0.00     0.000 C
ATOM    145  C5  IDS B   8      20.880  20.251  24.3620  0.00  0.00     0.000 C
ATOM    146  O5  IDS B   8      19.814  19.426  23.8980  0.00  0.00     0.000 O
BRANCH 142 147
ATOM    147   O  IDS B   8      20.501  18.840  21.0760  0.00  0.00     0.000 O
ATOM    148   S  IDS B   8      20.923  18.634  19.5240  0.00  0.00     0.000 S
ATOM    149   O  IDS B   8      20.511  19.813  18.7970  0.00  0.00     0.000 OA
ATOM    150   O  IDS B   8      22.363  18.456  19.5350  0.00  0.00     0.000 OA
ATOM    151   O  IDS B   8      20.207  17.451  19.0870  0.00  0.00     0.000 OA
ENDBRANCH 142 147
BRANCH 145 152
ATOM    152   C  IDS B   8      21.338  19.642  25.6720  0.00  0.00     0.000 C
ATOM    153   O  IDS B   8      21.049  18.480  25.9330  0.00  0.00     0.000 OA
ATOM    154   O  IDS B   8      22.006  20.307  26.4440  0.00  0.00     0.000 OA
ENDBRANCH 145 152
ENDBRANCH 140 144
ENDBRANCH 120 140
ENDBRANCH 119 123
ENDBRANCH 103 119
ENDBRANCH 102 106
ENDBRANCH 82 102
ENDBRANCH 81 85
ENDBRANCH 65 81
ENDBRANCH 64 68
ENDBRANCH 41 64
ENDBRANCH 40 44
ENDBRANCH 24 40
ENDBRANCH 23 27
ENDBRANCH 1 23
TORSDOF 31
ENDMDL
MODEL 47
REMARK VINA RESULT:      -2.2     13.873     29.191
ROOT
ATOM      1  C1  SGN B   1      11.385  33.485  52.7050  0.00  0.00     0.000 C
ATOM      2  C2  SGN B   1      12.118  34.405  53.6940  0.00  0.00     0.000 C
ATOM      3  C3  SGN B   1      12.747  33.590  54.8290  0.00  0.00     0.000 C
ATOM      4  C4  SGN B   1      11.685  32.741  55.5200  0.00  0.00     0.000 C
ATOM      5  C5  SGN B   1      10.904  31.963  54.4630  0.00  0.00     0.000 C
ATOM      6  O5  SGN B   1      10.367  32.879  53.4890  0.00  0.00     0.000 O
ATOM      7   O  SGN B   1      13.387  34.448  55.7670  0.00  0.00     0.000 O
ATOM      9  HD  SGN B   1      12.565  34.717  55.8140  0.00  0.00     0.000 HD
ATOM      9   O  SGN B   1      12.309  31.848  56.4220  0.00  0.00     0.000 O
ATOM     11  HD  SGN B   1      11.487  32.117  56.4700  0.00  0.00     0.000 HD
ENDROOT
BRANCH 2 13
ATOM     11   N  SGN B   1      11.881  35.726  53.0820  0.00  0.00     0.000 N
ATOM     13  HD  SGN B   1      12.244  35.087  52.6240  0.00  0.00     0.000 HD
ATOM     13   S  SGN B   1      12.798  36.297  51.8890  0.00  0.00     0.000 S
ATOM     14   O  SGN B   1      13.770  35.343  51.5240  0.00  0.00     0.000 OA
ATOM     15   O  SGN B   1      11.944  36.845  50.8880  0.00  0.00     0.000 OA
ATOM     16   O  SGN B   1      13.438  37.496  52.6540  0.00  0.00     0.000 OA
ENDBRANCH 2 13
BRANCH 5 17
ATOM     17   C  SGN B   1       9.748  31.167  55.0170  0.00  0.00     0.000 C
ATOM     18   O  SGN B   1       8.488  31.765  54.6500  0.00  0.00     0.000 O
ATOM     19   S  SGN B   1       7.403  31.885  55.8180  0.00  0.00     0.000 S
ATOM     20   O  SGN B   1       6.180  32.285  55.1550  0.00  0.00     0.000 OA
ATOM     21   O  SGN B   1       7.346  30.558  56.3850  0.00  0.00     0.000 OA
ATOM     22   O  SGN B   1       7.928  32.887  56.7200  0.00  0.00     0.000 OA
ENDBRANCH 5 17
BRANCH 1 23
ATOM     23  O4  IDS B   2      11.611  32.769  51.5670  0.00  0.00     0.000 O
BRANCH 23 27
ATOM     24  C1  IDS B   2      11.561  30.886  47.8680  0.00  0.00     0.000 C
ATOM     25  C2  IDS B   2      11.711  32.422  47.8320  0.00  0.00     0.000 C
ATOM     26  C3  IDS B   2      12.015  32.974  49.2220  0.00  0.00     0.000 C
ATOM     27  C4  IDS B   2      11.000  32.557  50.2770  0.00  0.00     0.000 C
ATOM     28  C5  IDS B   2      10.539  31.108  50.0200  0.00  0.00     0.000 C
ATOM     29  O5  IDS B   2      11.480  30.410  49.2180  0.00  0.00     0.000 O
ATOM     30   O  IDS B   2      12.022  34.396  49.1710  0.00  0.00     0.000 O
ATOM     32  HD  IDS B   2      11.228  34.741  49.1750  0.00  0.00     0.000 HD
BRANCH 25 32
ATOM     32   O  IDS B   2      12.803  32.859  46.9280  0.00  0.00     0.000 O
ATOM     33   S  IDS B   2      12.525  33.854  45.6420  0.00  0.00     0.000 S
ATOM     34   O  IDS B   2      13.759  33.878  44.8730  0.00  0.00     0.000 OA
ATOM     35   O  IDS B   2      11.418  33.330  44.8540  0.00  0.00     0.000 OA
ATOM     36   O  IDS B   2      12.233  35.151  46.2080  0.00  0.00     0.000 OA
ENDBRANCH 25 32
BRANCH 28 37
ATOM     37   C  IDS B   2      10.201  30.232  51.2440  0.00  0.00     0.000 C
ATOM     38   O  IDS B   2       9.047  30.336  51.5900  0.00  0.00     0.000 OA
ATOM     39   O  IDS B   2      10.964  29.424  51.8280  0.00  0.00     0.000 OA
ENDBRANCH 28 37
BRANCH 24 40
ATOM     40  O4  SUS B   3      11.223  30.216  46.7460  0.00  0.00     0.000 O
BRANCH 40 44
ATOM     41  C1  SUS B   3      12.038  26.274  45.5890  0.00  0.00     0.000 C
ATOM     42  C2  SUS B   3      11.015  26.478  46.7240  0.00  0.00     0.000 C
ATOM     43  C3  SUS B   3      10.494  27.913  46.6800  0.00  0.00     0.000 C
ATOM     44  C4  SUS B   3      11.677  28.867  46.7350  0.00  0.00     0.000 C
ATOM     45  C5  SUS B   3      12.555  28.630  45.5230  0.00  0.00     0.000 C
ATOM     46  O5  SUS B   3      13.057  27.279  45.5890  0.00  0.00     0.000 O
BRANCH 42 49
ATOM     47   N  SUS B   3      10.015  25.404  46.6000  0.00  0.00     0.000 N
ATOM     49  HD  SUS B   3       9.190  25.651  46.5100  0.00  0.00     0.000 HD
ATOM     49   S  SUS B   3      10.088  24.349  47.8040  0.00  0.00     0.000 S
ATOM     50   O  SUS B   3       9.919  25.014  49.0360  0.00  0.00     0.000 OA
ATOM     51   O  SUS B   3       8.809  23.559  47.4290  0.00  0.00     0.000 OA
ATOM     52   O  SUS B   3      11.234  23.543  47.6500  0.00  0.00     0.000 OA
ENDBRANCH 42 49
BRANCH 43 53
ATOM     53   O  SUS B   3       9.628  28.119  47.8570  0.00  0.00     0.000 O
ATOM     54   S  SUS B   3       8.025  28.350  47.5770  0.00  0.00     0.000 S
ATOM     55   O  SUS B   3       7.471  27.077  47.1400  0.00  0.00     0.000 OA
ATOM     56   O  SUS B   3       7.507  28.807  48.8550  0.00  0.00     0.000 OA
ATOM     57   O  SUS B   3       7.930  29.362  46.5200  0.00  0.00     0.000 OA
ENDBRANCH 43 53
BRANCH 45 58
ATOM     58   C  SUS B   3      13.703  29.612  45.4540  0.00  0.00     0.000 C
ATOM     59   S  SUS B   3      16.105  29.874  44.5890  0.00  0.00     0.000 S
ATOM     60   O  SUS B   3      14.735  29.080  44.6060  0.00  0.00     0.000 O
ATOM     61   O  SUS B   3      16.779  29.494  45.8160  0.00  0.00     0.000 OA
ATOM     62   O  SUS B   3      16.724  29.314  43.4180  0.00  0.00     0.000 OA
ATOM     63   O  SUS B   3      15.749  31.245  44.4910  0.00  0.00     0.000 OA
ENDBRANCH 45 58
BRANCH 41 64
ATOM     64  O4  IDS B   4      11.464  26.054  44.3610  0.00  0.00     0.000 O
BRANCH 64 68
ATOM     65  C1  IDS B   4      10.855  24.544  41.1010  0.00  0.00     0.000 C
ATOM     66  C2  IDS B   4      10.846  23.678  42.3680  0.00  0.00     0.000 C
ATOM     67  C3  IDS B   4      12.013  23.928  43.3070  0.00  0.00     0.000 C
ATOM     68  C4  IDS B   4      12.361  25.399  43.4360  0.00  0.00     0.000 C
ATOM     69  C5  IDS B   4      12.350  26.018  42.0320  0.00  0.00     0.000 C
ATOM     70  O5  IDS B   4      11.038  25.897  41.4760  0.00  0.00     0.000 O
ATOM     71   O  IDS B   4      13.123  23.218  42.7970  0.00  0.00     0.000 O
ATOM     73  HD  IDS B   4      12.283  23.414  42.8790  0.00  0.00     0.000 HD
BRANCH 66 73
ATOM     73   O  IDS B   4       9.641  23.993  43.1470  0.00  0.00     0.000 O
ATOM     74   S  IDS B   4       8.735  22.760  43.6740  0.00  0.00     0.000 S
ATOM     75   O  IDS B   4       8.369  21.992  42.5030  0.00  0.00     0.000 OA
ATOM     76   O  IDS B   4       7.630  23.448  44.2930  0.00  0.00     0.000 OA
ATOM     77   O  IDS B   4       9.573  22.032  44.5960  0.00  0.00     0.000 OA
ENDBRANCH 66 73
BRANCH 69 78
ATOM     78   C  IDS B   4      12.893  27.438  41.9650  0.00  0.00     0.000 C
ATOM     79   O  IDS B   4      14.079  27.605  41.6820  0.00  0.00     0.000 OA
ATOM     80   O  IDS B   4      12.098  28.387  42.0940  0.00  0.00     0.000 OA
ENDBRANCH 69 78
BRANCH 65 81
ATOM     81  O4  SGN B   5      11.743  24.029  40.2070  0.00  0.00     0.000 O
BRANCH 81 85
ATOM     82  C1  SGN B   5      12.609  23.863  36.1000  0.00  0.00     0.000 C
ATOM     83  C2  SGN B   5      13.299  24.967  36.9150  0.00  0.00     0.000 C
ATOM     84  C3  SGN B   5      13.253  24.610  38.4070  0.00  0.00     0.000 C
ATOM     85  C4  SGN B   5      11.811  24.374  38.8210  0.00  0.00     0.000 C
ATOM     86  C5  SGN B   5      11.244  23.246  37.9630  0.00  0.00     0.000 C
ATOM     87  O5  SGN B   5      11.295  23.646  36.5810  0.00  0.00     0.000 O
ATOM     88   O  SGN B   5      13.834  25.647  39.1660  0.00  0.00     0.000 O
ATOM     90  HD  SGN B   5      14.218  24.897  38.9630  0.00  0.00     0.000 HD
BRANCH 83 92
ATOM     90   N  SGN B   5      13.753  25.275  35.5450  0.00  0.00     0.000 N
ATOM     92  HD  SGN B   5      13.081  25.350  35.0040  0.00  0.00     0.000 HD
ATOM     92   S  SGN B   5      14.896  26.377  35.3610  0.00  0.00     0.000 S
ATOM     93   O  SGN B   5      15.100  26.444  33.9460  0.00  0.00     0.000 OA
ATOM     94   O  SGN B   5      14.443  27.524  36.0720  0.00  0.00     0.000 OA
ATOM     95   O  SGN B   5      16.088  25.823  36.1110  0.00  0.00     0.000 OA
ENDBRANCH 83 92
BRANCH 86 96
ATOM     96   C  SGN B   5       9.805  22.891  38.2770  0.00  0.00     0.000 C
ATOM     97   O  SGN B   5       9.495  21.581  37.7950  0.00  0.00     0.000 O
ATOM     98   S  SGN B   5       8.812  20.584  38.8500  0.00  0.00     0.000 S
ATOM     99   O  SGN B   5       8.445  19.456  38.0290  0.00  0.00     0.000 OA
ATOM    100   O  SGN B   5       9.776  20.300  39.8520  0.00  0.00     0.000 OA
ATOM    101   O  SGN B   5       7.689  21.310  39.3490  0.00  0.00     0.000 OA
ENDBRANCH 86 96
BRANCH 82 102
ATOM    102  O4  IDS B   6      13.312  22.695  36.0990  0.00  0.00     0.000 O
BRANCH 102 106
ATOM    103  C1  IDS B   6      14.782  20.122  33.9830  0.00  0.00     0.000 C
ATOM    104  C2  IDS B   6      14.450  21.512  33.4160  0.00  0.00     0.000 C
ATOM    105  C3  IDS B   6      13.072  22.037  33.7670  0.00  0.00     0.000 C
ATOM    106  C4  IDS B   6      12.681  21.743  35.2050  0.00  0.00     0.000 C
ATOM    107  C5  IDS B   6      13.079  20.309  35.5670  0.00  0.00     0.000 C
ATOM    108  O5  IDS B   6      14.473  20.076  35.3630  0.00  0.00     0.000 O
ATOM    109   O  IDS B   6      12.139  21.465  32.8650  0.00  0.00     0.000 O
ATOM    111  HD  IDS B   6      12.531  20.744  32.5880  0.00  0.00     0.000 HD
BRANCH 104 111
ATOM    111   O  IDS B   6      15.393  22.494  33.9720  0.00  0.00     0.000 O
ATOM    112   S  IDS B   6      16.526  23.081  33.0050  0.00  0.00     0.000 S
ATOM    113   O  IDS B   6      17.265  21.912  32.5550  0.00  0.00     0.000 OA
ATOM    114   O  IDS B   6      15.873  23.843  31.9340  0.00  0.00     0.000 OA
ATOM    115   O  IDS B   6      17.245  23.900  33.9570  0.00  0.00     0.000 OA
ENDBRANCH 104 111
BRANCH 107 116
ATOM    116   C  IDS B   6      12.716  20.038  37.0210  0.00  0.00     0.000 C
ATOM    117   O  IDS B   6      11.684  19.449  37.2210  0.00  0.00     0.000 OA
ATOM    118   O  IDS B   6      13.435  20.409  37.9350  0.00  0.00     0.000 OA
ENDBRANCH 107 116
BRANCH 103 119
ATOM    119  O4  SGN B   7      14.204  19.268  33.1000  0.00  0.00     0.000 O
BRANCH 119 123
ATOM    120  C1  SGN B   7      15.062  15.482  31.5450  0.00  0.00     0.000 C
ATOM    121  C2  SGN B   7      14.387  15.549  32.9280  0.00  0.00     0.000 C
ATOM    122  C3  SGN B   7      13.785  16.940  33.1660  0.00  0.00     0.000 C
ATOM    123  C4  SGN B   7      14.849  18.004  32.9480  0.00  0.00     0.000 C
ATOM    124  C5  SGN B   7      15.464  17.848  31.5480  0.00  0.00     0.000 C
ATOM    125  O5  SGN B   7      16.019  16.526  31.3680  0.00  0.00     0.000 O
ATOM    126   O  SGN B   7      13.255  16.997  34.4950  0.00  0.00     0.000 O
ATOM    128  HD  SGN B   7      13.585  16.516  33.8550  0.00  0.00     0.000 HD
BRANCH 121 130
ATOM    128   N  SGN B   7      13.413  14.454  32.9320  0.00  0.00     0.000 N
ATOM    130  HD  SGN B   7      13.946  13.968  32.4540  0.00  0.00     0.000 HD
ATOM    130   S  SGN B   7      13.630  13.115  33.7990  0.00  0.00     0.000 S
ATOM    131   O  SGN B   7      13.943  13.567  35.1120  0.00  0.00     0.000 OA
ATOM    132   O  SGN B   7      12.521  12.257  33.5810  0.00  0.00     0.000 OA
ATOM    133   O  SGN B   7      14.805  12.452  33.0020  0.00  0.00     0.000 OA
ENDBRANCH 121 130
BRANCH 124 134
ATOM    134   C  SGN B   7      16.607  18.782  31.2800  0.00  0.00     0.000 C
ATOM    135   O  SGN B   7      17.166  18.465  29.9940  0.00  0.00     0.000 O
ATOM    136   S  SGN B   7      18.282  19.433  29.4580  0.00  0.00     0.000 S
ATOM    137   O  SGN B   7      18.755  18.860  28.2200  0.00  0.00     0.000 OA
ATOM    138   O  SGN B   7      19.291  19.455  30.4910  0.00  0.00     0.000 OA
ATOM    139   O  SGN B   7      17.559  20.684  29.2940  0.00  0.00     0.000 OA
ENDBRANCH 124 134
BRANCH 120 140
ATOM    140  O4  IDS B   8      14.479  15.527  30.3410  0.00  0.00     0.000 O
BRANCH 140 144
ATOM    141  C1  IDS B   8      11.987  15.644  27.7460  0.00  0.00     0.000 C
ATOM    142  C2  IDS B   8      11.800  14.736  28.9940  0.00  0.00     0.000 C
ATOM    143  C3  IDS B   8      13.040  13.880  29.3100  0.00  0.00     0.000 C
ATOM    144  C4  IDS B   8      14.335  14.682  29.1930  0.00  0.00     0.000 C
ATOM    145  C5  IDS B   8      14.319  15.530  27.9120  0.00  0.00     0.000 C
ATOM    146  O5  IDS B   8      13.188  16.397  27.8690  0.00  0.00     0.000 O
BRANCH 142 147
ATOM    147   O  IDS B   8      11.534  15.582  30.1870  0.00  0.00     0.000 O
ATOM    148   S  IDS B   8      10.169  15.411  31.0470  0.00  0.00     0.000 S
ATOM    149   O  IDS B   8       9.233  14.664  30.2380  0.00  0.00     0.000 OA
ATOM    150   O  IDS B   8      10.558  14.703  32.2530  0.00  0.00     0.000 OA
ATOM    151   O  IDS B   8       9.707  16.761  31.3030  0.00  0.00     0.000 OA
ENDBRANCH 142 147
BRANCH 145 152
ATOM    152   C  IDS B   8      15.535  16.426  27.7900  0.00  0.00     0.000 C
ATOM    153   O  IDS B   8      16.648  15.969  28.0280  0.00  0.00     0.000 OA
ATOM    154   O  IDS B   8      15.397  17.583  27.4360  0.00  0.00     0.000 OA
ENDBRANCH 145 152
ENDBRANCH 140 144
ENDBRANCH 120 140
ENDBRANCH 119 123
ENDBRANCH 103 119
ENDBRANCH 102 106
ENDBRANCH 82 102
ENDBRANCH 81 85
ENDBRANCH 65 81
ENDBRANCH 64 68
ENDBRANCH 41 64
ENDBRANCH 40 44
ENDBRANCH 24 40
ENDBRANCH 23 27
ENDBRANCH 1 23
TORSDOF 31
ENDMDL
MODEL 48
REMARK VINA RESULT:      -2.1     13.254     28.190
ROOT
ATOM      1  C1  SGN B   1      11.426  32.851  51.9750  0.00  0.00     0.000 C
ATOM      2  C2  SGN B   1      12.054  33.367  53.2800  0.00  0.00     0.000 C
ATOM      3  C3  SGN B   1      12.269  32.218  54.2710  0.00  0.00     0.000 C
ATOM      4  C4  SGN B   1      10.954  31.486  54.5210  0.00  0.00     0.000 C
ATOM      5  C5  SGN B   1      10.319  31.129  53.1800  0.00  0.00     0.000 C
ATOM      6  O5  SGN B   1      10.172  32.321  52.3840  0.00  0.00     0.000 O
ATOM      7   O  SGN B   1      12.808  32.706  55.4940  0.00  0.00     0.000 O
ATOM      9  HD  SGN B   1      12.052  33.126  55.4550  0.00  0.00     0.000 HD
ATOM      9   O  SGN B   1      11.204  30.312  55.2710  0.00  0.00     0.000 O
ATOM     11  HD  SGN B   1      10.448  30.732  55.2330  0.00  0.00     0.000 HD
ENDROOT
BRANCH 2 13
ATOM     11   N  SGN B   1      12.213  34.814  53.0390  0.00  0.00     0.000 N
ATOM     13  HD  SGN B   1      12.506  34.236  52.4630  0.00  0.00     0.000 HD
ATOM     13   S  SGN B   1      13.422  35.410  52.1600  0.00  0.00     0.000 S
ATOM     14   O  SGN B   1      14.217  34.361  51.6520  0.00  0.00     0.000 OA
ATOM     15   O  SGN B   1      12.891  36.382  51.2650  0.00  0.00     0.000 OA
ATOM     16   O  SGN B   1      14.162  36.184  53.2940  0.00  0.00     0.000 OA
ENDBRANCH 2 13
BRANCH 5 17
ATOM     17   C  SGN B   1       8.954  30.495  53.2950  0.00  0.00     0.000 C
ATOM     18   O  SGN B   1       8.150  31.181  54.2760  0.00  0.00     0.000 O
ATOM     19   S  SGN B   1       7.346  30.250  55.2980  0.00  0.00     0.000 S
ATOM     20   O  SGN B   1       6.456  31.148  56.0020  0.00  0.00     0.000 OA
ATOM     21   O  SGN B   1       6.660  29.304  54.4490  0.00  0.00     0.000 OA
ATOM     22   O  SGN B   1       8.358  29.655  56.1430  0.00  0.00     0.000 OA
ENDBRANCH 5 17
BRANCH 1 23
ATOM     23  O4  IDS B   2      11.786  32.358  50.7560  0.00  0.00     0.000 O
BRANCH 23 27
ATOM     24  C1  IDS B   2      12.302  31.371  46.7570  0.00  0.00     0.000 C
ATOM     25  C2  IDS B   2      12.642  32.830  47.1330  0.00  0.00     0.000 C
ATOM     26  C3  IDS B   2      12.706  33.002  48.6480  0.00  0.00     0.000 C
ATOM     27  C4  IDS B   2      11.445  32.541  49.3660  0.00  0.00     0.000 C
ATOM     28  C5  IDS B   2      10.877  31.284  48.6780  0.00  0.00     0.000 C
ATOM     29  O5  IDS B   2      11.876  30.631  47.9090  0.00  0.00     0.000 O
ATOM     30   O  IDS B   2      12.896  34.378  48.9550  0.00  0.00     0.000 O
ATOM     32  HD  IDS B   2      12.168  34.844  48.9030  0.00  0.00     0.000 HD
BRANCH 25 32
ATOM     32   O  IDS B   2      13.947  33.263  46.5770  0.00  0.00     0.000 O
ATOM     33   S  IDS B   2      14.072  34.537  45.5360  0.00  0.00     0.000 S
ATOM     34   O  IDS B   2      15.438  34.521  45.0370  0.00  0.00     0.000 OA
ATOM     35   O  IDS B   2      13.109  34.375  44.4550  0.00  0.00     0.000 OA
ATOM     36   O  IDS B   2      13.815  35.716  46.3300  0.00  0.00     0.000 OA
ENDBRANCH 25 32
BRANCH 28 37
ATOM     37   C  IDS B   2      10.181  30.230  49.5640  0.00  0.00     0.000 C
ATOM     38   O  IDS B   2       8.998  30.439  49.6980  0.00  0.00     0.000 OA
ATOM     39   O  IDS B   2      10.701  29.205  50.0680  0.00  0.00     0.000 OA
ENDBRANCH 28 37
BRANCH 24 40
ATOM     40  O4  SUS B   3      12.133  31.031  45.4620  0.00  0.00     0.000 O
BRANCH 40 44
ATOM     41  C1  SUS B   3      12.789  27.387  43.5030  0.00  0.00     0.000 C
ATOM     42  C2  SUS B   3      11.600  27.457  44.4830  0.00  0.00     0.000 C
ATOM     43  C3  SUS B   3      11.226  28.919  44.7160  0.00  0.00     0.000 C
ATOM     44  C4  SUS B   3      12.460  29.674  45.1870  0.00  0.00     0.000 C
ATOM     45  C5  SUS B   3      13.517  29.608  44.1040  0.00  0.00     0.000 C
ATOM     46  O5  SUS B   3      13.877  28.225  43.9090  0.00  0.00     0.000 O
BRANCH 42 49
ATOM     47   N  SUS B   3      11.727  26.016  44.7600  0.00  0.00     0.000 N
ATOM     49  HD  SUS B   3      12.235  25.562  44.2250  0.00  0.00     0.000 HD
ATOM     49   S  SUS B   3      10.308  25.276  44.8450  0.00  0.00     0.000 S
ATOM     50   O  SUS B   3       9.595  25.467  43.6440  0.00  0.00     0.000 OA
ATOM     51   O  SUS B   3      10.864  23.832  44.9280  0.00  0.00     0.000 OA
ATOM     52   O  SUS B   3       9.668  25.633  46.0480  0.00  0.00     0.000 OA
ENDBRANCH 42 49
BRANCH 43 53
ATOM     53   O  SUS B   3      10.184  28.961  45.7600  0.00  0.00     0.000 O
ATOM     54   S  SUS B   3       8.688  29.469  45.3050  0.00  0.00     0.000 S
ATOM     55   O  SUS B   3       8.104  28.421  44.4790  0.00  0.00     0.000 OA
ATOM     56   O  SUS B   3       7.991  29.680  46.5620  0.00  0.00     0.000 OA
ATOM     57   O  SUS B   3       8.884  30.702  44.5380  0.00  0.00     0.000 OA
ENDBRANCH 43 53
BRANCH 45 58
ATOM     58   C  SUS B   3      14.742  30.422  44.4580  0.00  0.00     0.000 C
ATOM     59   S  SUS B   3      17.307  30.363  44.4070  0.00  0.00     0.000 S
ATOM     60   O  SUS B   3      15.915  29.767  43.9450  0.00  0.00     0.000 O
ATOM     61   O  SUS B   3      17.502  29.871  45.7570  0.00  0.00     0.000 OA
ATOM     62   O  SUS B   3      18.192  29.744  43.4560  0.00  0.00     0.000 OA
ATOM     63   O  SUS B   3      17.176  31.772  44.2860  0.00  0.00     0.000 OA
ENDBRANCH 45 58
BRANCH 41 64
ATOM     64  O4  IDS B   4      12.430  27.531  42.1860  0.00  0.00     0.000 O
BRANCH 64 68
ATOM     65  C1  IDS B   4      11.757  26.607  38.7260  0.00  0.00     0.000 C
ATOM     66  C2  IDS B   4      11.115  25.819  39.8750  0.00  0.00     0.000 C
ATOM     67  C3  IDS B   4      12.076  25.440  40.9900  0.00  0.00     0.000 C
ATOM     68  C4  IDS B   4      13.054  26.550  41.3280  0.00  0.00     0.000 C
ATOM     69  C5  IDS B   4      13.584  27.137  40.0130  0.00  0.00     0.000 C
ATOM     70  O5  IDS B   4      12.494  27.688  39.2700  0.00  0.00     0.000 O
ATOM     71   O  IDS B   4      12.784  24.294  40.5620  0.00  0.00     0.000 O
ATOM     73  HD  IDS B   4      12.139  24.872  40.5490  0.00  0.00     0.000 HD
BRANCH 66 73
ATOM     73   O  IDS B   4      10.090  26.658  40.5100  0.00  0.00     0.000 O
ATOM     74   S  IDS B   4       8.540  26.355  40.1630  0.00  0.00     0.000 S
ATOM     75   O  IDS B   4       8.418  26.444  38.7230  0.00  0.00     0.000 OA
ATOM     76   O  IDS B   4       7.864  27.410  40.8760  0.00  0.00     0.000 OA
ATOM     77   O  IDS B   4       8.281  25.031  40.6770  0.00  0.00     0.000 OA
ENDBRANCH 66 73
BRANCH 69 78
ATOM     78   C  IDS B   4      14.740  28.113  40.1800  0.00  0.00     0.000 C
ATOM     79   O  IDS B   4      14.545  29.160  40.7960  0.00  0.00     0.000 OA
ATOM     80   O  IDS B   4      15.869  27.773  39.7820  0.00  0.00     0.000 OA
ENDBRANCH 69 78
BRANCH 65 81
ATOM     81  O4  SGN B   5      12.434  25.751  37.9120  0.00  0.00     0.000 O
BRANCH 81 85
ATOM     82  C1  SGN B   5      13.488  24.996  33.9170  0.00  0.00     0.000 C
ATOM     83  C2  SGN B   5      14.128  26.221  34.5880  0.00  0.00     0.000 C
ATOM     84  C3  SGN B   5      14.018  26.086  36.1130  0.00  0.00     0.000 C
ATOM     85  C4  SGN B   5      12.562  25.889  36.4950  0.00  0.00     0.000 C
ATOM     86  C5  SGN B   5      12.046  24.637  35.7900  0.00  0.00     0.000 C
ATOM     87  O5  SGN B   5      12.157  24.830  34.3670  0.00  0.00     0.000 O
ATOM     88   O  SGN B   5      14.553  27.234  36.7350  0.00  0.00     0.000 O
ATOM     90  HD  SGN B   5      14.954  26.470  36.6620  0.00  0.00     0.000 HD
BRANCH 83 92
ATOM     90   N  SGN B   5      15.479  26.275  33.9950  0.00  0.00     0.000 N
ATOM     92  HD  SGN B   5      15.756  25.483  33.7810  0.00  0.00     0.000 HD
ATOM     92   S  SGN B   5      15.779  27.413  32.9140  0.00  0.00     0.000 S
ATOM     93   O  SGN B   5      17.143  27.193  32.5380  0.00  0.00     0.000 OA
ATOM     94   O  SGN B   5      14.745  27.305  31.9430  0.00  0.00     0.000 OA
ATOM     95   O  SGN B   5      15.567  28.714  33.6570  0.00  0.00     0.000 OA
ENDBRANCH 83 92
BRANCH 86 96
ATOM     96   C  SGN B   5      10.599  24.307  36.0900  0.00  0.00     0.000 C
ATOM     97   O  SGN B   5      10.440  22.905  36.3190  0.00  0.00     0.000 O
ATOM     98   S  SGN B   5       9.661  22.493  37.6590  0.00  0.00     0.000 S
ATOM     99   O  SGN B   5       9.489  21.069  37.5010  0.00  0.00     0.000 OA
ATOM    100   O  SGN B   5      10.473  22.873  38.7590  0.00  0.00     0.000 OA
ATOM    101   O  SGN B   5       8.435  23.221  37.5950  0.00  0.00     0.000 OA
ENDBRANCH 86 96
BRANCH 82 102
ATOM    102  O4  IDS B   6      14.203  23.853  34.1200  0.00  0.00     0.000 O
BRANCH 102 106
ATOM    103  C1  IDS B   6      15.205  20.937  32.1830  0.00  0.00     0.000 C
ATOM    104  C2  IDS B   6      14.567  22.156  31.4960  0.00  0.00     0.000 C
ATOM    105  C3  IDS B   6      13.319  22.693  32.1700  0.00  0.00     0.000 C
ATOM    106  C4  IDS B   6      13.430  22.707  33.6840  0.00  0.00     0.000 C
ATOM    107  C5  IDS B   6      14.070  21.402  34.1680  0.00  0.00     0.000 C
ATOM    108  O5  IDS B   6      15.348  21.182  33.5690  0.00  0.00     0.000 O
ATOM    109   O  IDS B   6      12.218  21.904  31.7520  0.00  0.00     0.000 O
ATOM    111  HD  IDS B   6      12.579  21.155  31.5080  0.00  0.00     0.000 HD
BRANCH 104 111
ATOM    111   O  IDS B   6      15.527  23.270  31.5110  0.00  0.00     0.000 O
ATOM    112   S  IDS B   6      15.915  23.949  30.1140  0.00  0.00     0.000 S
ATOM    113   O  IDS B   6      16.460  22.860  29.3170  0.00  0.00     0.000 OA
ATOM    114   O  IDS B   6      14.713  24.576  29.5530  0.00  0.00     0.000 OA
ATOM    115   O  IDS B   6      16.909  24.891  30.5790  0.00  0.00     0.000 OA
ENDBRANCH 104 111
BRANCH 107 116
ATOM    116   C  IDS B   6      14.209  21.441  35.6840  0.00  0.00     0.000 C
ATOM    117   O  IDS B   6      15.329  21.514  36.1240  0.00  0.00     0.000 OA
ATOM    118   O  IDS B   6      13.231  21.391  36.4140  0.00  0.00     0.000 OA
ENDBRANCH 107 116
BRANCH 103 119
ATOM    119  O4  SGN B   7      14.474  19.890  31.7220  0.00  0.00     0.000 O
BRANCH 119 123
ATOM    120  C1  SGN B   7      15.359  16.055  30.3090  0.00  0.00     0.000 C
ATOM    121  C2  SGN B   7      14.951  16.194  31.7880  0.00  0.00     0.000 C
ATOM    122  C3  SGN B   7      14.284  17.552  32.0370  0.00  0.00     0.000 C
ATOM    123  C4  SGN B   7      15.189  18.668  31.5400  0.00  0.00     0.000 C
ATOM    124  C5  SGN B   7      15.542  18.435  30.0620  0.00  0.00     0.000 C
ATOM    125  O5  SGN B   7      16.169  17.146  29.8750  0.00  0.00     0.000 O
ATOM    126   O  SGN B   7      14.009  17.687  33.4360  0.00  0.00     0.000 O
ATOM    128  HD  SGN B   7      14.254  17.177  32.7800  0.00  0.00     0.000 HD
BRANCH 121 130
ATOM    128   N  SGN B   7      15.516  14.991  32.4060  0.00  0.00     0.000 N
ATOM    130  HD  SGN B   7      15.257  15.262  33.1860  0.00  0.00     0.000 HD
ATOM    130   S  SGN B   7      14.592  13.797  32.9640  0.00  0.00     0.000 S
ATOM    131   O  SGN B   7      13.697  13.491  31.9010  0.00  0.00     0.000 OA
ATOM    132   O  SGN B   7      15.437  12.793  33.5020  0.00  0.00     0.000 OA
ATOM    133   O  SGN B   7      13.959  14.494  34.2160  0.00  0.00     0.000 OA
ENDBRANCH 121 130
BRANCH 124 134
ATOM    134   C  SGN B   7      16.527  19.423  29.5100  0.00  0.00     0.000 C
ATOM    135   O  SGN B   7      17.406  18.736  28.6030  0.00  0.00     0.000 O
ATOM    136   S  SGN B   7      18.419  19.628  27.7990  0.00  0.00     0.000 S
ATOM    137   O  SGN B   7      19.251  18.720  27.0460  0.00  0.00     0.000 OA
ATOM    138   O  SGN B   7      19.152  20.366  28.8020  0.00  0.00     0.000 OA
ATOM    139   O  SGN B   7      17.536  20.441  26.9770  0.00  0.00     0.000 OA
ENDBRANCH 124 134
BRANCH 120 140
ATOM    140  O4  IDS B   8      14.560  15.950  29.2410  0.00  0.00     0.000 O
BRANCH 140 144
ATOM    141  C1  IDS B   8      11.558  15.413  27.3280  0.00  0.00     0.000 C
ATOM    142  C2  IDS B   8      11.866  14.556  28.5890  0.00  0.00     0.000 C
ATOM    143  C3  IDS B   8      13.298  13.990  28.5970  0.00  0.00     0.000 C
ATOM    144  C4  IDS B   8      14.329  15.032  28.1660  0.00  0.00     0.000 C
ATOM    145  C5  IDS B   8      13.832  15.787  26.9240  0.00  0.00     0.000 C
ATOM    146  O5  IDS B   8      12.566  16.401  27.1530  0.00  0.00     0.000 O
BRANCH 142 147
ATOM    147   O  IDS B   8      11.718  15.395  29.8070  0.00  0.00     0.000 O
ATOM    148   S  IDS B   8      10.343  15.383  30.6680  0.00  0.00     0.000 S
ATOM    149   O  IDS B   8       9.314  14.793  29.8420  0.00  0.00     0.000 OA
ATOM    150   O  IDS B   8      10.634  14.595  31.8510  0.00  0.00     0.000 OA
ATOM    151   O  IDS B   8      10.067  16.776  30.9650  0.00  0.00     0.000 OA
ENDBRANCH 142 147
BRANCH 145 152
ATOM    152   C  IDS B   8      14.768  16.903  26.5060  0.00  0.00     0.000 C
ATOM    153   O  IDS B   8      14.302  17.960  26.0970  0.00  0.00     0.000 OA
ATOM    154   O  IDS B   8      15.972  16.745  26.6000  0.00  0.00     0.000 OA
ENDBRANCH 145 152
ENDBRANCH 140 144
ENDBRANCH 120 140
ENDBRANCH 119 123
ENDBRANCH 103 119
ENDBRANCH 102 106
ENDBRANCH 82 102
ENDBRANCH 81 85
ENDBRANCH 65 81
ENDBRANCH 64 68
ENDBRANCH 41 64
ENDBRANCH 40 44
ENDBRANCH 24 40
ENDBRANCH 23 27
ENDBRANCH 1 23
TORSDOF 31
ENDMDL
MODEL 49
REMARK VINA RESULT:      -2.1     23.230     29.351
ROOT
ATOM      1  C1  SGN B   1      51.682  38.790  29.8120  0.00  0.00     0.000 C
ATOM      2  C2  SGN B   1      51.799  39.760  30.9980  0.00  0.00     0.000 C
ATOM      3  C3  SGN B   1      50.696  40.823  30.9420  0.00  0.00     0.000 C
ATOM      4  C4  SGN B   1      50.735  41.552  29.6030  0.00  0.00     0.000 C
ATOM      5  C5  SGN B   1      50.759  40.522  28.4750  0.00  0.00     0.000 C
ATOM      6  O5  SGN B   1      51.863  39.618  28.6710  0.00  0.00     0.000 O
ATOM      7   O  SGN B   1      50.834  41.745  32.0160  0.00  0.00     0.000 O
ATOM      9  HD  SGN B   1      51.581  41.855  31.5920  0.00  0.00     0.000 HD
ATOM      9   O  SGN B   1      49.593  42.380  29.4840  0.00  0.00     0.000 O
ATOM     11  HD  SGN B   1      50.340  42.490  29.0600  0.00  0.00     0.000 HD
ENDROOT
BRANCH 2 13
ATOM     11   N  SGN B   1      52.966  39.241  31.7350  0.00  0.00     0.000 N
ATOM     13  HD  SGN B   1      52.314  38.715  31.5190  0.00  0.00     0.000 HD
ATOM     13   S  SGN B   1      52.864  37.980  32.7300  0.00  0.00     0.000 S
ATOM     14   O  SGN B   1      51.552  37.463  32.7250  0.00  0.00     0.000 OA
ATOM     15   O  SGN B   1      53.961  37.110  32.4670  0.00  0.00     0.000 OA
ATOM     16   O  SGN B   1      53.177  38.723  34.0650  0.00  0.00     0.000 OA
ENDBRANCH 2 13
BRANCH 5 17
ATOM     17   C  SGN B   1      50.909  41.123  27.0990  0.00  0.00     0.000 C
ATOM     18   O  SGN B   1      49.748  40.851  26.2890  0.00  0.00     0.000 O
ATOM     19   S  SGN B   1      50.035  40.360  24.7940  0.00  0.00     0.000 S
ATOM     20   O  SGN B   1      48.745  40.387  24.1370  0.00  0.00     0.000 OA
ATOM     21   O  SGN B   1      50.968  41.333  24.2770  0.00  0.00     0.000 OA
ATOM     22   O  SGN B   1      50.588  39.030  24.9330  0.00  0.00     0.000 OA
ENDBRANCH 5 17
BRANCH 1 23
ATOM     23  O4  IDS B   2      51.081  37.615  29.4670  0.00  0.00     0.000 O
BRANCH 23 27
ATOM     24  C1  IDS B   2      48.777  34.518  27.9410  0.00  0.00     0.000 C
ATOM     25  C2  IDS B   2      49.641  35.277  26.9100  0.00  0.00     0.000 C
ATOM     26  C3  IDS B   2      50.655  36.180  27.6060  0.00  0.00     0.000 C
ATOM     27  C4  IDS B   2      50.027  37.148  28.5990  0.00  0.00     0.000 C
ATOM     28  C5  IDS B   2      48.855  36.464  29.3320  0.00  0.00     0.000 C
ATOM     29  O5  IDS B   2      48.966  35.050  29.2580  0.00  0.00     0.000 O
ATOM     30   O  IDS B   2      51.343  36.953  26.6300  0.00  0.00     0.000 O
ATOM     32  HD  IDS B   2      50.887  37.633  26.3490  0.00  0.00     0.000 HD
BRANCH 25 32
ATOM     32   O  IDS B   2      50.394  34.358  26.0220  0.00  0.00     0.000 O
ATOM     33   S  IDS B   2      50.148  34.325  24.3900  0.00  0.00     0.000 S
ATOM     34   O  IDS B   2      50.878  33.170  23.8940  0.00  0.00     0.000 OA
ATOM     35   O  IDS B   2      48.722  34.211  24.1180  0.00  0.00     0.000 OA
ATOM     36   O  IDS B   2      50.708  35.558  23.8870  0.00  0.00     0.000 OA
ENDBRANCH 25 32
BRANCH 28 37
ATOM     37   C  IDS B   2      48.598  36.854  30.8020  0.00  0.00     0.000 C
ATOM     38   O  IDS B   2      48.653  35.909  31.5530  0.00  0.00     0.000 OA
ATOM     39   O  IDS B   2      48.413  38.010  31.2550  0.00  0.00     0.000 OA
ENDBRANCH 28 37
BRANCH 24 40
ATOM     40  O4  SUS B   3      47.774  33.719  27.5200  0.00  0.00     0.000 O
BRANCH 40 44
ATOM     41  C1  SUS B   3      46.297  30.144  29.1270  0.00  0.00     0.000 C
ATOM     42  C2  SUS B   3      46.067  31.431  29.9430  0.00  0.00     0.000 C
ATOM     43  C3  SUS B   3      46.220  32.642  29.0260  0.00  0.00     0.000 C
ATOM     44  C4  SUS B   3      47.579  32.576  28.3450  0.00  0.00     0.000 C
ATOM     45  C5  SUS B   3      47.645  31.317  27.5050  0.00  0.00     0.000 C
ATOM     46  O5  SUS B   3      47.521  30.181  28.3860  0.00  0.00     0.000 O
BRANCH 42 49
ATOM     47   N  SUS B   3      44.795  31.137  30.6240  0.00  0.00     0.000 N
ATOM     49  HD  SUS B   3      44.119  31.635  30.4140  0.00  0.00     0.000 HD
ATOM     49   S  SUS B   3      44.934  31.135  32.2200  0.00  0.00     0.000 S
ATOM     50   O  SUS B   3      45.430  32.380  32.6590  0.00  0.00     0.000 OA
ATOM     51   O  SUS B   3      43.421  31.008  32.5330  0.00  0.00     0.000 OA
ATOM     52   O  SUS B   3      45.626  29.977  32.6280  0.00  0.00     0.000 OA
ENDBRANCH 42 49
BRANCH 43 53
ATOM     53   O  SUS B   3      46.135  33.858  29.8590  0.00  0.00     0.000 O
ATOM     54   S  SUS B   3      44.763  34.754  29.7390  0.00  0.00     0.000 S
ATOM     55   O  SUS B   3      43.692  33.999  30.3740  0.00  0.00     0.000 OA
ATOM     56   O  SUS B   3      45.091  35.993  30.4220  0.00  0.00     0.000 OA
ATOM     57   O  SUS B   3      44.509  34.934  28.3060  0.00  0.00     0.000 OA
ENDBRANCH 43 53
BRANCH 45 58
ATOM     58   C  SUS B   3      48.933  31.229  26.7160  0.00  0.00     0.000 C
ATOM     59   S  SUS B   3      51.388  30.508  26.9060  0.00  0.00     0.000 S
ATOM     60   O  SUS B   3      49.913  30.510  27.4830  0.00  0.00     0.000 O
ATOM     61   O  SUS B   3      51.931  31.809  27.2470  0.00  0.00     0.000 OA
ATOM     62   O  SUS B   3      51.974  29.442  27.6730  0.00  0.00     0.000 OA
ATOM     63   O  SUS B   3      51.252  30.252  25.5160  0.00  0.00     0.000 OA
ENDBRANCH 45 58
BRANCH 41 64
ATOM     64  O4  IDS B   4      45.206  29.754  28.3890  0.00  0.00     0.000 O
BRANCH 64 68
ATOM     65  C1  IDS B   4      42.446  27.580  27.4220  0.00  0.00     0.000 C
ATOM     66  C2  IDS B   4      42.784  27.786  28.9040  0.00  0.00     0.000 C
ATOM     67  C3  IDS B   4      44.264  27.673  29.2320  0.00  0.00     0.000 C
ATOM     68  C4  IDS B   4      45.151  28.324  28.1880  0.00  0.00     0.000 C
ATOM     69  C5  IDS B   4      44.631  27.922  26.8020  0.00  0.00     0.000 C
ATOM     70  O5  IDS B   4      43.294  28.403  26.6420  0.00  0.00     0.000 O
ATOM     71   O  IDS B   4      44.568  26.297  29.3270  0.00  0.00     0.000 O
ATOM     73  HD  IDS B   4      44.048  26.989  29.3100  0.00  0.00     0.000 HD
BRANCH 66 73
ATOM     73   O  IDS B   4      42.401  29.151  29.2910  0.00  0.00     0.000 O
ATOM     74   S  IDS B   4      41.100  29.334  30.2350  0.00  0.00     0.000 S
ATOM     75   O  IDS B   4      39.999  28.697  29.5430  0.00  0.00     0.000 OA
ATOM     76   O  IDS B   4      40.991  30.769  30.3150  0.00  0.00     0.000 OA
ATOM     77   O  IDS B   4      41.436  28.693  31.4840  0.00  0.00     0.000 OA
ENDBRANCH 66 73
BRANCH 69 78
ATOM     78   C  IDS B   4      45.544  28.315  25.6480  0.00  0.00     0.000 C
ATOM     79   O  IDS B   4      46.761  28.302  25.8270  0.00  0.00     0.000 OA
ATOM     80   O  IDS B   4      45.035  28.534  24.5340  0.00  0.00     0.000 OA
ENDBRANCH 69 78
BRANCH 65 81
ATOM     81  O4  SGN B   5      42.453  26.248  27.1370  0.00  0.00     0.000 O
BRANCH 81 85
ATOM     82  C1  SGN B   5      40.646  23.279  24.7800  0.00  0.00     0.000 C
ATOM     83  C2  SGN B   5      41.421  24.381  24.0410  0.00  0.00     0.000 C
ATOM     84  C3  SGN B   5      42.375  25.081  25.0190  0.00  0.00     0.000 C
ATOM     85  C4  SGN B   5      41.583  25.600  26.2060  0.00  0.00     0.000 C
ATOM     86  C5  SGN B   5      40.881  24.418  26.8680  0.00  0.00     0.000 C
ATOM     87  O5  SGN B   5      39.988  23.816  25.9120  0.00  0.00     0.000 O
ATOM     88   O  SGN B   5      43.049  26.132  24.3620  0.00  0.00     0.000 O
ATOM     90  HD  SGN B   5      43.384  25.353  24.5380  0.00  0.00     0.000 HD
BRANCH 83 92
ATOM     90   N  SGN B   5      40.956  23.528  22.9300  0.00  0.00     0.000 N
ATOM     92  HD  SGN B   5      40.123  23.313  23.0310  0.00  0.00     0.000 HD
ATOM     92   S  SGN B   5      41.374  23.938  21.4430  0.00  0.00     0.000 S
ATOM     93   O  SGN B   5      40.773  22.935  20.6170  0.00  0.00     0.000 OA
ATOM     94   O  SGN B   5      40.996  25.302  21.2980  0.00  0.00     0.000 OA
ATOM     95   O  SGN B   5      42.886  23.886  21.4410  0.00  0.00     0.000 OA
ENDBRANCH 83 92
BRANCH 86 96
ATOM     96   C  SGN B   5      40.057  24.787  28.0850  0.00  0.00     0.000 C
ATOM     97   O  SGN B   5      39.206  25.899  27.7960  0.00  0.00     0.000 O
ATOM     98   S  SGN B   5      37.657  25.719  28.1700  0.00  0.00     0.000 S
ATOM     99   O  SGN B   5      37.123  27.043  27.9580  0.00  0.00     0.000 OA
ATOM    100   O  SGN B   5      37.125  24.721  27.3140  0.00  0.00     0.000 OA
ATOM    101   O  SGN B   5      37.667  25.326  29.5420  0.00  0.00     0.000 OA
ENDBRANCH 86 96
BRANCH 82 102
ATOM    102  O4  IDS B   6      41.441  22.234  25.1440  0.00  0.00     0.000 O
BRANCH 102 106
ATOM    103  C1  IDS B   6      41.939  18.628  25.0500  0.00  0.00     0.000 C
ATOM    104  C2  IDS B   6      41.068  19.329  23.9960  0.00  0.00     0.000 C
ATOM    105  C3  IDS B   6      40.061  20.318  24.5490  0.00  0.00     0.000 C
ATOM    106  C4  IDS B   6      40.625  21.160  25.6790  0.00  0.00     0.000 C
ATOM    107  C5  IDS B   6      41.441  20.276  26.6260  0.00  0.00     0.000 C
ATOM    108  O5  IDS B   6      42.486  19.583  25.9400  0.00  0.00     0.000 O
ATOM    109   O  IDS B   6      38.922  19.592  24.9820  0.00  0.00     0.000 O
ATOM    111  HD  IDS B   6      39.225  18.794  25.1240  0.00  0.00     0.000 HD
BRANCH 104 111
ATOM    111   O  IDS B   6      41.935  20.114  23.1040  0.00  0.00     0.000 O
ATOM    112   S  IDS B   6      42.041  19.666  21.5710  0.00  0.00     0.000 S
ATOM    113   O  IDS B   6      42.527  18.296  21.6220  0.00  0.00     0.000 OA
ATOM    114   O  IDS B   6      40.722  19.825  20.9480  0.00  0.00     0.000 OA
ATOM    115   O  IDS B   6      43.027  20.623  21.1150  0.00  0.00     0.000 OA
ENDBRANCH 104 111
BRANCH 107 116
ATOM    116   C  IDS B   6      42.033  21.136  27.7350  0.00  0.00     0.000 C
ATOM    117   O  IDS B   6      43.198  21.428  27.6320  0.00  0.00     0.000 OA
ATOM    118   O  IDS B   6      41.358  21.501  28.6840  0.00  0.00     0.000 OA
ENDBRANCH 107 116
BRANCH 103 119
ATOM    119  O4  SGN B   7      41.152  17.616  25.4960  0.00  0.00     0.000 O
BRANCH 119 123
ATOM    120  C1  SGN B   7      41.729  13.782  27.0650  0.00  0.00     0.000 C
ATOM    121  C2  SGN B   7      42.029  14.981  27.9840  0.00  0.00     0.000 C
ATOM    122  C3  SGN B   7      41.397  16.261  27.4210  0.00  0.00     0.000 C
ATOM    123  C4  SGN B   7      41.841  16.463  25.9820  0.00  0.00     0.000 C
ATOM    124  C5  SGN B   7      41.504  15.214  25.1510  0.00  0.00     0.000 C
ATOM    125  O5  SGN B   7      42.120  14.034  25.7160  0.00  0.00     0.000 O
ATOM    126   O  SGN B   7      41.778  17.369  28.2450  0.00  0.00     0.000 O
ATOM    128  HD  SGN B   7      41.754  16.511  28.1320  0.00  0.00     0.000 HD
BRANCH 121 130
ATOM    128   N  SGN B   7      42.601  14.012  28.9210  0.00  0.00     0.000 N
ATOM    130  HD  SGN B   7      43.247  14.559  29.1040  0.00  0.00     0.000 HD
ATOM    130   S  SGN B   7      42.524  14.211  30.5170  0.00  0.00     0.000 S
ATOM    131   O  SGN B   7      41.156  14.489  30.7920  0.00  0.00     0.000 OA
ATOM    132   O  SGN B   7      43.172  13.111  31.1360  0.00  0.00     0.000 OA
ATOM    133   O  SGN B   7      43.518  15.408  30.6990  0.00  0.00     0.000 OA
ENDBRANCH 121 130
BRANCH 124 134
ATOM    134   C  SGN B   7      42.008  15.270  23.7390  0.00  0.00     0.000 C
ATOM    135   O  SGN B   7      41.920  13.953  23.1690  0.00  0.00     0.000 O
ATOM    136   S  SGN B   7      42.258  13.828  21.6400  0.00  0.00     0.000 S
ATOM    137   O  SGN B   7      42.204  12.420  21.3260  0.00  0.00     0.000 OA
ATOM    138   O  SGN B   7      43.582  14.388  21.4980  0.00  0.00     0.000 OA
ATOM    139   O  SGN B   7      41.202  14.613  21.0210  0.00  0.00     0.000 OA
ENDBRANCH 124 134
BRANCH 120 140
ATOM    140  O4  IDS B   8      40.549  13.197  26.8340  0.00  0.00     0.000 O
BRANCH 140 144
ATOM    141  C1  IDS B   8      37.079  12.407  26.2840  0.00  0.00     0.000 C
ATOM    142  C2  IDS B   8      37.521  13.257  27.5090  0.00  0.00     0.000 C
ATOM    143  C3  IDS B   8      38.697  12.633  28.2840  0.00  0.00     0.000 C
ATOM    144  C4  IDS B   8      39.782  12.101  27.3490  0.00  0.00     0.000 C
ATOM    145  C5  IDS B   8      39.146  11.313  26.1940  0.00  0.00     0.000 C
ATOM    146  O5  IDS B   8      38.206  12.105  25.4700  0.00  0.00     0.000 O
BRANCH 142 147
ATOM    147   O  IDS B   8      37.962  14.600  27.0480  0.00  0.00     0.000 O
ATOM    148   S  IDS B   8      37.178  15.942  27.5110  0.00  0.00     0.000 S
ATOM    149   O  IDS B   8      35.892  15.539  28.0340  0.00  0.00     0.000 OA
ATOM    150   O  IDS B   8      38.024  16.558  28.5160  0.00  0.00     0.000 OA
ATOM    151   O  IDS B   8      37.047  16.742  26.3080  0.00  0.00     0.000 OA
ENDBRANCH 142 147
BRANCH 145 152
ATOM    152   C  IDS B   8      40.166  10.844  25.1770  0.00  0.00     0.000 C
ATOM    153   O  IDS B   8      40.082  11.226  24.0150  0.00  0.00     0.000 OA
ATOM    154   O  IDS B   8      41.071  10.108  25.5280  0.00  0.00     0.000 OA
ENDBRANCH 145 152
ENDBRANCH 140 144
ENDBRANCH 120 140
ENDBRANCH 119 123
ENDBRANCH 103 119
ENDBRANCH 102 106
ENDBRANCH 82 102
ENDBRANCH 81 85
ENDBRANCH 65 81
ENDBRANCH 64 68
ENDBRANCH 41 64
ENDBRANCH 40 44
ENDBRANCH 24 40
ENDBRANCH 23 27
ENDBRANCH 1 23
TORSDOF 31
ENDMDL
MODEL 50
REMARK VINA RESULT:      -2.0     13.083     28.165
ROOT
ATOM      1  C1  SGN B   1      11.587  32.794  51.9770  0.00  0.00     0.000 C
ATOM      2  C2  SGN B   1      12.250  33.832  52.8970  0.00  0.00     0.000 C
ATOM      3  C3  SGN B   1      13.025  33.142  54.0250  0.00  0.00     0.000 C
ATOM      4  C4  SGN B   1      12.106  32.200  54.7960  0.00  0.00     0.000 C
ATOM      5  C5  SGN B   1      11.376  31.295  53.8070  0.00  0.00     0.000 C
ATOM      6  O5  SGN B   1      10.688  32.102  52.8320  0.00  0.00     0.000 O
ATOM      7   O  SGN B   1      13.600  34.105  54.9000  0.00  0.00     0.000 O
ATOM      9  HD  SGN B   1      12.755  34.277  54.9800  0.00  0.00     0.000 HD
ATOM      9   O  SGN B   1      12.876  31.422  55.6940  0.00  0.00     0.000 O
ATOM     11  HD  SGN B   1      12.031  31.594  55.7740  0.00  0.00     0.000 HD
ENDROOT
BRANCH 2 13
ATOM     11   N  SGN B   1      11.856  35.115  52.2840  0.00  0.00     0.000 N
ATOM     13  HD  SGN B   1      12.224  34.493  51.8060  0.00  0.00     0.000 HD
ATOM     13   S  SGN B   1      12.611  35.721  50.9990  0.00  0.00     0.000 S
ATOM     14   O  SGN B   1      13.617  34.833  50.5630  0.00  0.00     0.000 OA
ATOM     15   O  SGN B   1      11.629  36.175  50.0720  0.00  0.00     0.000 OA
ATOM     16   O  SGN B   1      13.224  36.985  51.6760  0.00  0.00     0.000 OA
ENDBRANCH 2 13
BRANCH 5 17
ATOM     17   C  SGN B   1      10.352  30.388  54.4440  0.00  0.00     0.000 C
ATOM     18   O  SGN B   1       9.185  30.261  53.6070  0.00  0.00     0.000 O
ATOM     19   S  SGN B   1       7.774  30.386  54.3480  0.00  0.00     0.000 S
ATOM     20   O  SGN B   1       6.794  29.994  53.3570  0.00  0.00     0.000 OA
ATOM     21   O  SGN B   1       7.875  29.466  55.4570  0.00  0.00     0.000 OA
ATOM     22   O  SGN B   1       7.676  31.774  54.7420  0.00  0.00     0.000 OA
ENDBRANCH 5 17
BRANCH 1 23
ATOM     23  O4  IDS B   2      11.844  32.067  50.8530  0.00  0.00     0.000 O
BRANCH 23 27
ATOM     24  C1  IDS B   2      11.886  30.484  47.0160  0.00  0.00     0.000 C
ATOM     25  C2  IDS B   2      11.207  31.864  47.1610  0.00  0.00     0.000 C
ATOM     26  C3  IDS B   2      11.507  32.479  48.5250  0.00  0.00     0.000 C
ATOM     27  C4  IDS B   2      11.141  31.573  49.6930  0.00  0.00     0.000 C
ATOM     28  C5  IDS B   2      11.449  30.105  49.3380  0.00  0.00     0.000 C
ATOM     29  O5  IDS B   2      12.390  30.026  48.2780  0.00  0.00     0.000 O
ATOM     30   O  IDS B   2      10.766  33.685  48.6680  0.00  0.00     0.000 O
ATOM     32  HD  IDS B   2       9.936  33.553  48.8770  0.00  0.00     0.000 HD
BRANCH 25 32
ATOM     32   O  IDS B   2      11.662  32.825  46.1260  0.00  0.00     0.000 O
ATOM     33   S  IDS B   2      10.619  33.487  45.0330  0.00  0.00     0.000 S
ATOM     34   O  IDS B   2      11.442  34.184  44.0580  0.00  0.00     0.000 OA
ATOM     35   O  IDS B   2       9.836  32.430  44.4080  0.00  0.00     0.000 OA
ATOM     36   O  IDS B   2       9.799  34.408  45.7840  0.00  0.00     0.000 OA
ENDBRANCH 25 32
BRANCH 28 37
ATOM     37   C  IDS B   2      11.918  29.172  50.4730  0.00  0.00     0.000 C
ATOM     38   O  IDS B   2      11.017  28.834  51.2040  0.00  0.00     0.000 OA
ATOM     39   O  IDS B   2      13.075  28.714  50.6460  0.00  0.00     0.000 OA
ENDBRANCH 28 37
BRANCH 24 40
ATOM     40  O4  SUS B   3      11.684  29.749  45.9030  0.00  0.00     0.000 O
BRANCH 40 44
ATOM     41  C1  SUS B   3      14.256  27.143  43.8670  0.00  0.00     0.000 C
ATOM     42  C2  SUS B   3      13.782  26.713  45.2700  0.00  0.00     0.000 C
ATOM     43  C3  SUS B   3      12.526  27.499  45.6390  0.00  0.00     0.000 C
ATOM     44  C4  SUS B   3      12.822  28.985  45.5160  0.00  0.00     0.000 C
ATOM     45  C5  SUS B   3      13.185  29.295  44.0780  0.00  0.00     0.000 C
ATOM     46  O5  SUS B   3      14.384  28.565  43.7490  0.00  0.00     0.000 O
BRANCH 42 49
ATOM     47   N  SUS B   3      15.023  25.943  45.4650  0.00  0.00     0.000 N
ATOM     49  HD  SUS B   3      15.510  25.808  44.7610  0.00  0.00     0.000 HD
ATOM     49   S  SUS B   3      14.768  24.528  46.1710  0.00  0.00     0.000 S
ATOM     50   O  SUS B   3      13.854  23.770  45.4110  0.00  0.00     0.000 OA
ATOM     51   O  SUS B   3      16.208  23.980  46.0010  0.00  0.00     0.000 OA
ATOM     52   O  SUS B   3      14.471  24.734  47.5330  0.00  0.00     0.000 OA
ENDBRANCH 42 49
BRANCH 43 53
ATOM     53   O  SUS B   3      12.179  27.170  47.0350  0.00  0.00     0.000 O
ATOM     54   S  SUS B   3      10.775  26.353  47.2870  0.00  0.00     0.000 S
ATOM     55   O  SUS B   3      10.970  24.993  46.8020  0.00  0.00     0.000 OA
ATOM     56   O  SUS B   3      10.569  26.439  48.7210  0.00  0.00     0.000 OA
ATOM     57   O  SUS B   3       9.745  27.050  46.5120  0.00  0.00     0.000 OA
ENDBRANCH 43 53
BRANCH 45 58
ATOM     58   C  SUS B   3      13.396  30.776  43.8530  0.00  0.00     0.000 C
ATOM     59   S  SUS B   3      15.167  32.626  44.0230  0.00  0.00     0.000 S
ATOM     60   O  SUS B   3      14.790  31.087  44.0090  0.00  0.00     0.000 O
ATOM     61   O  SUS B   3      14.813  33.091  45.3510  0.00  0.00     0.000 OA
ATOM     62   O  SUS B   3      16.589  32.555  43.8190  0.00  0.00     0.000 OA
ATOM     63   O  SUS B   3      14.428  33.207  42.9590  0.00  0.00     0.000 OA
ENDBRANCH 45 58
BRANCH 41 64
ATOM     64  O4  IDS B   4      13.557  26.555  42.8420  0.00  0.00     0.000 O
BRANCH 64 68
ATOM     65  C1  IDS B   4      12.825  24.518  39.9110  0.00  0.00     0.000 C
ATOM     66  C2  IDS B   4      13.318  23.859  41.2060  0.00  0.00     0.000 C
ATOM     67  C3  IDS B   4      14.511  24.548  41.8460  0.00  0.00     0.000 C
ATOM     68  C4  IDS B   4      14.417  26.062  41.7910  0.00  0.00     0.000 C
ATOM     69  C5  IDS B   4      13.954  26.461  40.3840  0.00  0.00     0.000 C
ATOM     70  O5  IDS B   4      12.659  25.905  40.1400  0.00  0.00     0.000 O
ATOM     71   O  IDS B   4      15.665  24.116  41.1550  0.00  0.00     0.000 O
ATOM     73  HD  IDS B   4      14.837  24.078  41.4060  0.00  0.00     0.000 HD
BRANCH 66 73
ATOM     73   O  IDS B   4      12.245  23.924  42.2080  0.00  0.00     0.000 O
ATOM     74   S  IDS B   4      11.508  22.544  42.6200  0.00  0.00     0.000 S
ATOM     75   O  IDS B   4      10.994  21.972  41.3930  0.00  0.00     0.000 OA
ATOM     76   O  IDS B   4      10.486  23.012  43.5220  0.00  0.00     0.000 OA
ATOM     77   O  IDS B   4      12.527  21.734  43.2440  0.00  0.00     0.000 OA
ENDBRANCH 66 73
BRANCH 69 78
ATOM     78   C  IDS B   4      14.020  27.955  40.1000  0.00  0.00     0.000 C
ATOM     79   O  IDS B   4      14.902  28.375  39.3520  0.00  0.00     0.000 OA
ATOM     80   O  IDS B   4      13.119  28.688  40.5470  0.00  0.00     0.000 OA
ENDBRANCH 69 78
BRANCH 65 81
ATOM     81  O4  SGN B   5      13.641  24.159  38.8810  0.00  0.00     0.000 O
BRANCH 81 85
ATOM     82  C1  SGN B   5      13.918  24.320  34.6940  0.00  0.00     0.000 C
ATOM     83  C2  SGN B   5      14.711  25.369  35.4870  0.00  0.00     0.000 C
ATOM     84  C3  SGN B   5      14.879  24.898  36.9380  0.00  0.00     0.000 C
ATOM     85  C4  SGN B   5      13.511  24.610  37.5310  0.00  0.00     0.000 C
ATOM     86  C5  SGN B   5      12.833  23.542  36.6770  0.00  0.00     0.000 C
ATOM     87  O5  SGN B   5      12.687  24.047  35.3360  0.00  0.00     0.000 O
ATOM     88   O  SGN B   5      15.557  25.883  37.6870  0.00  0.00     0.000 O
ATOM     90  HD  SGN B   5      15.911  25.157  37.3740  0.00  0.00     0.000 HD
BRANCH 83 92
ATOM     90   N  SGN B   5      14.786  26.018  34.1630  0.00  0.00     0.000 N
ATOM     92  HD  SGN B   5      14.026  26.371  33.9460  0.00  0.00     0.000 HD
ATOM     92   S  SGN B   5      16.066  26.918  33.8380  0.00  0.00     0.000 S
ATOM     93   O  SGN B   5      15.835  27.397  32.5090  0.00  0.00     0.000 OA
ATOM     94   O  SGN B   5      16.176  27.837  34.9190  0.00  0.00     0.000 OA
ATOM     95   O  SGN B   5      17.239  25.967  33.9340  0.00  0.00     0.000 OA
ENDBRANCH 83 92
BRANCH 86 96
ATOM     96   C  SGN B   5      11.454  23.142  37.1610  0.00  0.00     0.000 C
ATOM     97   O  SGN B   5      11.098  21.854  36.6550  0.00  0.00     0.000 O
ATOM     98   S  SGN B   5      10.578  20.789  37.7350  0.00  0.00     0.000 S
ATOM     99   O  SGN B   5      10.118  19.698  36.9110  0.00  0.00     0.000 OA
ATOM    100   O  SGN B   5      11.672  20.472  38.5820  0.00  0.00     0.000 OA
ATOM    101   O  SGN B   5       9.524  21.465  38.4200  0.00  0.00     0.000 OA
ENDBRANCH 86 96
BRANCH 82 102
ATOM    102  O4  IDS B   6      14.619  23.167  34.5030  0.00  0.00     0.000 O
BRANCH 102 106
ATOM    103  C1  IDS B   6      15.194  20.660  31.9250  0.00  0.00     0.000 C
ATOM    104  C2  IDS B   6      14.520  21.998  31.5840  0.00  0.00     0.000 C
ATOM    105  C3  IDS B   6      13.408  22.417  32.5270  0.00  0.00     0.000 C
ATOM    106  C4  IDS B   6      13.739  22.138  33.9830  0.00  0.00     0.000 C
ATOM    107  C5  IDS B   6      14.382  20.754  34.1110  0.00  0.00     0.000 C
ATOM    108  O5  IDS B   6      15.548  20.631  33.2950  0.00  0.00     0.000 O
ATOM    109   O  IDS B   6      12.223  21.741  32.1410  0.00  0.00     0.000 O
ATOM    111  HD  IDS B   6      12.510  21.047  31.7090  0.00  0.00     0.000 HD
BRANCH 104 111
ATOM    111   O  IDS B   6      15.521  23.073  31.6610  0.00  0.00     0.000 O
ATOM    112   S  IDS B   6      15.647  24.075  30.4190  0.00  0.00     0.000 S
ATOM    113   O  IDS B   6      15.955  23.217  29.2860  0.00  0.00     0.000 OA
ATOM    114   O  IDS B   6      14.391  24.824  30.2980  0.00  0.00     0.000 OA
ATOM    115   O  IDS B   6      16.766  24.871  30.8740  0.00  0.00     0.000 OA
ENDBRANCH 104 111
BRANCH 107 116
ATOM    116   C  IDS B   6      14.742  20.499  35.5690  0.00  0.00     0.000 C
ATOM    117   O  IDS B   6      15.894  20.668  35.8800  0.00  0.00     0.000 OA
ATOM    118   O  IDS B   6      13.903  20.133  36.3760  0.00  0.00     0.000 OA
ENDBRANCH 107 116
BRANCH 103 119
ATOM    119  O4  SGN B   7      14.357  19.733  31.3930  0.00  0.00     0.000 O
BRANCH 119 123
ATOM    120  C1  SGN B   7      14.670  15.786  30.0460  0.00  0.00     0.000 C
ATOM    121  C2  SGN B   7      14.537  16.014  31.5640  0.00  0.00     0.000 C
ATOM    122  C3  SGN B   7      14.035  17.434  31.8530  0.00  0.00     0.000 C
ATOM    123  C4  SGN B   7      14.928  18.446  31.1550  0.00  0.00     0.000 C
ATOM    124  C5  SGN B   7      15.000  18.130  29.6520  0.00  0.00     0.000 C
ATOM    125  O5  SGN B   7      15.478  16.785  29.4260  0.00  0.00     0.000 O
ATOM    126   O  SGN B   7      14.018  17.643  33.2700  0.00  0.00     0.000 O
ATOM    128  HD  SGN B   7      14.104  17.090  32.6080  0.00  0.00     0.000 HD
BRANCH 121 130
ATOM    128   N  SGN B   7      14.970  14.644  31.8540  0.00  0.00     0.000 N
ATOM    130  HD  SGN B   7      15.262  14.894  32.6300  0.00  0.00     0.000 HD
ATOM    130   S  SGN B   7      14.193  13.702  32.9030  0.00  0.00     0.000 S
ATOM    131   O  SGN B   7      12.824  13.767  32.5190  0.00  0.00     0.000 OA
ATOM    132   O  SGN B   7      14.863  12.453  32.9620  0.00  0.00     0.000 OA
ATOM    133   O  SGN B   7      14.564  14.413  34.2490  0.00  0.00     0.000 OA
ENDBRANCH 121 130
BRANCH 124 134
ATOM    134   C  SGN B   7      15.952  19.007  28.8920  0.00  0.00     0.000 C
ATOM    135   O  SGN B   7      17.287  18.742  29.3550  0.00  0.00     0.000 O
ATOM    136   S  SGN B   7      18.452  19.452  28.5750  0.00  0.00     0.000 S
ATOM    137   O  SGN B   7      19.670  19.123  29.2770  0.00  0.00     0.000 OA
ATOM    138   O  SGN B   7      18.136  20.861  28.6230  0.00  0.00     0.000 OA
ATOM    139   O  SGN B   7      18.351  18.856  27.2520  0.00  0.00     0.000 OA
ENDBRANCH 124 134
BRANCH 120 140
ATOM    140  O4  IDS B   8      13.692  15.715  29.1360  0.00  0.00     0.000 O
BRANCH 140 144
ATOM    141  C1  IDS B   8      10.549  15.539  27.3900  0.00  0.00     0.000 C
ATOM    142  C2  IDS B   8      10.855  14.588  28.5830  0.00  0.00     0.000 C
ATOM    143  C3  IDS B   8      12.231  13.906  28.4710  0.00  0.00     0.000 C
ATOM    144  C4  IDS B   8      13.321  14.881  28.0310  0.00  0.00     0.000 C
ATOM    145  C5  IDS B   8      12.819  15.745  26.8640  0.00  0.00     0.000 C
ATOM    146  O5  IDS B   8      11.626  16.448  27.2030  0.00  0.00     0.000 O
BRANCH 142 147
ATOM    147   O  IDS B   8      10.851  15.366  29.8500  0.00  0.00     0.000 O
ATOM    148   S  IDS B   8       9.510  15.484  30.7540  0.00  0.00     0.000 S
ATOM    149   O  IDS B   8       8.390  15.085  29.9310  0.00  0.00     0.000 OA
ATOM    150   O  IDS B   8       9.723  14.596  31.8810  0.00  0.00     0.000 OA
ATOM    151   O  IDS B   8       9.429  16.881  31.1370  0.00  0.00     0.000 OA
ENDBRANCH 142 147
BRANCH 145 152
ATOM    152   C  IDS B   8      13.822  16.801  26.4460  0.00  0.00     0.000 C
ATOM    153   O  IDS B   8      14.971  16.471  26.1790  0.00  0.00     0.000 OA
ATOM    154   O  IDS B   8      13.470  17.964  26.3610  0.00  0.00     0.000 OA
ENDBRANCH 145 152
ENDBRANCH 140 144
ENDBRANCH 120 140
ENDBRANCH 119 123
ENDBRANCH 103 119
ENDBRANCH 102 106
ENDBRANCH 82 102
ENDBRANCH 81 85
ENDBRANCH 65 81
ENDBRANCH 64 68
ENDBRANCH 41 64
ENDBRANCH 40 44
ENDBRANCH 24 40
ENDBRANCH 23 27
ENDBRANCH 1 23
TORSDOF 31
ENDMDL
MODEL 51
REMARK VINA RESULT:      -1.7     25.268     30.862
ROOT
ATOM      1  C1  SGN B   1      52.062  39.459  29.9910  0.00  0.00     0.000 C
ATOM      2  C2  SGN B   1      52.127  40.827  30.6890  0.00  0.00     0.000 C
ATOM      3  C3  SGN B   1      50.920  41.690  30.3040  0.00  0.00     0.000 C
ATOM      4  C4  SGN B   1      50.832  41.826  28.7880  0.00  0.00     0.000 C
ATOM      5  C5  SGN B   1      50.915  40.438  28.1570  0.00  0.00     0.000 C
ATOM      6  O5  SGN B   1      52.112  39.776  28.6070  0.00  0.00     0.000 O
ATOM      7   O  SGN B   1      51.006  42.972  30.9160  0.00  0.00     0.000 O
ATOM      9  HD  SGN B   1      51.721  42.962  30.4270  0.00  0.00     0.000 HD
ATOM      9   O  SGN B   1      49.607  42.448  28.4420  0.00  0.00     0.000 O
ATOM     11  HD  SGN B   1      50.322  42.438  27.9520  0.00  0.00     0.000 HD
ENDROOT
BRANCH 2 13
ATOM     11   N  SGN B   1      53.370  40.735  31.4770  0.00  0.00     0.000 N
ATOM     13  HD  SGN B   1      52.765  40.119  31.5370  0.00  0.00     0.000 HD
ATOM     13   S  SGN B   1      53.436  39.972  32.8920  0.00  0.00     0.000 S
ATOM     14   O  SGN B   1      52.183  39.400  33.1940  0.00  0.00     0.000 OA
ATOM     15   O  SGN B   1      54.602  39.154  32.9090  0.00  0.00     0.000 OA
ATOM     16   O  SGN B   1      53.728  41.208  33.7980  0.00  0.00     0.000 OA
ENDBRANCH 2 13
BRANCH 5 17
ATOM     17   C  SGN B   1      50.948  40.451  26.6480  0.00  0.00     0.000 C
ATOM     18   O  SGN B   1      49.680  40.874  26.1090  0.00  0.00     0.000 O
ATOM     19   S  SGN B   1      49.110  40.006  24.8930  0.00  0.00     0.000 S
ATOM     20   O  SGN B   1      47.980  40.759  24.3920  0.00  0.00     0.000 OA
ATOM     21   O  SGN B   1      50.214  39.934  23.9640  0.00  0.00     0.000 OA
ATOM     22   O  SGN B   1      48.747  38.733  25.4750  0.00  0.00     0.000 OA
ENDBRANCH 5 17
BRANCH 1 23
ATOM     23  O4  IDS B   2      51.570  38.201  30.1830  0.00  0.00     0.000 O
BRANCH 23 27
ATOM     24  C1  IDS B   2      50.836  34.133  30.5590  0.00  0.00     0.000 C
ATOM     25  C2  IDS B   2      51.857  34.722  31.5580  0.00  0.00     0.000 C
ATOM     26  C3  IDS B   2      51.828  36.248  31.5320  0.00  0.00     0.000 C
ATOM     27  C4  IDS B   2      52.034  36.835  30.1420  0.00  0.00     0.000 C
ATOM     28  C5  IDS B   2      51.332  35.955  29.0880  0.00  0.00     0.000 C
ATOM     29  O5  IDS B   2      50.327  35.151  29.6870  0.00  0.00     0.000 O
ATOM     30   O  IDS B   2      52.864  36.750  32.3680  0.00  0.00     0.000 O
ATOM     32  HD  IDS B   2      53.645  36.729  31.9950  0.00  0.00     0.000 HD
BRANCH 25 32
ATOM     32   O  IDS B   2      51.590  34.292  32.9530  0.00  0.00     0.000 O
ATOM     33   S  IDS B   2      52.685  33.412  33.8180  0.00  0.00     0.000 S
ATOM     34   O  IDS B   2      51.999  32.991  35.0300  0.00  0.00     0.000 OA
ATOM     35   O  IDS B   2      53.119  32.268  33.0290  0.00  0.00     0.000 OA
ATOM     36   O  IDS B   2      53.768  34.320  34.1150  0.00  0.00     0.000 OA
ENDBRANCH 25 32
BRANCH 28 37
ATOM     37   C  IDS B   2      50.724  36.653  27.8550  0.00  0.00     0.000 C
ATOM     38   O  IDS B   2      49.549  36.902  27.9910  0.00  0.00     0.000 OA
ATOM     39   O  IDS B   2      51.330  37.017  26.8180  0.00  0.00     0.000 OA
ENDBRANCH 28 37
BRANCH 24 40
ATOM     40  O4  SUS B   3      50.759  32.797  30.3860  0.00  0.00     0.000 O
BRANCH 40 44
ATOM     41  C1  SUS B   3      47.449  30.348  29.6170  0.00  0.00     0.000 C
ATOM     42  C2  SUS B   3      47.887  31.313  28.4970  0.00  0.00     0.000 C
ATOM     43  C3  SUS B   3      49.330  31.748  28.7440  0.00  0.00     0.000 C
ATOM     44  C4  SUS B   3      49.435  32.335  30.1430  0.00  0.00     0.000 C
ATOM     45  C5  SUS B   3      49.068  31.266  31.1520  0.00  0.00     0.000 C
ATOM     46  O5  SUS B   3      47.698  30.881  30.9220  0.00  0.00     0.000 O
BRANCH 42 49
ATOM     47   N  SUS B   3      46.504  31.403  27.9990  0.00  0.00     0.000 N
ATOM     49  HD  SUS B   3      45.939  30.829  28.3180  0.00  0.00     0.000 HD
ATOM     49   S  SUS B   3      46.419  31.347  26.4000  0.00  0.00     0.000 S
ATOM     50   O  SUS B   3      47.016  30.160  25.9290  0.00  0.00     0.000 OA
ATOM     51   O  SUS B   3      44.874  31.256  26.3050  0.00  0.00     0.000 OA
ATOM     52   O  SUS B   3      46.879  32.567  25.8650  0.00  0.00     0.000 OA
ENDBRANCH 42 49
BRANCH 43 53
ATOM     53   O  SUS B   3      49.673  32.774  27.7410  0.00  0.00     0.000 O
ATOM     54   S  SUS B   3      50.810  32.379  26.6220  0.00  0.00     0.000 S
ATOM     55   O  SUS B   3      50.213  31.406  25.7180  0.00  0.00     0.000 OA
ATOM     56   O  SUS B   3      51.136  33.644  25.9890  0.00  0.00     0.000 OA
ATOM     57   O  SUS B   3      51.934  31.796  27.3610  0.00  0.00     0.000 OA
ENDBRANCH 43 53
BRANCH 45 58
ATOM     58   C  SUS B   3      49.245  31.747  32.5760  0.00  0.00     0.000 C
ATOM     59   S  SUS B   3      48.044  33.010  34.4590  0.00  0.00     0.000 S
ATOM     60   O  SUS B   3      47.996  32.265  33.0620  0.00  0.00     0.000 O
ATOM     61   O  SUS B   3      48.590  34.323  34.1700  0.00  0.00     0.000 OA
ATOM     62   O  SUS B   3      46.645  33.050  34.7890  0.00  0.00     0.000 OA
ATOM     63   O  SUS B   3      48.844  32.191  35.2990  0.00  0.00     0.000 OA
ENDBRANCH 45 58
BRANCH 41 64
ATOM     64  O4  IDS B   4      47.892  29.060  29.4420  0.00  0.00     0.000 O
BRANCH 64 68
ATOM     65  C1  IDS B   4      47.786  25.494  28.7040  0.00  0.00     0.000 C
ATOM     66  C2  IDS B   4      47.218  26.507  27.7020  0.00  0.00     0.000 C
ATOM     67  C3  IDS B   4      46.327  27.570  28.3210  0.00  0.00     0.000 C
ATOM     68  C4  IDS B   4      46.852  28.079  29.6500  0.00  0.00     0.000 C
ATOM     69  C5  IDS B   4      47.308  26.871  30.4790  0.00  0.00     0.000 C
ATOM     70  O5  IDS B   4      48.364  26.199  29.7880  0.00  0.00     0.000 O
ATOM     71   O  IDS B   4      45.050  26.993  28.5020  0.00  0.00     0.000 O
ATOM     73  HD  IDS B   4      45.847  27.053  28.1690  0.00  0.00     0.000 HD
BRANCH 66 73
ATOM     73   O  IDS B   4      48.334  27.241  27.0890  0.00  0.00     0.000 O
ATOM     74   S  IDS B   4      48.781  26.826  25.5900  0.00  0.00     0.000 S
ATOM     75   O  IDS B   4      49.093  25.414  25.6320  0.00  0.00     0.000 OA
ATOM     76   O  IDS B   4      49.926  27.675  25.3780  0.00  0.00     0.000 OA
ATOM     77   O  IDS B   4      47.648  27.137  24.7500  0.00  0.00     0.000 OA
ENDBRANCH 66 73
BRANCH 69 78
ATOM     78   C  IDS B   4      47.658  27.195  31.9250  0.00  0.00     0.000 C
ATOM     79   O  IDS B   4      47.085  28.134  32.4750  0.00  0.00     0.000 OA
ATOM     80   O  IDS B   4      48.431  26.434  32.5350  0.00  0.00     0.000 OA
ENDBRANCH 69 78
BRANCH 65 81
ATOM     81  O4  SGN B   5      46.829  24.575  29.0110  0.00  0.00     0.000 O
BRANCH 81 85
ATOM     82  C1  SGN B   5      46.214  20.521  29.9200  0.00  0.00     0.000 C
ATOM     83  C2  SGN B   5      46.700  21.426  31.0620  0.00  0.00     0.000 C
ATOM     84  C3  SGN B   5      46.427  22.894  30.7050  0.00  0.00     0.000 C
ATOM     85  C4  SGN B   5      47.078  23.214  29.3710  0.00  0.00     0.000 C
ATOM     86  C5  SGN B   5      46.501  22.271  28.3180  0.00  0.00     0.000 C
ATOM     87  O5  SGN B   5      46.805  20.915  28.6960  0.00  0.00     0.000 O
ATOM     88   O  SGN B   5      46.922  23.735  31.7240  0.00  0.00     0.000 O
ATOM     90  HD  SGN B   5      46.091  23.517  31.6120  0.00  0.00     0.000 HD
BRANCH 83 92
ATOM     90   N  SGN B   5      47.170  20.193  31.7220  0.00  0.00     0.000 N
ATOM     92  HD  SGN B   5      47.968  19.983  31.4560  0.00  0.00     0.000 HD
ATOM     92   S  SGN B   5      46.917  20.037  33.2920  0.00  0.00     0.000 S
ATOM     93   O  SGN B   5      47.485  18.763  33.6180  0.00  0.00     0.000 OA
ATOM     94   O  SGN B   5      47.434  21.221  33.8860  0.00  0.00     0.000 OA
ATOM     95   O  SGN B   5      45.412  20.075  33.4440  0.00  0.00     0.000 OA
ENDBRANCH 83 92
BRANCH 86 96
ATOM     96   C  SGN B   5      47.055  22.485  26.9240  0.00  0.00     0.000 C
ATOM     97   O  SGN B   5      48.456  22.203  26.8910  0.00  0.00     0.000 O
ATOM     98   S  SGN B   5      48.948  21.203  25.7380  0.00  0.00     0.000 S
ATOM     99   O  SGN B   5      50.386  21.285  25.8390  0.00  0.00     0.000 OA
ATOM    100   O  SGN B   5      48.406  19.924  26.0230  0.00  0.00     0.000 OA
ATOM    101   O  SGN B   5      48.433  21.770  24.5340  0.00  0.00     0.000 OA
ENDBRANCH 86 96
BRANCH 82 102
ATOM    102  O4  IDS B   6      44.856  20.502  29.8070  0.00  0.00     0.000 O
BRANCH 102 106
ATOM    103  C1  IDS B   6      41.511  19.064  29.8050  0.00  0.00     0.000 C
ATOM    104  C2  IDS B   6      42.437  18.898  31.0200  0.00  0.00     0.000 C
ATOM    105  C3  IDS B   6      43.854  18.467  30.6940  0.00  0.00     0.000 C
ATOM    106  C4  IDS B   6      44.411  19.165  29.4650  0.00  0.00     0.000 C
ATOM    107  C5  IDS B   6      43.343  19.210  28.3680  0.00  0.00     0.000 C
ATOM    108  O5  IDS B   6      42.146  19.849  28.8150  0.00  0.00     0.000 O
ATOM    109   O  IDS B   6      43.859  17.060  30.5200  0.00  0.00     0.000 O
ATOM    111  HD  IDS B   6      43.037  16.872  30.3180  0.00  0.00     0.000 HD
BRANCH 104 111
ATOM    111   O  IDS B   6      42.572  20.194  31.7010  0.00  0.00     0.000 O
ATOM    112   S  IDS B   6      41.780  20.409  33.0760  0.00  0.00     0.000 S
ATOM    113   O  IDS B   6      40.383  20.195  32.7310  0.00  0.00     0.000 OA
ATOM    114   O  IDS B   6      42.316  19.474  34.0710  0.00  0.00     0.000 OA
ATOM    115   O  IDS B   6      42.117  21.794  33.3260  0.00  0.00     0.000 OA
ENDBRANCH 104 111
BRANCH 107 116
ATOM    116   C  IDS B   6      43.899  19.943  27.1540  0.00  0.00     0.000 C
ATOM    117   O  IDS B   6      44.801  19.406  26.5620  0.00  0.00     0.000 OA
ATOM    118   O  IDS B   6      43.455  21.026  26.8080  0.00  0.00     0.000 OA
ENDBRANCH 107 116
BRANCH 103 119
ATOM    119  O4  SGN B   7      41.094  17.799  29.5430  0.00  0.00     0.000 O
BRANCH 119 123
ATOM    120  C1  SGN B   7      37.665  15.994  27.9710  0.00  0.00     0.000 C
ATOM    121  C2  SGN B   7      38.610  16.707  26.9870  0.00  0.00     0.000 C
ATOM    122  C3  SGN B   7      39.979  16.951  27.6360  0.00  0.00     0.000 C
ATOM    123  C4  SGN B   7      39.798  17.683  28.9560  0.00  0.00     0.000 C
ATOM    124  C5  SGN B   7      38.835  16.897  29.8610  0.00  0.00     0.000 C
ATOM    125  O5  SGN B   7      37.561  16.692  29.2110  0.00  0.00     0.000 O
ATOM    126   O  SGN B   7      40.797  17.701  26.7310  0.00  0.00     0.000 O
ATOM    128  HD  SGN B   7      40.069  17.252  26.8640  0.00  0.00     0.000 HD
BRANCH 121 130
ATOM    128   N  SGN B   7      37.589  16.361  25.9950  0.00  0.00     0.000 N
ATOM    130  HD  SGN B   7      37.570  17.181  25.7170  0.00  0.00     0.000 HD
ATOM    130   S  SGN B   7      37.917  16.265  24.4210  0.00  0.00     0.000 S
ATOM    131   O  SGN B   7      39.065  15.429  24.3300  0.00  0.00     0.000 OA
ATOM    132   O  SGN B   7      36.723  15.920  23.7370  0.00  0.00     0.000 OA
ATOM    133   O  SGN B   7      38.140  17.779  24.0880  0.00  0.00     0.000 OA
ENDBRANCH 121 130
BRANCH 124 134
ATOM    134   C  SGN B   7      38.501  17.598  31.1450  0.00  0.00     0.000 C
ATOM    135   O  SGN B   7      37.085  17.495  31.3680  0.00  0.00     0.000 O
ATOM    136   S  SGN B   7      36.551  18.036  32.7430  0.00  0.00     0.000 S
ATOM    137   O  SGN B   7      35.113  17.925  32.6930  0.00  0.00     0.000 OA
ATOM    138   O  SGN B   7      37.009  19.405  32.8140  0.00  0.00     0.000 OA
ATOM    139   O  SGN B   7      37.182  17.139  33.6980  0.00  0.00     0.000 OA
ENDBRANCH 124 134
BRANCH 120 140
ATOM    140  O4  IDS B   8      37.756  14.745  28.4410  0.00  0.00     0.000 O
BRANCH 140 144
ATOM    141  C1  IDS B   8      39.009  11.447  29.1570  0.00  0.00     0.000 C
ATOM    142  C2  IDS B   8      39.201  12.088  27.7530  0.00  0.00     0.000 C
ATOM    143  C3  IDS B   8      37.903  12.686  27.1800  0.00  0.00     0.000 C
ATOM    144  C4  IDS B   8      37.124  13.476  28.2310  0.00  0.00     0.000 C
ATOM    145  C5  IDS B   8      37.066  12.690  29.5500  0.00  0.00     0.000 C
ATOM    146  O5  IDS B   8      38.370  12.370  30.0300  0.00  0.00     0.000 O
BRANCH 142 147
ATOM    147   O  IDS B   8      40.192  13.193  27.8430  0.00  0.00     0.000 O
ATOM    148   S  IDS B   8      41.603  13.117  27.0470  0.00  0.00     0.000 S
ATOM    149   O  IDS B   8      41.810  11.742  26.6520  0.00  0.00     0.000 OA
ATOM    150   O  IDS B   8      41.455  14.011  25.9130  0.00  0.00     0.000 OA
ATOM    151   O  IDS B   8      42.602  13.565  27.9970  0.00  0.00     0.000 OA
ENDBRANCH 142 147
BRANCH 145 152
ATOM    152   C  IDS B   8      36.391  13.466  30.6620  0.00  0.00     0.000 C
ATOM    153   O  IDS B   8      37.075  14.092  31.4640  0.00  0.00     0.000 OA
ATOM    154   O  IDS B   8      35.175  13.476  30.7370  0.00  0.00     0.000 OA
ENDBRANCH 145 152
ENDBRANCH 140 144
ENDBRANCH 120 140
ENDBRANCH 119 123
ENDBRANCH 103 119
ENDBRANCH 102 106
ENDBRANCH 82 102
ENDBRANCH 81 85
ENDBRANCH 65 81
ENDBRANCH 64 68
ENDBRANCH 41 64
ENDBRANCH 40 44
ENDBRANCH 24 40
ENDBRANCH 23 27
ENDBRANCH 1 23
TORSDOF 31
ENDMDL
MODEL 52
REMARK VINA RESULT:      -1.6     11.073     19.369
ROOT
ATOM      1  C1  SGN B   1      45.425  28.414  20.7310  0.00  0.00     0.000 C
ATOM      2  C2  SGN B   1      46.304  29.261  19.7960  0.00  0.00     0.000 C
ATOM      3  C3  SGN B   1      45.863  29.095  18.3380  0.00  0.00     0.000 C
ATOM      4  C4  SGN B   1      45.874  27.620  17.9500  0.00  0.00     0.000 C
ATOM      5  C5  SGN B   1      45.102  26.822  18.9980  0.00  0.00     0.000 C
ATOM      6  O5  SGN B   1      45.656  27.078  20.3030  0.00  0.00     0.000 O
ATOM      7   O  SGN B   1      46.707  29.845  17.4720  0.00  0.00     0.000 O
ATOM      9  HD  SGN B   1      47.270  29.295  17.8330  0.00  0.00     0.000 HD
ATOM      9   O  SGN B   1      45.274  27.464  16.6770  0.00  0.00     0.000 O
ATOM     11  HD  SGN B   1      45.837  26.914  17.0380  0.00  0.00     0.000 HD
ENDROOT
BRANCH 2 13
ATOM     11   N  SGN B   1      47.241  29.918  20.7270  0.00  0.00     0.000 N
ATOM     13  HD  SGN B   1      46.387  29.956  20.8630  0.00  0.00     0.000 HD
ATOM     13   S  SGN B   1      46.832  31.218  21.5830  0.00  0.00     0.000 S
ATOM     14   O  SGN B   1      45.485  31.556  21.3380  0.00  0.00     0.000 OA
ATOM     15   O  SGN B   1      47.274  31.030  22.9250  0.00  0.00     0.000 OA
ATOM     16   O  SGN B   1      47.804  32.239  20.9170  0.00  0.00     0.000 OA
ENDBRANCH 2 13
BRANCH 5 17
ATOM     17   C  SGN B   1      45.136  25.329  18.7810  0.00  0.00     0.000 C
ATOM     18   O  SGN B   1      43.956  24.884  18.0820  0.00  0.00     0.000 O
ATOM     19   S  SGN B   1      43.248  23.574  18.6650  0.00  0.00     0.000 S
ATOM     20   O  SGN B   1      42.259  23.210  17.6720  0.00  0.00     0.000 OA
ATOM     21   O  SGN B   1      44.323  22.618  18.7890  0.00  0.00     0.000 OA
ATOM     22   O  SGN B   1      42.676  23.985  19.9290  0.00  0.00     0.000 OA
ENDBRANCH 5 17
BRANCH 1 23
ATOM     23  O4  IDS B   2      44.274  28.497  21.4570  0.00  0.00     0.000 O
BRANCH 23 27
ATOM     24  C1  IDS B   2      40.795  27.101  19.6750  0.00  0.00     0.000 C
ATOM     25  C2  IDS B   2      41.225  28.528  19.2700  0.00  0.00     0.000 C
ATOM     26  C3  IDS B   2      42.647  28.823  19.7400  0.00  0.00     0.000 C
ATOM     27  C4  IDS B   2      42.852  28.602  21.2320  0.00  0.00     0.000 C
ATOM     28  C5  IDS B   2      42.041  27.376  21.6990  0.00  0.00     0.000 C
ATOM     29  O5  IDS B   2      41.725  26.530  20.6050  0.00  0.00     0.000 O
ATOM     30   O  IDS B   2      42.960  30.183  19.4600  0.00  0.00     0.000 O
ATOM     32  HD  IDS B   2      42.623  30.736  20.0350  0.00  0.00     0.000 HD
BRANCH 25 32
ATOM     32   O  IDS B   2      41.187  28.730  17.8010  0.00  0.00     0.000 O
ATOM     33   S  IDS B   2      40.211  29.863  17.1020  0.00  0.00     0.000 S
ATOM     34   O  IDS B   2      40.271  29.620  15.6690  0.00  0.00     0.000 OA
ATOM     35   O  IDS B   2      38.855  29.715  17.6110  0.00  0.00     0.000 OA
ATOM     36   O  IDS B   2      40.791  31.141  17.4440  0.00  0.00     0.000 OA
ENDBRANCH 25 32
BRANCH 28 37
ATOM     37   C  IDS B   2      42.633  26.508  22.8290  0.00  0.00     0.000 C
ATOM     38   O  IDS B   2      42.396  26.948  23.9290  0.00  0.00     0.000 OA
ATOM     39   O  IDS B   2      43.244  25.419  22.7030  0.00  0.00     0.000 OA
ENDBRANCH 28 37
BRANCH 24 40
ATOM     40  O4  SUS B   3      39.542  26.675  19.4080  0.00  0.00     0.000 O
BRANCH 40 44
ATOM     41  C1  SUS B   3      38.060  22.801  18.8230  0.00  0.00     0.000 C
ATOM     42  C2  SUS B   3      38.566  23.156  20.2350  0.00  0.00     0.000 C
ATOM     43  C3  SUS B   3      38.604  24.675  20.3890  0.00  0.00     0.000 C
ATOM     44  C4  SUS B   3      39.445  25.262  19.2650  0.00  0.00     0.000 C
ATOM     45  C5  SUS B   3      38.796  24.922  17.9390  0.00  0.00     0.000 C
ATOM     46  O5  SUS B   3      38.787  23.487  17.7970  0.00  0.00     0.000 O
BRANCH 42 49
ATOM     47   N  SUS B   3      39.153  22.664  21.4930  0.00  0.00     0.000 N
ATOM     49  HD  SUS B   3      40.016  22.601  21.5190  0.00  0.00     0.000 HD
ATOM     49   S  SUS B   3      38.537  21.258  21.9530  0.00  0.00     0.000 S
ATOM     50   O  SUS B   3      38.721  20.298  20.9370  0.00  0.00     0.000 OA
ATOM     51   O  SUS B   3      39.520  21.007  23.1260  0.00  0.00     0.000 OA
ATOM     52   O  SUS B   3      37.228  21.456  22.4340  0.00  0.00     0.000 OA
ENDBRANCH 42 49
BRANCH 43 53
ATOM     53   O  SUS B   3      39.222  24.985  21.6920  0.00  0.00     0.000 O
ATOM     54   S  SUS B   3      38.268  25.702  22.8230  0.00  0.00     0.000 S
ATOM     55   O  SUS B   3      37.313  24.704  23.2840  0.00  0.00     0.000 OA
ATOM     56   O  SUS B   3      39.201  26.137  23.8460  0.00  0.00     0.000 OA
ATOM     57   O  SUS B   3      37.589  26.813  22.1490  0.00  0.00     0.000 OA
ENDBRANCH 43 53
BRANCH 45 58
ATOM     58   C  SUS B   3      39.522  25.558  16.7740  0.00  0.00     0.000 C
ATOM     59   S  SUS B   3      40.416  25.062  14.4200  0.00  0.00     0.000 S
ATOM     60   O  SUS B   3      39.516  24.653  15.6570  0.00  0.00     0.000 O
ATOM     61   O  SUS B   3      41.772  24.726  14.8110  0.00  0.00     0.000 OA
ATOM     62   O  SUS B   3      39.895  24.183  13.4080  0.00  0.00     0.000 OA
ATOM     63   O  SUS B   3      40.169  26.445  14.2110  0.00  0.00     0.000 OA
ENDBRANCH 45 58
BRANCH 41 64
ATOM     64  O4  IDS B   4      36.696  22.873  18.6890  0.00  0.00     0.000 O
BRANCH 64 68
ATOM     65  C1  IDS B   4      33.258  21.948  17.9140  0.00  0.00     0.000 C
ATOM     66  C2  IDS B   4      34.013  21.237  19.0430  0.00  0.00     0.000 C
ATOM     67  C3  IDS B   4      35.421  20.798  18.6780  0.00  0.00     0.000 C
ATOM     68  C4  IDS B   4      36.162  21.828  17.8460  0.00  0.00     0.000 C
ATOM     69  C5  IDS B   4      35.205  22.345  16.7630  0.00  0.00     0.000 C
ATOM     70  O5  IDS B   4      34.083  22.972  17.3880  0.00  0.00     0.000 O
ATOM     71   O  IDS B   4      35.310  19.590  17.9550  0.00  0.00     0.000 O
ATOM     73  HD  IDS B   4      35.037  20.219  18.4830  0.00  0.00     0.000 HD
BRANCH 66 73
ATOM     73   O  IDS B   4      34.173  22.170  20.1670  0.00  0.00     0.000 O
ATOM     74   S  IDS B   4      33.435  21.811  21.5610  0.00  0.00     0.000 S
ATOM     75   O  IDS B   4      32.030  21.656  21.2540  0.00  0.00     0.000 OA
ATOM     76   O  IDS B   4      33.737  22.970  22.3630  0.00  0.00     0.000 OA
ATOM     77   O  IDS B   4      34.056  20.592  22.0230  0.00  0.00     0.000 OA
ENDBRANCH 66 73
BRANCH 69 78
ATOM     78   C  IDS B   4      35.864  23.224  15.7090  0.00  0.00     0.000 C
ATOM     79   O  IDS B   4      35.935  24.435  15.9090  0.00  0.00     0.000 OA
ATOM     80   O  IDS B   4      36.403  22.676  14.7290  0.00  0.00     0.000 OA
ENDBRANCH 69 78
BRANCH 65 81
ATOM     81  O4  SGN B   5      32.789  21.024  17.0300  0.00  0.00     0.000 O
BRANCH 81 85
ATOM     82  C1  SGN B   5      30.630  20.699  13.4420  0.00  0.00     0.000 C
ATOM     83  C2  SGN B   5      32.161  20.614  13.3460  0.00  0.00     0.000 C
ATOM     84  C3  SGN B   5      32.745  20.284  14.7260  0.00  0.00     0.000 C
ATOM     85  C4  SGN B   5      32.266  21.316  15.7320  0.00  0.00     0.000 C
ATOM     86  C5  SGN B   5      30.740  21.291  15.7550  0.00  0.00     0.000 C
ATOM     87  O5  SGN B   5      30.252  21.626  14.4420  0.00  0.00     0.000 O
ATOM     88   O  SGN B   5      34.154  20.260  14.6580  0.00  0.00     0.000 O
ATOM     90  HD  SGN B   5      33.640  19.563  14.6700  0.00  0.00     0.000 HD
BRANCH 83 92
ATOM     90   N  SGN B   5      31.959  20.939  11.9200  0.00  0.00     0.000 N
ATOM     92  HD  SGN B   5      31.863  21.792  11.8070  0.00  0.00     0.000 HD
ATOM     92   S  SGN B   5      32.892  20.214  10.8440  0.00  0.00     0.000 S
ATOM     93   O  SGN B   5      32.456  20.739   9.5850  0.00  0.00     0.000 OA
ATOM     94   O  SGN B   5      34.228  20.430  11.2840  0.00  0.00     0.000 OA
ATOM     95   O  SGN B   5      32.596  18.739  11.0100  0.00  0.00     0.000 OA
ENDBRANCH 83 92
BRANCH 86 96
ATOM     96   C  SGN B   5      30.118  22.269  16.7300  0.00  0.00     0.000 C
ATOM     97   O  SGN B   5      30.507  23.608  16.4160  0.00  0.00     0.000 O
ATOM     98   S  SGN B   5      29.320  24.678  16.2930  0.00  0.00     0.000 S
ATOM     99   O  SGN B   5      30.030  25.930  16.1800  0.00  0.00     0.000 OA
ATOM    100   O  SGN B   5      28.549  24.330  15.1540  0.00  0.00     0.000 OA
ATOM    101   O  SGN B   5      28.596  24.548  17.5160  0.00  0.00     0.000 OA
ENDBRANCH 86 96
BRANCH 82 102
ATOM    102  O4  IDS B   6      30.052  19.487  13.6750  0.00  0.00     0.000 O
BRANCH 102 106
ATOM    103  C1  IDS B   6      27.839  16.636  13.1910  0.00  0.00     0.000 C
ATOM    104  C2  IDS B   6      28.956  16.944  12.1810  0.00  0.00     0.000 C
ATOM    105  C3  IDS B   6      29.045  18.394  11.7450  0.00  0.00     0.000 C
ATOM    106  C4  IDS B   6      28.836  19.366  12.8930  0.00  0.00     0.000 C
ATOM    107  C5  IDS B   6      27.672  18.890  13.7670  0.00  0.00     0.000 C
ATOM    108  O5  IDS B   6      27.880  17.565  14.2570  0.00  0.00     0.000 O
ATOM    109   O  IDS B   6      28.086  18.608  10.7230  0.00  0.00     0.000 O
ATOM    111  HD  IDS B   6      27.502  17.981  10.8500  0.00  0.00     0.000 HD
BRANCH 104 111
ATOM    111   O  IDS B   6      30.257  16.643  12.7970  0.00  0.00     0.000 O
ATOM    112   S  IDS B   6      31.097  15.409  12.2190  0.00  0.00     0.000 S
ATOM    113   O  IDS B   6      30.217  14.262  12.3770  0.00  0.00     0.000 OA
ATOM    114   O  IDS B   6      31.469  15.710  10.8320  0.00  0.00     0.000 OA
ATOM    115   O  IDS B   6      32.208  15.429  13.1450  0.00  0.00     0.000 OA
ENDBRANCH 104 111
BRANCH 107 116
ATOM    116   C  IDS B   6      27.493  19.851  14.9350  0.00  0.00     0.000 C
ATOM    117   O  IDS B   6      27.768  19.430  16.0300  0.00  0.00     0.000 OA
ATOM    118   O  IDS B   6      27.083  20.989  14.7650  0.00  0.00     0.000 OA
ENDBRANCH 107 116
BRANCH 103 119
ATOM    119  O4  SGN B   7      26.734  16.498  12.4150  0.00  0.00     0.000 O
BRANCH 119 123
ATOM    120  C1  SGN B   7      24.597  14.110  15.1020  0.00  0.00     0.000 C
ATOM    121  C2  SGN B   7      25.521  13.399  14.0960  0.00  0.00     0.000 C
ATOM    122  C3  SGN B   7      26.511  14.396  13.4780  0.00  0.00     0.000 C
ATOM    123  C4  SGN B   7      25.754  15.575  12.8910  0.00  0.00     0.000 C
ATOM    124  C5  SGN B   7      24.858  16.209  13.9680  0.00  0.00     0.000 C
ATOM    125  O5  SGN B   7      23.943  15.237  14.5210  0.00  0.00     0.000 O
ATOM    126   O  SGN B   7      27.286  13.723  12.4790  0.00  0.00     0.000 O
ATOM    128  HD  SGN B   7      26.720  13.667  13.1320  0.00  0.00     0.000 HD
BRANCH 121 130
ATOM    128   N  SGN B   7      24.927  12.152  14.5830  0.00  0.00     0.000 N
ATOM    130  HD  SGN B   7      24.880  11.850  13.7730  0.00  0.00     0.000 HD
ATOM    130   S  SGN B   7      25.746  10.766  14.6190  0.00  0.00     0.000 S
ATOM    131   O  SGN B   7      26.970  11.075  15.2740  0.00  0.00     0.000 OA
ATOM    132   O  SGN B   7      24.892   9.756  15.1320  0.00  0.00     0.000 OA
ATOM    133   O  SGN B   7      25.845  10.459  13.0860  0.00  0.00     0.000 OA
ENDBRANCH 121 130
BRANCH 124 134
ATOM    134   C  SGN B   7      23.981  17.313  13.4560  0.00  0.00     0.000 C
ATOM    135   O  SGN B   7      23.900  17.207  12.0240  0.00  0.00     0.000 O
ATOM    136   S  SGN B   7      22.901  18.183  11.3050  0.00  0.00     0.000 S
ATOM    137   O  SGN B   7      23.071  17.965   9.8880  0.00  0.00     0.000 OA
ATOM    138   O  SGN B   7      23.299  19.507  11.7240  0.00  0.00     0.000 OA
ATOM    139   O  SGN B   7      21.613  17.749  11.8210  0.00  0.00     0.000 OA
ENDBRANCH 124 134
BRANCH 120 140
ATOM    140  O4  IDS B   8      24.923  14.645  16.2840  0.00  0.00     0.000 O
BRANCH 140 144
ATOM    141  C1  IDS B   8      25.212  16.180  19.5280  0.00  0.00     0.000 C
ATOM    142  C2  IDS B   8      25.670  16.931  18.2440  0.00  0.00     0.000 C
ATOM    143  C3  IDS B   8      26.568  16.075  17.3330  0.00  0.00     0.000 C
ATOM    144  C4  IDS B   8      26.040  14.649  17.1820  0.00  0.00     0.000 C
ATOM    145  C5  IDS B   8      25.618  14.093  18.5510  0.00  0.00     0.000 C
ATOM    146  O5  IDS B   8      24.645  14.923  19.1800  0.00  0.00     0.000 O
BRANCH 142 147
ATOM    147   O  IDS B   8      24.477  17.320  17.4460  0.00  0.00     0.000 O
ATOM    148   S  IDS B   8      23.909  18.839  17.4790  0.00  0.00     0.000 S
ATOM    149   O  IDS B   8      24.485  19.498  18.6290  0.00  0.00     0.000 OA
ATOM    150   O  IDS B   8      24.325  19.435  16.2230  0.00  0.00     0.000 OA
ATOM    151   O  IDS B   8      22.469  18.705  17.5960  0.00  0.00     0.000 OA
ENDBRANCH 142 147
BRANCH 145 152
ATOM    152   C  IDS B   8      24.992  12.717  18.4540  0.00  0.00     0.000 C
ATOM    153   O  IDS B   8      23.970  12.472  19.0840  0.00  0.00     0.000 OA
ATOM    154   O  IDS B   8      25.499  11.875  17.7350  0.00  0.00     0.000 OA
ENDBRANCH 145 152
ENDBRANCH 140 144
ENDBRANCH 120 140
ENDBRANCH 119 123
ENDBRANCH 103 119
ENDBRANCH 102 106
ENDBRANCH 82 102
ENDBRANCH 81 85
ENDBRANCH 65 81
ENDBRANCH 64 68
ENDBRANCH 41 64
ENDBRANCH 40 44
ENDBRANCH 24 40
ENDBRANCH 23 27
ENDBRANCH 1 23
TORSDOF 31
ENDMDL
MODEL 53
REMARK VINA RESULT:      -1.6     23.580     30.616
ROOT
ATOM      1  C1  SGN B   1      42.275  47.927  30.6770  0.00  0.00     0.000 C
ATOM      2  C2  SGN B   1      42.166  49.111  31.6520  0.00  0.00     0.000 C
ATOM      3  C3  SGN B   1      40.993  50.021  31.2710  0.00  0.00     0.000 C
ATOM      4  C4  SGN B   1      41.134  50.484  29.8250  0.00  0.00     0.000 C
ATOM      5  C5  SGN B   1      41.380  49.269  28.9340  0.00  0.00     0.000 C
ATOM      6  O5  SGN B   1      42.524  48.539  29.4190  0.00  0.00     0.000 O
ATOM      7   O  SGN B   1      40.923  51.139  32.1490  0.00  0.00     0.000 O
ATOM      9  HD  SGN B   1      41.704  51.245  31.7900  0.00  0.00     0.000 HD
ATOM      9   O  SGN B   1      39.950  51.150  29.4270  0.00  0.00     0.000 O
ATOM     11  HD  SGN B   1      40.731  51.257  29.0690  0.00  0.00     0.000 HD
ENDROOT
BRANCH 2 13
ATOM     11   N  SGN B   1      43.295  48.818  32.5550  0.00  0.00     0.000 N
ATOM     13  HD  SGN B   1      42.671  48.231  32.4270  0.00  0.00     0.000 HD
ATOM     13   S  SGN B   1      43.158  47.812  33.8030  0.00  0.00     0.000 S
ATOM     14   O  SGN B   1      41.862  47.257  33.8400  0.00  0.00     0.000 OA
ATOM     15   O  SGN B   1      44.291  46.948  33.8110  0.00  0.00     0.000 OA
ATOM     16   O  SGN B   1      43.364  48.850  34.9500  0.00  0.00     0.000 OA
ENDBRANCH 2 13
BRANCH 5 17
ATOM     17   C  SGN B   1      41.645  49.611  27.4880  0.00  0.00     0.000 C
ATOM     18   O  SGN B   1      41.802  48.417  26.6970  0.00  0.00     0.000 O
ATOM     19   S  SGN B   1      43.029  48.411  25.6720  0.00  0.00     0.000 S
ATOM     20   O  SGN B   1      42.829  47.234  24.8530  0.00  0.00     0.000 OA
ATOM     21   O  SGN B   1      42.888  49.651  24.9460  0.00  0.00     0.000 OA
ATOM     22   O  SGN B   1      44.213  48.346  26.5000  0.00  0.00     0.000 OA
ENDBRANCH 5 17
BRANCH 1 23
ATOM     23  O4  IDS B   2      41.820  46.652  30.5130  0.00  0.00     0.000 O
BRANCH 23 27
ATOM     24  C1  IDS B   2      41.473  42.538  30.0760  0.00  0.00     0.000 C
ATOM     25  C2  IDS B   2      40.976  43.110  31.4220  0.00  0.00     0.000 C
ATOM     26  C3  IDS B   2      40.871  44.632  31.3630  0.00  0.00     0.000 C
ATOM     27  C4  IDS B   2      42.162  45.314  30.9320  0.00  0.00     0.000 C
ATOM     28  C5  IDS B   2      42.870  44.469  29.8530  0.00  0.00     0.000 C
ATOM     29  O5  IDS B   2      41.956  43.584  29.2220  0.00  0.00     0.000 O
ATOM     30   O  IDS B   2      40.533  45.128  32.6530  0.00  0.00     0.000 O
ATOM     32  HD  IDS B   2      41.209  45.166  33.1920  0.00  0.00     0.000 HD
BRANCH 25 32
ATOM     32   O  IDS B   2      39.642  42.583  31.7970  0.00  0.00     0.000 O
ATOM     33   S  IDS B   2      39.409  41.697  33.1700  0.00  0.00     0.000 S
ATOM     34   O  IDS B   2      38.055  41.172  33.0890  0.00  0.00     0.000 OA
ATOM     35   O  IDS B   2      40.393  40.625  33.2270  0.00  0.00     0.000 OA
ATOM     36   O  IDS B   2      39.547  42.630  34.2640  0.00  0.00     0.000 OA
ENDBRANCH 25 32
BRANCH 28 37
ATOM     37   C  IDS B   2      43.658  45.215  28.7570  0.00  0.00     0.000 C
ATOM     38   O  IDS B   2      44.706  45.665  29.1580  0.00  0.00     0.000 OA
ATOM     39   O  IDS B   2      43.347  45.326  27.5450  0.00  0.00     0.000 OA
ENDBRANCH 28 37
BRANCH 24 40
ATOM     40  O4  SUS B   3      41.696  41.214  29.9490  0.00  0.00     0.000 O
BRANCH 40 44
ATOM     41  C1  SUS B   3      41.223  38.685  26.6430  0.00  0.00     0.000 C
ATOM     42  C2  SUS B   3      42.340  39.745  26.5650  0.00  0.00     0.000 C
ATOM     43  C3  SUS B   3      42.679  40.223  27.9760  0.00  0.00     0.000 C
ATOM     44  C4  SUS B   3      41.406  40.714  28.6480  0.00  0.00     0.000 C
ATOM     45  C5  SUS B   3      40.428  39.562  28.7460  0.00  0.00     0.000 C
ATOM     46  O5  SUS B   3      40.099  39.135  27.4080  0.00  0.00     0.000 O
BRANCH 42 49
ATOM     47   N  SUS B   3      43.205  40.587  25.7220  0.00  0.00     0.000 N
ATOM     49  HD  SUS B   3      42.906  41.376  25.5270  0.00  0.00     0.000 HD
ATOM     49   S  SUS B   3      43.630  39.864  24.3570  0.00  0.00     0.000 S
ATOM     50   O  SUS B   3      42.479  39.494  23.6320  0.00  0.00     0.000 OA
ATOM     51   O  SUS B   3      44.312  41.095  23.7060  0.00  0.00     0.000 OA
ATOM     52   O  SUS B   3      44.577  38.860  24.6350  0.00  0.00     0.000 OA
ENDBRANCH 42 49
BRANCH 43 53
ATOM     53   O  SUS B   3      43.646  41.332  27.8600  0.00  0.00     0.000 O
ATOM     54   S  SUS B   3      45.151  41.080  28.4700  0.00  0.00     0.000 S
ATOM     55   O  SUS B   3      45.825  40.133  27.5930  0.00  0.00     0.000 OA
ATOM     56   O  SUS B   3      45.753  42.402  28.4780  0.00  0.00     0.000 OA
ATOM     57   O  SUS B   3      44.967  40.521  29.8130  0.00  0.00     0.000 OA
ENDBRANCH 43 53
BRANCH 45 58
ATOM     58   C  SUS B   3      39.171  39.947  29.4950  0.00  0.00     0.000 C
ATOM     59   S  SUS B   3      36.864  41.024  29.1770  0.00  0.00     0.000 S
ATOM     60   O  SUS B   3      38.171  40.378  28.5580  0.00  0.00     0.000 O
ATOM     61   O  SUS B   3      37.245  42.376  29.5410  0.00  0.00     0.000 OA
ATOM     62   O  SUS B   3      35.981  40.983  28.0420  0.00  0.00     0.000 OA
ATOM     63   O  SUS B   3      36.500  40.182  30.2600  0.00  0.00     0.000 OA
ENDBRANCH 45 58
BRANCH 41 64
ATOM     64  O4  IDS B   4      41.671  37.433  26.9850  0.00  0.00     0.000 O
BRANCH 64 68
ATOM     65  C1  IDS B   4      42.177  33.825  26.9410  0.00  0.00     0.000 C
ATOM     66  C2  IDS B   4      42.731  34.697  25.8070  0.00  0.00     0.000 C
ATOM     67  C3  IDS B   4      41.746  35.717  25.2600  0.00  0.00     0.000 C
ATOM     68  C4  IDS B   4      40.918  36.378  26.3460  0.00  0.00     0.000 C
ATOM     69  C5  IDS B   4      40.448  35.288  27.3190  0.00  0.00     0.000 C
ATOM     70  O5  IDS B   4      41.588  34.666  27.9160  0.00  0.00     0.000 O
ATOM     71   O  IDS B   4      40.895  35.037  24.3600  0.00  0.00     0.000 O
ATOM     73  HD  IDS B   4      41.607  35.146  24.8410  0.00  0.00     0.000 HD
BRANCH 66 73
ATOM     73   O  IDS B   4      43.861  35.482  26.3220  0.00  0.00     0.000 O
ATOM     74   S  IDS B   4      45.332  35.177  25.7220  0.00  0.00     0.000 S
ATOM     75   O  IDS B   4      45.580  33.768  25.9390  0.00  0.00     0.000 OA
ATOM     76   O  IDS B   4      46.162  36.049  26.5150  0.00  0.00     0.000 OA
ATOM     77   O  IDS B   4      45.260  35.535  24.3250  0.00  0.00     0.000 OA
ENDBRANCH 66 73
BRANCH 69 78
ATOM     78   C  IDS B   4      39.424  35.758  28.3440  0.00  0.00     0.000 C
ATOM     79   O  IDS B   4      39.701  35.668  29.5390  0.00  0.00     0.000 OA
ATOM     80   O  IDS B   4      38.388  36.316  27.9380  0.00  0.00     0.000 OA
ENDBRANCH 69 78
BRANCH 65 81
ATOM     81  O4  SGN B   5      41.387  32.847  26.4160  0.00  0.00     0.000 O
BRANCH 81 85
ATOM     82  C1  SGN B   5      40.435  28.769  26.7280  0.00  0.00     0.000 C
ATOM     83  C2  SGN B   5      39.712  29.729  27.6840  0.00  0.00     0.000 C
ATOM     84  C3  SGN B   5      39.810  31.163  27.1430  0.00  0.00     0.000 C
ATOM     85  C4  SGN B   5      41.270  31.519  26.9310  0.00  0.00     0.000 C
ATOM     86  C5  SGN B   5      41.872  30.514  25.9510  0.00  0.00     0.000 C
ATOM     87  O5  SGN B   5      41.768  29.195  26.5200  0.00  0.00     0.000 O
ATOM     88   O  SGN B   5      39.196  32.058  28.0440  0.00  0.00     0.000 O
ATOM     90  HD  SGN B   5      38.845  31.767  27.3080  0.00  0.00     0.000 HD
BRANCH 83 92
ATOM     90   N  SGN B   5      39.458  28.549  28.5330  0.00  0.00     0.000 N
ATOM     92  HD  SGN B   5      40.124  28.402  29.0670  0.00  0.00     0.000 HD
ATOM     92   S  SGN B   5      38.012  28.396  29.1960  0.00  0.00     0.000 S
ATOM     93   O  SGN B   5      38.092  27.179  29.9460  0.00  0.00     0.000 OA
ATOM     94   O  SGN B   5      37.760  29.629  29.8610  0.00  0.00     0.000 OA
ATOM     95   O  SGN B   5      37.059  28.313  28.0230  0.00  0.00     0.000 OA
ENDBRANCH 83 92
BRANCH 86 96
ATOM     96   C  SGN B   5      43.333  30.755  25.6340  0.00  0.00     0.000 C
ATOM     97   O  SGN B   5      44.100  30.846  26.8370  0.00  0.00     0.000 O
ATOM     98   S  SGN B   5      45.409  29.922  26.9110  0.00  0.00     0.000 S
ATOM     99   O  SGN B   5      46.054  30.382  28.1170  0.00  0.00     0.000 OA
ATOM    100   O  SGN B   5      44.975  28.572  26.9490  0.00  0.00     0.000 OA
ATOM    101   O  SGN B   5      46.135  30.239  25.7250  0.00  0.00     0.000 OA
ENDBRANCH 86 96
BRANCH 82 102
ATOM    102  O4  IDS B   6      39.790  28.630  25.5360  0.00  0.00     0.000 O
BRANCH 102 106
ATOM    103  C1  IDS B   6      38.014  26.921  22.8560  0.00  0.00     0.000 C
ATOM    104  C2  IDS B   6      37.486  26.881  24.2990  0.00  0.00     0.000 C
ATOM    105  C3  IDS B   6      38.526  26.556  25.3540  0.00  0.00     0.000 C
ATOM    106  C4  IDS B   6      39.854  27.248  25.1010  0.00  0.00     0.000 C
ATOM    107  C5  IDS B   6      40.207  27.161  23.6140  0.00  0.00     0.000 C
ATOM    108  O5  IDS B   6      39.182  27.716  22.7890  0.00  0.00     0.000 O
ATOM    109   O  IDS B   6      38.691  25.148  25.3940  0.00  0.00     0.000 O
ATOM    111  HD  IDS B   6      38.423  24.885  24.6130  0.00  0.00     0.000 HD
BRANCH 104 111
ATOM    111   O  IDS B   6      36.970  28.210  24.6580  0.00  0.00     0.000 O
ATOM    112   S  IDS B   6      35.383  28.411  24.7200  0.00  0.00     0.000 S
ATOM    113   O  IDS B   6      34.918  28.062  23.3860  0.00  0.00     0.000 OA
ATOM    114   O  IDS B   6      34.850  27.566  25.7940  0.00  0.00     0.000 OA
ATOM    115   O  IDS B   6      35.337  29.828  25.0060  0.00  0.00     0.000 OA
ENDBRANCH 104 111
BRANCH 107 116
ATOM    116   C  IDS B   6      41.522  27.888  23.3650  0.00  0.00     0.000 C
ATOM    117   O  IDS B   6      41.473  28.875  22.6750  0.00  0.00     0.000 OA
ATOM    118   O  IDS B   6      42.573  27.481  23.8350  0.00  0.00     0.000 OA
ENDBRANCH 107 116
BRANCH 103 119
ATOM    119  O4  SGN B   7      38.025  25.616  22.4810  0.00  0.00     0.000 O
BRANCH 119 123
ATOM    120  C1  SGN B   7      37.388  23.462  18.9540  0.00  0.00     0.000 C
ATOM    121  C2  SGN B   7      38.715  24.232  19.0900  0.00  0.00     0.000 C
ATOM    122  C3  SGN B   7      38.966  24.617  20.5530  0.00  0.00     0.000 C
ATOM    123  C4  SGN B   7      37.761  25.366  21.1000  0.00  0.00     0.000 C
ATOM    124  C5  SGN B   7      36.491  24.521  20.9120  0.00  0.00     0.000 C
ATOM    125  O5  SGN B   7      36.295  24.182  19.5210  0.00  0.00     0.000 O
ATOM    126   O  SGN B   7      40.154  25.414  20.6290  0.00  0.00     0.000 O
ATOM    128  HD  SGN B   7      39.639  24.904  20.1550  0.00  0.00     0.000 HD
BRANCH 121 130
ATOM    128   N  SGN B   7      39.096  24.349  17.6800  0.00  0.00     0.000 N
ATOM    130  HD  SGN B   7      39.738  24.891  17.8910  0.00  0.00     0.000 HD
ATOM    130   S  SGN B   7      40.424  23.657  17.0880  0.00  0.00     0.000 S
ATOM    131   O  SGN B   7      40.362  22.303  17.5210  0.00  0.00     0.000 OA
ATOM    132   O  SGN B   7      40.510  23.964  15.7060  0.00  0.00     0.000 OA
ATOM    133   O  SGN B   7      41.527  24.544  17.7600  0.00  0.00     0.000 OA
ENDBRANCH 121 130
BRANCH 124 134
ATOM    134   C  SGN B   7      35.229  25.223  21.3170  0.00  0.00     0.000 C
ATOM    135   O  SGN B   7      34.173  24.816  20.4300  0.00  0.00     0.000 O
ATOM    136   S  SGN B   7      32.729  25.325  20.7810  0.00  0.00     0.000 S
ATOM    137   O  SGN B   7      31.871  24.883  19.7070  0.00  0.00     0.000 OA
ATOM    138   O  SGN B   7      32.842  26.764  20.8570  0.00  0.00     0.000 OA
ATOM    139   O  SGN B   7      32.468  24.672  22.0540  0.00  0.00     0.000 OA
ENDBRANCH 124 134
BRANCH 120 140
ATOM    140  O4  IDS B   8      37.094  22.241  19.4120  0.00  0.00     0.000 O
BRANCH 140 144
ATOM    141  C1  IDS B   8      36.968  19.459  21.6940  0.00  0.00     0.000 C
ATOM    142  C2  IDS B   8      38.234  20.358  21.5990  0.00  0.00     0.000 C
ATOM    143  C3  IDS B   8      38.701  20.591  20.1500  0.00  0.00     0.000 C
ATOM    144  C4  IDS B   8      37.533  20.891  19.2120  0.00  0.00     0.000 C
ATOM    145  C5  IDS B   8      36.376  19.915  19.4770  0.00  0.00     0.000 C
ATOM    146  O5  IDS B   8      35.950  19.960  20.8370  0.00  0.00     0.000 O
BRANCH 142 147
ATOM    147   O  IDS B   8      37.939  21.692  22.1850  0.00  0.00     0.000 O
ATOM    148   S  IDS B   8      38.387  22.057  23.7000  0.00  0.00     0.000 S
ATOM    149   O  IDS B   8      38.696  20.817  24.3770  0.00  0.00     0.000 OA
ATOM    150   O  IDS B   8      39.542  22.925  23.5640  0.00  0.00     0.000 OA
ATOM    151   O  IDS B   8      37.241  22.724  24.2880  0.00  0.00     0.000 OA
ENDBRANCH 142 147
BRANCH 145 152
ATOM    152   C  IDS B   8      35.149  20.226  18.6450  0.00  0.00     0.000 C
ATOM    153   O  IDS B   8      34.055  20.317  19.1910  0.00  0.00     0.000 OA
ATOM    154   O  IDS B   8      35.264  20.403  17.4450  0.00  0.00     0.000 OA
ENDBRANCH 145 152
ENDBRANCH 140 144
ENDBRANCH 120 140
ENDBRANCH 119 123
ENDBRANCH 103 119
ENDBRANCH 102 106
ENDBRANCH 82 102
ENDBRANCH 81 85
ENDBRANCH 65 81
ENDBRANCH 64 68
ENDBRANCH 41 64
ENDBRANCH 40 44
ENDBRANCH 24 40
ENDBRANCH 23 27
ENDBRANCH 1 23
TORSDOF 31
ENDMDL
MODEL 54
REMARK VINA RESULT:      -1.6     13.558     18.204
ROOT
ATOM      1  C1  SGN B   1      35.635  21.843  23.0230  0.00  0.00     0.000 C
ATOM      2  C2  SGN B   1      36.429  20.825  22.1870  0.00  0.00     0.000 C
ATOM      3  C3  SGN B   1      36.929  19.674  23.0660  0.00  0.00     0.000 C
ATOM      4  C4  SGN B   1      37.750  20.219  24.2310  0.00  0.00     0.000 C
ATOM      5  C5  SGN B   1      36.956  21.322  24.9270  0.00  0.00     0.000 C
ATOM      6  O5  SGN B   1      36.583  22.328  23.9650  0.00  0.00     0.000 O
ATOM      7   O  SGN B   1      37.701  18.757  22.2980  0.00  0.00     0.000 O
ATOM      9  HD  SGN B   1      38.160  19.487  22.2150  0.00  0.00     0.000 HD
ATOM      9   O  SGN B   1      38.030  19.171  25.1400  0.00  0.00     0.000 O
ATOM     11  HD  SGN B   1      38.489  19.900  25.0570  0.00  0.00     0.000 HD
ENDROOT
BRANCH 2 13
ATOM     11   N  SGN B   1      36.372  21.395  20.8280  0.00  0.00     0.000 N
ATOM     13  HD  SGN B   1      35.647  21.284  21.2890  0.00  0.00     0.000 HD
ATOM     13   S  SGN B   1      35.083  21.227  19.8790  0.00  0.00     0.000 S
ATOM     14   O  SGN B   1      34.065  20.529  20.5630  0.00  0.00     0.000 OA
ATOM     15   O  SGN B   1      34.790  22.490  19.2890  0.00  0.00     0.000 OA
ATOM     16   O  SGN B   1      35.734  20.341  18.7730  0.00  0.00     0.000 OA
ENDBRANCH 2 13
BRANCH 5 17
ATOM     17   C  SGN B   1      37.711  22.017  26.0330  0.00  0.00     0.000 C
ATOM     18   O  SGN B   1      39.082  22.247  25.6550  0.00  0.00     0.000 O
ATOM     19   S  SGN B   1      40.184  21.892  26.7590  0.00  0.00     0.000 S
ATOM     20   O  SGN B   1      41.424  22.423  26.2360  0.00  0.00     0.000 OA
ATOM     21   O  SGN B   1      39.721  22.567  27.9490  0.00  0.00     0.000 OA
ATOM     22   O  SGN B   1      40.167  20.448  26.8570  0.00  0.00     0.000 OA
ENDBRANCH 5 17
BRANCH 1 23
ATOM     23  O4  IDS B   2      34.363  22.100  23.4400  0.00  0.00     0.000 O
BRANCH 23 27
ATOM     24  C1  IDS B   2      33.460  20.081  26.9530  0.00  0.00     0.000 C
ATOM     25  C2  IDS B   2      32.987  19.398  25.6500  0.00  0.00     0.000 C
ATOM     26  C3  IDS B   2      33.620  20.056  24.4280  0.00  0.00     0.000 C
ATOM     27  C4  IDS B   2      33.392  21.560  24.3610  0.00  0.00     0.000 C
ATOM     28  C5  IDS B   2      33.451  22.166  25.7780  0.00  0.00     0.000 C
ATOM     29  O5  IDS B   2      34.147  21.306  26.6680  0.00  0.00     0.000 O
ATOM     30   O  IDS B   2      33.066  19.485  23.2490  0.00  0.00     0.000 O
ATOM     32  HD  IDS B   2      32.285  19.800  23.0510  0.00  0.00     0.000 HD
BRANCH 25 32
ATOM     32   O  IDS B   2      33.335  17.956  25.6140  0.00  0.00     0.000 O
ATOM     33   S  IDS B   2      34.870  17.438  25.3000  0.00  0.00     0.000 S
ATOM     34   O  IDS B   2      34.783  15.997  25.1240  0.00  0.00     0.000 OA
ATOM     35   O  IDS B   2      35.365  18.092  24.0960  0.00  0.00     0.000 OA
ATOM     36   O  IDS B   2      35.645  17.780  26.4700  0.00  0.00     0.000 OA
ENDBRANCH 25 32
BRANCH 28 37
ATOM     37   C  IDS B   2      34.026  23.589  25.9300  0.00  0.00     0.000 C
ATOM     38   O  IDS B   2      33.381  24.420  25.3340  0.00  0.00     0.000 OA
ATOM     39   O  IDS B   2      35.007  23.937  26.6310  0.00  0.00     0.000 OA
ENDBRANCH 28 37
BRANCH 24 40
ATOM     40  O4  SUS B   3      32.958  19.684  28.1410  0.00  0.00     0.000 O
BRANCH 40 44
ATOM     41  C1  SUS B   3      34.467  16.953  30.9360  0.00  0.00     0.000 C
ATOM     42  C2  SUS B   3      35.359  18.158  30.5740  0.00  0.00     0.000 C
ATOM     43  C3  SUS B   3      34.496  19.255  29.9550  0.00  0.00     0.000 C
ATOM     44  C4  SUS B   3      33.735  18.673  28.7740  0.00  0.00     0.000 C
ATOM     45  C5  SUS B   3      32.830  17.565  29.2720  0.00  0.00     0.000 C
ATOM     46  O5  SUS B   3      33.658  16.527  29.8340  0.00  0.00     0.000 O
BRANCH 42 49
ATOM     47   N  SUS B   3      36.105  18.446  31.8110  0.00  0.00     0.000 N
ATOM     49  HD  SUS B   3      35.987  19.229  32.1610  0.00  0.00     0.000 HD
ATOM     49   S  SUS B   3      37.681  18.204  31.6520  0.00  0.00     0.000 S
ATOM     50   O  SUS B   3      38.184  18.996  30.6000  0.00  0.00     0.000 OA
ATOM     51   O  SUS B   3      38.093  18.795  33.0250  0.00  0.00     0.000 OA
ATOM     52   O  SUS B   3      37.939  16.820  31.6080  0.00  0.00     0.000 OA
ENDBRANCH 42 49
BRANCH 43 53
ATOM     53   O  SUS B   3      35.393  20.332  29.4920  0.00  0.00     0.000 O
ATOM     54   S  SUS B   3      35.337  21.757  30.3090  0.00  0.00     0.000 S
ATOM     55   O  SUS B   3      35.943  21.536  31.6150  0.00  0.00     0.000 OA
ATOM     56   O  SUS B   3      36.080  22.676  29.4660  0.00  0.00     0.000 OA
ATOM     57   O  SUS B   3      33.919  22.107  30.4360  0.00  0.00     0.000 OA
ENDBRANCH 43 53
BRANCH 45 58
ATOM     58   C  SUS B   3      31.963  17.002  28.1670  0.00  0.00     0.000 C
ATOM     59   S  SUS B   3      29.532  16.418  27.5890  0.00  0.00     0.000 S
ATOM     60   O  SUS B   3      30.579  17.146  28.5270  0.00  0.00     0.000 O
ATOM     61   O  SUS B   3      29.588  15.020  27.9720  0.00  0.00     0.000 OA
ATOM     62   O  SUS B   3      28.312  17.059  28.0010  0.00  0.00     0.000 OA
ATOM     63   O  SUS B   3      29.950  16.701  26.2620  0.00  0.00     0.000 OA
ENDBRANCH 45 58
BRANCH 41 64
ATOM     64  O4  IDS B   4      33.776  17.110  32.1130  0.00  0.00     0.000 O
BRANCH 64 68
ATOM     65  C1  IDS B   4      32.627  16.317  35.4780  0.00  0.00     0.000 C
ATOM     66  C2  IDS B   4      34.116  16.206  35.1240  0.00  0.00     0.000 C
ATOM     67  C3  IDS B   4      34.398  15.486  33.8170  0.00  0.00     0.000 C
ATOM     68  C4  IDS B   4      33.416  15.849  32.7190  0.00  0.00     0.000 C
ATOM     69  C5  IDS B   4      32.004  15.841  33.3200  0.00  0.00     0.000 C
ATOM     70  O5  IDS B   4      31.928  16.823  34.3550  0.00  0.00     0.000 O
ATOM     71   O  IDS B   4      34.330  14.099  34.0790  0.00  0.00     0.000 O
ATOM     73  HD  IDS B   4      34.403  14.937  34.2860  0.00  0.00     0.000 HD
BRANCH 66 73
ATOM     73   O  IDS B   4      34.662  17.559  34.9510  0.00  0.00     0.000 O
ATOM     74   S  IDS B   4      35.757  18.078  36.0240  0.00  0.00     0.000 S
ATOM     75   O  IDS B   4      35.137  17.967  37.3270  0.00  0.00     0.000 OA
ATOM     76   O  IDS B   4      35.975  19.435  35.5920  0.00  0.00     0.000 OA
ATOM     77   O  IDS B   4      36.899  17.211  35.8580  0.00  0.00     0.000 OA
ENDBRANCH 66 73
BRANCH 69 78
ATOM     78   C  IDS B   4      30.884  15.970  32.2960  0.00  0.00     0.000 C
ATOM     79   O  IDS B   4      30.969  15.338  31.2450  0.00  0.00     0.000 OA
ATOM     80   O  IDS B   4      29.872  16.627  32.6010  0.00  0.00     0.000 OA
ENDBRANCH 69 78
BRANCH 65 81
ATOM     81  O4  SGN B   5      32.193  15.130  35.9870  0.00  0.00     0.000 O
BRANCH 81 85
ATOM     82  C1  SGN B   5      29.164  13.476  38.3790  0.00  0.00     0.000 C
ATOM     83  C2  SGN B   5      28.771  14.649  37.4690  0.00  0.00     0.000 C
ATOM     84  C3  SGN B   5      29.824  14.816  36.3640  0.00  0.00     0.000 C
ATOM     85  C4  SGN B   5      31.193  14.983  36.9980  0.00  0.00     0.000 C
ATOM     86  C5  SGN B   5      31.479  13.753  37.8540  0.00  0.00     0.000 C
ATOM     87  O5  SGN B   5      30.474  13.661  38.8810  0.00  0.00     0.000 O
ATOM     88   O  SGN B   5      29.501  15.927  35.5570  0.00  0.00     0.000 O
ATOM     90  HD  SGN B   5      29.362  15.098  35.3490  0.00  0.00     0.000 HD
BRANCH 83 92
ATOM     90   N  SGN B   5      27.534  14.475  38.2540  0.00  0.00     0.000 N
ATOM     92  HD  SGN B   5      27.686  14.579  39.1010  0.00  0.00     0.000 HD
ATOM     92   S  SGN B   5      26.199  15.170  37.7170  0.00  0.00     0.000 S
ATOM     93   O  SGN B   5      25.204  14.823  38.6860  0.00  0.00     0.000 OA
ATOM     94   O  SGN B   5      26.536  16.535  37.4980  0.00  0.00     0.000 OA
ATOM     95   O  SGN B   5      25.957  14.541  36.3620  0.00  0.00     0.000 OA
ENDBRANCH 83 92
BRANCH 86 96
ATOM     96   C  SGN B   5      32.828  13.776  38.5440  0.00  0.00     0.000 C
ATOM     97   O  SGN B   5      33.058  15.049  39.1530  0.00  0.00     0.000 O
ATOM     98   S  SGN B   5      33.507  15.025  40.6920  0.00  0.00     0.000 S
ATOM     99   O  SGN B   5      33.852  16.403  40.9440  0.00  0.00     0.000 OA
ATOM    100   O  SGN B   5      32.408  14.541  41.4480  0.00  0.00     0.000 OA
ATOM    101   O  SGN B   5      34.631  14.146  40.7210  0.00  0.00     0.000 OA
ENDBRANCH 86 96
BRANCH 82 102
ATOM    102  O4  IDS B   6      29.061  12.269  37.7530  0.00  0.00     0.000 O
BRANCH 102 106
ATOM    103  C1  IDS B   6      27.775   8.902  37.2420  0.00  0.00     0.000 C
ATOM    104  C2  IDS B   6      26.820  10.075  37.5090  0.00  0.00     0.000 C
ATOM    105  C3  IDS B   6      27.213  10.973  38.6660  0.00  0.00     0.000 C
ATOM    106  C4  IDS B   6      28.706  11.245  38.7170  0.00  0.00     0.000 C
ATOM    107  C5  IDS B   6      29.477   9.951  38.4450  0.00  0.00     0.000 C
ATOM    108  O5  IDS B   6      29.111   9.365  37.1940  0.00  0.00     0.000 O
ATOM    109   O  IDS B   6      26.771  10.363  39.8680  0.00  0.00     0.000 O
ATOM    111  HD  IDS B   6      26.703   9.524  39.6630  0.00  0.00     0.000 HD
BRANCH 104 111
ATOM    111   O  IDS B   6      26.796  10.952  36.3280  0.00  0.00     0.000 O
ATOM    112   S  IDS B   6      25.442  11.032  35.4770  0.00  0.00     0.000 S
ATOM    113   O  IDS B   6      25.191   9.662  35.0600  0.00  0.00     0.000 OA
ATOM    114   O  IDS B   6      24.396  11.616  36.3240  0.00  0.00     0.000 OA
ATOM    115   O  IDS B   6      25.889  11.900  34.4090  0.00  0.00     0.000 OA
ENDBRANCH 104 111
BRANCH 107 116
ATOM    116   C  IDS B   6      30.973  10.242  38.4620  0.00  0.00     0.000 C
ATOM    117   O  IDS B   6      31.458  10.521  39.5280  0.00  0.00     0.000 OA
ATOM    118   O  IDS B   6      31.639  10.202  37.4390  0.00  0.00     0.000 OA
ENDBRANCH 107 116
BRANCH 103 119
ATOM    119  O4  SGN B   7      27.386   7.960  38.1390  0.00  0.00     0.000 O
BRANCH 119 123
ATOM    120  C1  SGN B   7      28.027   3.859  38.6510  0.00  0.00     0.000 C
ATOM    121  C2  SGN B   7      29.023   4.826  39.3190  0.00  0.00     0.000 C
ATOM    122  C3  SGN B   7      28.438   6.242  39.3820  0.00  0.00     0.000 C
ATOM    123  C4  SGN B   7      27.995   6.677  37.9940  0.00  0.00     0.000 C
ATOM    124  C5  SGN B   7      27.013   5.647  37.4130  0.00  0.00     0.000 C
ATOM    125  O5  SGN B   7      27.605   4.329  37.3720  0.00  0.00     0.000 O
ATOM    126   O  SGN B   7      29.425   7.131  39.9170  0.00  0.00     0.000 O
ATOM    128  HD  SGN B   7      29.178   6.317  39.7560  0.00  0.00     0.000 HD
BRANCH 121 130
ATOM    128   N  SGN B   7      29.315   3.701  40.2120  0.00  0.00     0.000 N
ATOM    130  HD  SGN B   7      29.835   3.352  39.6140  0.00  0.00     0.000 HD
ATOM    130   S  SGN B   7      30.735   3.539  40.9530  0.00  0.00     0.000 S
ATOM    131   O  SGN B   7      30.979   4.798  41.5710  0.00  0.00     0.000 OA
ATOM    132   O  SGN B   7      30.700   2.353  41.7310  0.00  0.00     0.000 OA
ATOM    133   O  SGN B   7      31.650   3.184  39.7330  0.00  0.00     0.000 OA
ENDBRANCH 121 130
BRANCH 124 134
ATOM    134   C  SGN B   7      26.607   5.928  35.9960  0.00  0.00     0.000 C
ATOM    135   O  SGN B   7      25.389   5.215  35.7180  0.00  0.00     0.000 O
ATOM    136   S  SGN B   7      24.713   5.499  34.3300  0.00  0.00     0.000 S
ATOM    137   O  SGN B   7      23.583   4.605  34.2370  0.00  0.00     0.000 OA
ATOM    138   O  SGN B   7      25.735   5.220  33.3470  0.00  0.00     0.000 OA
ATOM    139   O  SGN B   7      24.349   6.903  34.4390  0.00  0.00     0.000 OA
ENDBRANCH 124 134
BRANCH 120 140
ATOM    140  O4  IDS B   8      26.846   3.440  39.1190  0.00  0.00     0.000 O
BRANCH 140 144
ATOM    141  C1  IDS B   8      23.698   2.965  40.7990  0.00  0.00     0.000 C
ATOM    142  C2  IDS B   8      25.008   3.193  41.6060  0.00  0.00     0.000 C
ATOM    143  C3  IDS B   8      26.168   2.295  41.1390  0.00  0.00     0.000 C
ATOM    144  C4  IDS B   8      26.264   2.228  39.6150  0.00  0.00     0.000 C
ATOM    145  C5  IDS B   8      24.869   2.025  39.0050  0.00  0.00     0.000 C
ATOM    146  O5  IDS B   8      23.964   3.051  39.4050  0.00  0.00     0.000 O
BRANCH 142 147
ATOM    147   O  IDS B   8      25.451   4.603  41.4440  0.00  0.00     0.000 O
ATOM    148   S  IDS B   8      26.104   5.422  42.6820  0.00  0.00     0.000 S
ATOM    149   O  IDS B   8      25.790   4.704  43.8970  0.00  0.00     0.000 OA
ATOM    150   O  IDS B   8      27.529   5.466  42.4090  0.00  0.00     0.000 OA
ATOM    151   O  IDS B   8      25.478   6.729  42.6480  0.00  0.00     0.000 OA
ENDBRANCH 142 147
BRANCH 145 152
ATOM    152   C  IDS B   8      24.885   2.050  37.4900  0.00  0.00     0.000 C
ATOM    153   O  IDS B   8      23.970   2.597  36.8850  0.00  0.00     0.000 OA
ATOM    154   O  IDS B   8      25.817   1.545  36.8900  0.00  0.00     0.000 OA
ENDBRANCH 145 152
ENDBRANCH 140 144
ENDBRANCH 120 140
ENDBRANCH 119 123
ENDBRANCH 103 119
ENDBRANCH 102 106
ENDBRANCH 82 102
ENDBRANCH 81 85
ENDBRANCH 65 81
ENDBRANCH 64 68
ENDBRANCH 41 64
ENDBRANCH 40 44
ENDBRANCH 24 40
ENDBRANCH 23 27
ENDBRANCH 1 23
TORSDOF 31
ENDMDL
MODEL 55
REMARK VINA RESULT:      -1.5     29.776     38.390
ROOT
ATOM      1  C1  SGN B   1      52.902  27.554  28.5640  0.00  0.00     0.000 C
ATOM      2  C2  SGN B   1      53.763  28.342  29.5650  0.00  0.00     0.000 C
ATOM      3  C3  SGN B   1      53.922  29.798  29.1150  0.00  0.00     0.000 C
ATOM      4  C4  SGN B   1      54.495  29.853  27.7030  0.00  0.00     0.000 C
ATOM      5  C5  SGN B   1      53.676  28.938  26.7960  0.00  0.00     0.000 C
ATOM      6  O5  SGN B   1      53.645  27.610  27.3530  0.00  0.00     0.000 O
ATOM      7   O  SGN B   1      54.755  30.513  30.0200  0.00  0.00     0.000 O
ATOM      9  HD  SGN B   1      55.293  29.897  29.7350  0.00  0.00     0.000 HD
ATOM      9   O  SGN B   1      54.445  31.185  27.2270  0.00  0.00     0.000 O
ATOM     11  HD  SGN B   1      54.982  30.570  26.9410  0.00  0.00     0.000 HD
ENDROOT
BRANCH 2 13
ATOM     11   N  SGN B   1      54.100  27.361  30.6140  0.00  0.00     0.000 N
ATOM     13  HD  SGN B   1      53.282  27.455  30.3460  0.00  0.00     0.000 HD
ATOM     13   S  SGN B   1      53.048  26.921  31.7490  0.00  0.00     0.000 S
ATOM     14   O  SGN B   1      51.809  27.562  31.5380  0.00  0.00     0.000 OA
ATOM     15   O  SGN B   1      53.089  25.503  31.8770  0.00  0.00     0.000 OA
ATOM     16   O  SGN B   1      53.791  27.517  32.9850  0.00  0.00     0.000 OA
ENDBRANCH 2 13
BRANCH 5 17
ATOM     17   C  SGN B   1      54.215  28.823  25.3910  0.00  0.00     0.000 C
ATOM     18   O  SGN B   1      54.311  27.443  24.9880  0.00  0.00     0.000 O
ATOM     19   S  SGN B   1      55.669  27.018  24.2590  0.00  0.00     0.000 S
ATOM     20   O  SGN B   1      55.423  25.683  23.7550  0.00  0.00     0.000 OA
ATOM     21   O  SGN B   1      55.835  28.006  23.2190  0.00  0.00     0.000 OA
ATOM     22   O  SGN B   1      56.684  27.072  25.2880  0.00  0.00     0.000 OA
ENDBRANCH 5 17
BRANCH 1 23
ATOM     23  O4  IDS B   2      51.600  27.232  28.3190  0.00  0.00     0.000 O
BRANCH 23 27
ATOM     24  C1  IDS B   2      51.280  24.915  24.8890  0.00  0.00     0.000 C
ATOM     25  C2  IDS B   2      50.273  26.080  25.0040  0.00  0.00     0.000 C
ATOM     26  C3  IDS B   2      50.664  27.032  26.1310  0.00  0.00     0.000 C
ATOM     27  C4  IDS B   2      50.842  26.339  27.4760  0.00  0.00     0.000 C
ATOM     28  C5  IDS B   2      51.485  24.953  27.2740  0.00  0.00     0.000 C
ATOM     29  O5  IDS B   2      52.156  24.882  26.0240  0.00  0.00     0.000 O
ATOM     30   O  IDS B   2      49.649  28.017  26.2860  0.00  0.00     0.000 O
ATOM     32  HD  IDS B   2      48.960  27.731  26.7260  0.00  0.00     0.000 HD
BRANCH 25 32
ATOM     32   O  IDS B   2      50.191  26.876  23.7540  0.00  0.00     0.000 O
ATOM     33   S  IDS B   2      48.777  27.044  22.9190  0.00  0.00     0.000 S
ATOM     34   O  IDS B   2      49.124  27.683  21.6600  0.00  0.00     0.000 OA
ATOM     35   O  IDS B   2      48.183  25.732  22.7040  0.00  0.00     0.000 OA
ATOM     36   O  IDS B   2      47.944  27.899  23.7310  0.00  0.00     0.000 OA
ENDBRANCH 25 32
BRANCH 28 37
ATOM     37   C  IDS B   2      52.441  24.435  28.3680  0.00  0.00     0.000 C
ATOM     38   O  IDS B   2      51.858  24.055  29.3560  0.00  0.00     0.000 OA
ATOM     39   O  IDS B   2      53.689  24.325  28.2900  0.00  0.00     0.000 OA
ENDBRANCH 28 37
BRANCH 24 40
ATOM     40  O4  SUS B   3      51.070  23.929  23.9930  0.00  0.00     0.000 O
BRANCH 40 44
ATOM     41  C1  SUS B   3      53.792  21.713  21.7060  0.00  0.00     0.000 C
ATOM     42  C2  SUS B   3      53.829  21.515  23.2350  0.00  0.00     0.000 C
ATOM     43  C3  SUS B   3      52.511  21.995  23.8370  0.00  0.00     0.000 C
ATOM     44  C4  SUS B   3      52.268  23.433  23.4060  0.00  0.00     0.000 C
ATOM     45  C5  SUS B   3      52.160  23.481  21.8960  0.00  0.00     0.000 C
ATOM     46  O5  SUS B   3      53.418  23.046  21.3400  0.00  0.00     0.000 O
BRANCH 42 49
ATOM     47   N  SUS B   3      54.190  20.111  23.4960  0.00  0.00     0.000 N
ATOM     49  HD  SUS B   3      53.639  19.654  23.9830  0.00  0.00     0.000 HD
ATOM     49   S  SUS B   3      55.656  19.956  24.1250  0.00  0.00     0.000 S
ATOM     50   O  SUS B   3      55.746  20.699  25.3200  0.00  0.00     0.000 OA
ATOM     51   O  SUS B   3      55.561  18.440  24.4300  0.00  0.00     0.000 OA
ATOM     52   O  SUS B   3      56.620  20.204  23.1280  0.00  0.00     0.000 OA
ENDBRANCH 42 49
BRANCH 43 53
ATOM     53   O  SUS B   3      52.629  21.925  25.3060  0.00  0.00     0.000 O
ATOM     54   S  SUS B   3      51.691  20.821  26.0820  0.00  0.00     0.000 S
ATOM     55   O  SUS B   3      52.224  19.501  25.7740  0.00  0.00     0.000 OA
ATOM     56   O  SUS B   3      51.804  21.186  27.4830  0.00  0.00     0.000 OA
ATOM     57   O  SUS B   3      50.334  20.983  25.5510  0.00  0.00     0.000 OA
ENDBRANCH 43 53
BRANCH 45 58
ATOM     58   C  SUS B   3      51.818  24.867  21.3950  0.00  0.00     0.000 C
ATOM     59   S  SUS B   3      52.866  26.975  20.3730  0.00  0.00     0.000 S
ATOM     60   O  SUS B   3      52.974  25.444  20.7640  0.00  0.00     0.000 O
ATOM     61   O  SUS B   3      53.060  27.699  21.6150  0.00  0.00     0.000 OA
ATOM     62   O  SUS B   3      53.983  27.101  19.4750  0.00  0.00     0.000 OA
ATOM     63   O  SUS B   3      51.586  27.125  19.7750  0.00  0.00     0.000 OA
ENDBRANCH 45 58
BRANCH 41 64
ATOM     64  O4  IDS B   4      53.101  20.732  21.0380  0.00  0.00     0.000 O
BRANCH 64 68
ATOM     65  C1  IDS B   4      52.708  17.879  18.8070  0.00  0.00     0.000 C
ATOM     66  C2  IDS B   4      53.926  17.972  19.7340  0.00  0.00     0.000 C
ATOM     67  C3  IDS B   4      54.609  19.329  19.7390  0.00  0.00     0.000 C
ATOM     68  C4  IDS B   4      53.625  20.484  19.7150  0.00  0.00     0.000 C
ATOM     69  C5  IDS B   4      52.540  20.166  18.6770  0.00  0.00     0.000 C
ATOM     70  O5  IDS B   4      51.851  18.976  19.0680  0.00  0.00     0.000 O
ATOM     71   O  IDS B   4      55.439  19.385  18.5980  0.00  0.00     0.000 O
ATOM     73  HD  IDS B   4      54.960  18.995  19.2050  0.00  0.00     0.000 HD
BRANCH 66 73
ATOM     73   O  IDS B   4      53.485  17.751  21.1180  0.00  0.00     0.000 O
ATOM     74   S  IDS B   4      53.894  16.357  21.8300  0.00  0.00     0.000 S
ATOM     75   O  IDS B   4      53.386  15.299  20.9830  0.00  0.00     0.000 OA
ATOM     76   O  IDS B   4      53.221  16.465  23.1010  0.00  0.00     0.000 OA
ATOM     77   O  IDS B   4      55.334  16.377  21.9170  0.00  0.00     0.000 OA
ENDBRANCH 66 73
BRANCH 69 78
ATOM     78   C  IDS B   4      51.599  21.324  18.3750  0.00  0.00     0.000 C
ATOM     79   O  IDS B   4      51.522  21.736  17.2180  0.00  0.00     0.000 OA
ATOM     80   O  IDS B   4      50.861  21.745  19.2840  0.00  0.00     0.000 OA
ENDBRANCH 69 78
BRANCH 65 81
ATOM     81  O4  SGN B   5      53.128  17.722  17.5210  0.00  0.00     0.000 O
BRANCH 81 85
ATOM     82  C1  SGN B   5      52.205  15.895  13.8530  0.00  0.00     0.000 C
ATOM     83  C2  SGN B   5      51.244  16.986  14.3510  0.00  0.00     0.000 C
ATOM     84  C3  SGN B   5      51.947  17.844  15.4120  0.00  0.00     0.000 C
ATOM     85  C4  SGN B   5      52.459  16.946  16.5240  0.00  0.00     0.000 C
ATOM     86  C5  SGN B   5      53.417  15.925  15.9140  0.00  0.00     0.000 C
ATOM     87  O5  SGN B   5      52.698  15.140  14.9440  0.00  0.00     0.000 O
ATOM     88   O  SGN B   5      51.053  18.812  15.9150  0.00  0.00     0.000 O
ATOM     90  HD  SGN B   5      51.676  18.959  15.3330  0.00  0.00     0.000 HD
BRANCH 83 92
ATOM     90   N  SGN B   5      50.494  16.465  13.1920  0.00  0.00     0.000 N
ATOM     92  HD  SGN B   5      50.301  15.628  13.2970  0.00  0.00     0.000 HD
ATOM     92   S  SGN B   5      49.312  17.363  12.5970  0.00  0.00     0.000 S
ATOM     93   O  SGN B   5      48.793  16.590  11.5090  0.00  0.00     0.000 OA
ATOM     94   O  SGN B   5      48.479  17.686  13.7040  0.00  0.00     0.000 OA
ATOM     95   O  SGN B   5      49.988  18.641  12.1520  0.00  0.00     0.000 OA
ENDBRANCH 83 92
BRANCH 86 96
ATOM     96   C  SGN B   5      54.019  14.962  16.9160  0.00  0.00     0.000 C
ATOM     97   O  SGN B   5      55.415  14.782  16.6620  0.00  0.00     0.000 O
ATOM     98   S  SGN B   5      56.392  14.972  17.9200  0.00  0.00     0.000 S
ATOM     99   O  SGN B   5      57.665  14.533  17.4020  0.00  0.00     0.000 OA
ATOM    100   O  SGN B   5      56.344  16.340  18.2930  0.00  0.00     0.000 OA
ATOM    101   O  SGN B   5      55.858  14.104  18.9180  0.00  0.00     0.000 OA
ENDBRANCH 86 96
BRANCH 82 102
ATOM    102  O4  IDS B   6      53.238  16.401  13.1210  0.00  0.00     0.000 O
BRANCH 102 106
ATOM    103  C1  IDS B   6      55.233  16.921  10.1200  0.00  0.00     0.000 C
ATOM    104  C2  IDS B   6      53.704  17.066  10.0820  0.00  0.00     0.000 C
ATOM    105  C3  IDS B   6      52.934  15.942  10.7490  0.00  0.00     0.000 C
ATOM    106  C4  IDS B   6      53.573  15.485  12.0480  0.00  0.00     0.000 C
ATOM    107  C5  IDS B   6      55.091  15.385  11.8710  0.00  0.00     0.000 C
ATOM    108  O5  IDS B   6      55.659  16.622  11.4360  0.00  0.00     0.000 O
ATOM    109   O  IDS B   6      52.837  14.867   9.8290  0.00  0.00     0.000 O
ATOM    111  HD  IDS B   6      53.500  14.996   9.2870  0.00  0.00     0.000 HD
BRANCH 104 111
ATOM    111   O  IDS B   6      53.320  18.285  10.8100  0.00  0.00     0.000 O
ATOM    112   S  IDS B   6      52.744  19.517   9.9650  0.00  0.00     0.000 S
ATOM    113   O  IDS B   6      53.802  19.839   9.0200  0.00  0.00     0.000 OA
ATOM    114   O  IDS B   6      51.477  19.106   9.3500  0.00  0.00     0.000 OA
ATOM    115   O  IDS B   6      52.596  20.483  11.0320  0.00  0.00     0.000 OA
ENDBRANCH 104 111
BRANCH 107 116
ATOM    116   C  IDS B   6      55.726  14.961  13.1890  0.00  0.00     0.000 C
ATOM    117   O  IDS B   6      55.476  13.848  13.5780  0.00  0.00     0.000 OA
ATOM    118   O  IDS B   6      56.443  15.719  13.8220  0.00  0.00     0.000 OA
ENDBRANCH 107 116
BRANCH 103 119
ATOM    119  O4  SGN B   7      55.502  16.086   9.0830  0.00  0.00     0.000 O
BRANCH 119 123
ATOM    120  C1  SGN B   7      58.939  14.962   6.9830  0.00  0.00     0.000 C
ATOM    121  C2  SGN B   7      58.497  14.069   8.1570  0.00  0.00     0.000 C
ATOM    122  C3  SGN B   7      57.045  14.374   8.5480  0.00  0.00     0.000 C
ATOM    123  C4  SGN B   7      56.886  15.862   8.8120  0.00  0.00     0.000 C
ATOM    124  C5  SGN B   7      57.358  16.663   7.5880  0.00  0.00     0.000 C
ATOM    125  O5  SGN B   7      58.729  16.346   7.2570  0.00  0.00     0.000 O
ATOM    126   O  SGN B   7      56.701  13.599   9.7020  0.00  0.00     0.000 O
ATOM    128  HD  SGN B   7      57.265  13.759   9.0650  0.00  0.00     0.000 HD
BRANCH 121 130
ATOM    128   N  SGN B   7      59.790  13.384   8.0890  0.00  0.00     0.000 N
ATOM    130  HD  SGN B   7      59.783  13.269   8.9470  0.00  0.00     0.000 HD
ATOM    130   S  SGN B   7      59.931  11.792   8.2880  0.00  0.00     0.000 S
ATOM    131   O  SGN B   7      58.967  11.221   7.4100  0.00  0.00     0.000 OA
ATOM    132   O  SGN B   7      61.301  11.447   8.1710  0.00  0.00     0.000 OA
ATOM    133   O  SGN B   7      59.622  11.672   9.8190  0.00  0.00     0.000 OA
ENDBRANCH 121 130
BRANCH 124 134
ATOM    134   C  SGN B   7      57.348  18.149   7.7940  0.00  0.00     0.000 C
ATOM    135   O  SGN B   7      58.217  18.465   8.8950  0.00  0.00     0.000 O
ATOM    136   S  SGN B   7      58.465  19.990   9.1770  0.00  0.00     0.000 S
ATOM    137   O  SGN B   7      59.271  20.057  10.3730  0.00  0.00     0.000 OA
ATOM    138   O  SGN B   7      57.149  20.562   9.3500  0.00  0.00     0.000 OA
ATOM    139   O  SGN B   7      59.157  20.422   7.9730  0.00  0.00     0.000 OA
ENDBRANCH 124 134
BRANCH 120 140
ATOM    140  O4  IDS B   8      58.506  14.932   5.7170  0.00  0.00     0.000 O
BRANCH 140 144
ATOM    141  C1  IDS B   8      57.905  14.862   2.1690  0.00  0.00     0.000 C
ATOM    142  C2  IDS B   8      58.109  16.209   2.9190  0.00  0.00     0.000 C
ATOM    143  C3  IDS B   8      57.250  16.327   4.1920  0.00  0.00     0.000 C
ATOM    144  C4  IDS B   8      57.263  15.038   5.0120  0.00  0.00     0.000 C
ATOM    145  C5  IDS B   8      57.072  13.823   4.0920  0.00  0.00     0.000 C
ATOM    146  O5  IDS B   8      58.065  13.775   3.0710  0.00  0.00     0.000 O
BRANCH 142 147
ATOM    147   O  IDS B   8      59.530  16.336   3.3340  0.00  0.00     0.000 O
ATOM    148   S  IDS B   8      60.547  17.324   2.5460  0.00  0.00     0.000 S
ATOM    149   O  IDS B   8      59.939  17.657   1.2770  0.00  0.00     0.000 OA
ATOM    150   O  IDS B   8      60.711  18.479   3.4100  0.00  0.00     0.000 OA
ATOM    151   O  IDS B   8      61.769  16.561   2.3780  0.00  0.00     0.000 OA
ENDBRANCH 142 147
BRANCH 145 152
ATOM    152   C  IDS B   8      57.175  12.507   4.8360  0.00  0.00     0.000 C
ATOM    153   O  IDS B   8      56.467  12.310   5.8170  0.00  0.00     0.000 OA
ATOM    154   O  IDS B   8      57.944  11.650   4.4400  0.00  0.00     0.000 OA
ENDBRANCH 145 152
ENDBRANCH 140 144
ENDBRANCH 120 140
ENDBRANCH 119 123
ENDBRANCH 103 119
ENDBRANCH 102 106
ENDBRANCH 82 102
ENDBRANCH 81 85
ENDBRANCH 65 81
ENDBRANCH 64 68
ENDBRANCH 41 64
ENDBRANCH 40 44
ENDBRANCH 24 40
ENDBRANCH 23 27
ENDBRANCH 1 23
TORSDOF 31
ENDMDL
MODEL 56
REMARK VINA RESULT:      -1.4     49.192     57.288
ROOT
ATOM      1  C1  SGN B   1      81.415  13.600  27.9760  0.00  0.00     0.000 C
ATOM      2  C2  SGN B   1      81.346  14.177  29.3990  0.00  0.00     0.000 C
ATOM      3  C3  SGN B   1      81.776  15.648  29.4110  0.00  0.00     0.000 C
ATOM      4  C4  SGN B   1      83.167  15.794  28.8030  0.00  0.00     0.000 C
ATOM      5  C5  SGN B   1      83.201  15.077  27.4560  0.00  0.00     0.000 C
ATOM      6  O5  SGN B   1      82.789  13.708  27.6280  0.00  0.00     0.000 O
ATOM      7   O  SGN B   1      81.752  16.165  30.7360  0.00  0.00     0.000 O
ATOM      9  HD  SGN B   1      82.337  15.530  30.8050  0.00  0.00     0.000 HD
ATOM      9   O  SGN B   1      83.464  17.168  28.6330  0.00  0.00     0.000 O
ATOM     11  HD  SGN B   1      84.048  16.533  28.7030  0.00  0.00     0.000 HD
ENDROOT
BRANCH 2 13
ATOM     11   N  SGN B   1      80.069  14.028  30.1230  0.00  0.00     0.000 N
ATOM     13  HD  SGN B   1      80.622  13.364  30.0640  0.00  0.00     0.000 HD
ATOM     13   S  SGN B   1      79.314  12.613  30.2510  0.00  0.00     0.000 S
ATOM     14   O  SGN B   1      80.074  11.599  29.6310  0.00  0.00     0.000 OA
ATOM     15   O  SGN B   1      78.894  12.447  31.6020  0.00  0.00     0.000 OA
ATOM     16   O  SGN B   1      78.044  12.962  29.4140  0.00  0.00     0.000 OA
ENDBRANCH 2 13
BRANCH 5 17
ATOM     17   C  SGN B   1      84.562  15.059  26.8040  0.00  0.00     0.000 C
ATOM     18   O  SGN B   1      85.591  14.767  27.7700  0.00  0.00     0.000 O
ATOM     19   S  SGN B   1      86.898  15.686  27.7030  0.00  0.00     0.000 S
ATOM     20   O  SGN B   1      87.849  15.052  28.5910  0.00  0.00     0.000 OA
ATOM     21   O  SGN B   1      87.287  15.643  26.3130  0.00  0.00     0.000 OA
ATOM     22   O  SGN B   1      86.465  16.991  28.1530  0.00  0.00     0.000 OA
ENDBRANCH 5 17
BRANCH 1 23
ATOM     23  O4  IDS B   2      80.644  13.450  26.8610  0.00  0.00     0.000 O
BRANCH 23 27
ATOM     24  C1  IDS B   2      77.899  12.409  23.9270  0.00  0.00     0.000 C
ATOM     25  C2  IDS B   2      77.350  13.289  25.0720  0.00  0.00     0.000 C
ATOM     26  C3  IDS B   2      78.487  13.853  25.9200  0.00  0.00     0.000 C
ATOM     27  C4  IDS B   2      79.427  12.785  26.4640  0.00  0.00     0.000 C
ATOM     28  C5  IDS B   2      79.621  11.671  25.4160  0.00  0.00     0.000 C
ATOM     29  O5  IDS B   2      79.294  12.135  24.1150  0.00  0.00     0.000 O
ATOM     30   O  IDS B   2      77.940  14.551  27.0320  0.00  0.00     0.000 O
ATOM     32  HD  IDS B   2      77.683  14.027  27.6720  0.00  0.00     0.000 HD
BRANCH 25 32
ATOM     32   O  IDS B   2      76.556  14.435  24.5670  0.00  0.00     0.000 O
ATOM     33   S  IDS B   2      74.957  14.618  24.9350  0.00  0.00     0.000 S
ATOM     34   O  IDS B   2      74.470  15.702  24.0980  0.00  0.00     0.000 OA
ATOM     35   O  IDS B   2      74.252  13.374  24.6600  0.00  0.00     0.000 OA
ATOM     36   O  IDS B   2      74.918  14.975  26.3350  0.00  0.00     0.000 OA
ENDBRANCH 25 32
BRANCH 28 37
ATOM     37   C  IDS B   2      80.997  10.975  25.3510  0.00  0.00     0.000 C
ATOM     38   O  IDS B   2      81.571  11.172  24.3060  0.00  0.00     0.000 OA
ATOM     39   O  IDS B   2      81.555  10.319  26.2640  0.00  0.00     0.000 OA
ENDBRANCH 28 37
BRANCH 24 40
ATOM     40  O4  SUS B   3      77.045  11.763  23.1060  0.00  0.00     0.000 O
BRANCH 40 44
ATOM     41  C1  SUS B   3      77.358  10.862  19.0270  0.00  0.00     0.000 C
ATOM     42  C2  SUS B   3      78.315  10.127  19.9870  0.00  0.00     0.000 C
ATOM     43  C3  SUS B   3      77.757  10.199  21.4070  0.00  0.00     0.000 C
ATOM     44  C4  SUS B   3      77.518  11.657  21.7680  0.00  0.00     0.000 C
ATOM     45  C5  SUS B   3      76.497  12.238  20.8120  0.00  0.00     0.000 C
ATOM     46  O5  SUS B   3      77.045  12.184  19.4800  0.00  0.00     0.000 O
BRANCH 42 49
ATOM     47   N  SUS B   3      78.639   8.725  19.6700  0.00  0.00     0.000 N
ATOM     49  HD  SUS B   3      78.637   8.168  20.3330  0.00  0.00     0.000 HD
ATOM     49   S  SUS B   3      80.033   8.574  18.8960  0.00  0.00     0.000 S
ATOM     50   O  SUS B   3      81.072   9.137  19.6640  0.00  0.00     0.000 OA
ATOM     51   O  SUS B   3      80.097   7.026  18.9430  0.00  0.00     0.000 OA
ATOM     52   O  SUS B   3      79.883   9.025  17.5700  0.00  0.00     0.000 OA
ENDBRANCH 42 49
BRANCH 43 53
ATOM     53   O  SUS B   3      78.757   9.613  22.3190  0.00  0.00     0.000 O
ATOM     54   S  SUS B   3      78.306   8.282  23.1720  0.00  0.00     0.000 S
ATOM     55   O  SUS B   3      78.215   7.173  22.2330  0.00  0.00     0.000 OA
ATOM     56   O  SUS B   3      79.356   8.127  24.1630  0.00  0.00     0.000 OA
ATOM     57   O  SUS B   3      76.998   8.589  23.7590  0.00  0.00     0.000 OA
ENDBRANCH 43 53
BRANCH 45 58
ATOM     58   C  SUS B   3      76.131  13.662  21.1700  0.00  0.00     0.000 C
ATOM     59   S  SUS B   3      76.871  16.096  20.8340  0.00  0.00     0.000 S
ATOM     60   O  SUS B   3      76.964  14.569  20.4280  0.00  0.00     0.000 O
ATOM     61   O  SUS B   3      77.656  16.214  22.0490  0.00  0.00     0.000 OA
ATOM     62   O  SUS B   3      77.505  16.714  19.7010  0.00  0.00     0.000 OA
ATOM     63   O  SUS B   3      75.484  16.368  20.9780  0.00  0.00     0.000 OA
ENDBRANCH 45 58
BRANCH 41 64
ATOM     64  O4  IDS B   4      76.263  10.119  18.6610  0.00  0.00     0.000 O
BRANCH 64 68
ATOM     65  C1  IDS B   4      74.278   8.156  16.3200  0.00  0.00     0.000 C
ATOM     66  C2  IDS B   4      75.810   8.119  16.2540  0.00  0.00     0.000 C
ATOM     67  C3  IDS B   4      76.474   9.484  16.3200  0.00  0.00     0.000 C
ATOM     68  C4  IDS B   4      75.813  10.414  17.3200  0.00  0.00     0.000 C
ATOM     69  C5  IDS B   4      74.293  10.298  17.1460  0.00  0.00     0.000 C
ATOM     70  O5  IDS B   4      73.888   8.955  17.4220  0.00  0.00     0.000 O
ATOM     71   O  IDS B   4      76.405  10.047  15.0260  0.00  0.00     0.000 O
ATOM     73  HD  IDS B   4      76.377   9.407  15.6090  0.00  0.00     0.000 HD
BRANCH 66 73
ATOM     73   O  IDS B   4      76.316   7.381  17.4190  0.00  0.00     0.000 O
ATOM     74   S  IDS B   4      76.979   5.927  17.1660  0.00  0.00     0.000 S
ATOM     75   O  IDS B   4      75.979   5.133  16.4850  0.00  0.00     0.000 OA
ATOM     76   O  IDS B   4      77.258   5.491  18.5110  0.00  0.00     0.000 OA
ATOM     77   O  IDS B   4      78.155   6.174  16.3660  0.00  0.00     0.000 OA
ENDBRANCH 66 73
BRANCH 69 78
ATOM     78   C  IDS B   4      73.490  11.331  17.9260  0.00  0.00     0.000 C
ATOM     79   O  IDS B   4      72.370  11.025  18.3310  0.00  0.00     0.000 OA
ATOM     80   O  IDS B   4      74.035  12.411  18.2190  0.00  0.00     0.000 OA
ENDBRANCH 69 78
BRANCH 65 81
ATOM     81  O4  SGN B   5      73.780   8.506  15.1010  0.00  0.00     0.000 O
BRANCH 81 85
ATOM     82  C1  SGN B   5      70.573   7.915  12.4560  0.00  0.00     0.000 C
ATOM     83  C2  SGN B   5      70.289   8.732  13.7250  0.00  0.00     0.000 C
ATOM     84  C3  SGN B   5      71.612   9.239  14.3160  0.00  0.00     0.000 C
ATOM     85  C4  SGN B   5      72.536   8.059  14.5600  0.00  0.00     0.000 C
ATOM     86  C5  SGN B   5      72.761   7.343  13.2300  0.00  0.00     0.000 C
ATOM     87  O5  SGN B   5      71.491   6.875  12.7370  0.00  0.00     0.000 O
ATOM     88   O  SGN B   5      71.364   9.942  15.5130  0.00  0.00     0.000 O
ATOM     90  HD  SGN B   5      71.529  10.304  14.7440  0.00  0.00     0.000 HD
BRANCH 83 92
ATOM     90   N  SGN B   5      68.967   8.694  14.3820  0.00  0.00     0.000 N
ATOM     92  HD  SGN B   5      69.046   8.766  15.2410  0.00  0.00     0.000 HD
ATOM     92   S  SGN B   5      67.783   9.551  13.7360  0.00  0.00     0.000 S
ATOM     93   O  SGN B   5      66.662   9.309  14.5940  0.00  0.00     0.000 OA
ATOM     94   O  SGN B   5      68.296  10.869  13.5870  0.00  0.00     0.000 OA
ATOM     95   O  SGN B   5      67.605   8.976  12.3470  0.00  0.00     0.000 OA
ENDBRANCH 83 92
BRANCH 86 96
ATOM     96   C  SGN B   5      73.680   6.142  13.3190  0.00  0.00     0.000 C
ATOM     97   O  SGN B   5      73.170   5.188  14.2530  0.00  0.00     0.000 O
ATOM     98   S  SGN B   5      73.059   3.676  13.7290  0.00  0.00     0.000 S
ATOM     99   O  SGN B   5      72.721   2.948  14.9280  0.00  0.00     0.000 OA
ATOM    100   O  SGN B   5      72.063   3.648  12.7190  0.00  0.00     0.000 OA
ATOM    101   O  SGN B   5      74.362   3.376  13.2330  0.00  0.00     0.000 OA
ENDBRANCH 86 96
BRANCH 82 102
ATOM    102  O4  IDS B   6      71.027   8.685  11.4270  0.00  0.00     0.000 O
BRANCH 102 106
ATOM    103  C1  IDS B   6      70.886  10.137   8.0910  0.00  0.00     0.000 C
ATOM    104  C2  IDS B   6      69.632  10.083   8.9780  0.00  0.00     0.000 C
ATOM    105  C3  IDS B   6      69.372   8.744   9.6420  0.00  0.00     0.000 C
ATOM    106  C4  IDS B   6      70.640   8.091  10.1620  0.00  0.00     0.000 C
ATOM    107  C5  IDS B   6      71.759   8.237   9.1260  0.00  0.00     0.000 C
ATOM    108  O5  IDS B   6      71.996   9.604   8.7870  0.00  0.00     0.000 O
ATOM    109   O  IDS B   6      68.721   7.905   8.7020  0.00  0.00     0.000 O
ATOM    111  HD  IDS B   6      68.941   8.241   7.9350  0.00  0.00     0.000 HD
BRANCH 104 111
ATOM    111   O  IDS B   6      69.786  11.041  10.0830  0.00  0.00     0.000 O
ATOM    112   S  IDS B   6      68.737  12.246  10.1870  0.00  0.00     0.000 S
ATOM    113   O  IDS B   6      68.865  12.952   8.9220  0.00  0.00     0.000 OA
ATOM    114   O  IDS B   6      67.406  11.682  10.4420  0.00  0.00     0.000 OA
ATOM    115   O  IDS B   6      69.304  12.953  11.3150  0.00  0.00     0.000 OA
ENDBRANCH 104 111
BRANCH 107 116
ATOM    116   C  IDS B   6      73.036   7.610   9.6720  0.00  0.00     0.000 C
ATOM    117   O  IDS B   6      73.045   6.411   9.7860  0.00  0.00     0.000 OA
ATOM    118   O  IDS B   6      73.995   8.296   9.9870  0.00  0.00     0.000 OA
ENDBRANCH 107 116
BRANCH 103 119
ATOM    119  O4  SGN B   7      70.469   9.604   6.9130  0.00  0.00     0.000 O
BRANCH 119 123
ATOM    120  C1  SGN B   7      71.680   9.882   2.9200  0.00  0.00     0.000 C
ATOM    121  C2  SGN B   7      72.259   8.730   3.7630  0.00  0.00     0.000 C
ATOM    122  C3  SGN B   7      71.432   8.528   5.0380  0.00  0.00     0.000 C
ATOM    123  C4  SGN B   7      71.318   9.844   5.7900  0.00  0.00     0.000 C
ATOM    124  C5  SGN B   7      70.738  10.926   4.8650  0.00  0.00     0.000 C
ATOM    125  O5  SGN B   7      71.548  11.083   3.6780  0.00  0.00     0.000 O
ATOM    126   O  SGN B   7      72.055   7.520   5.8430  0.00  0.00     0.000 O
ATOM    128  HD  SGN B   7      72.015   7.934   5.0830  0.00  0.00     0.000 HD
BRANCH 121 130
ATOM    128   N  SGN B   7      73.435   8.428   2.9420  0.00  0.00     0.000 N
ATOM    130  HD  SGN B   7      73.759   7.934   3.5760  0.00  0.00     0.000 HD
ATOM    130   S  SGN B   7      73.660   6.987   2.2600  0.00  0.00     0.000 S
ATOM    131   O  SGN B   7      72.440   6.701   1.5840  0.00  0.00     0.000 OA
ATOM    132   O  SGN B   7      74.885   7.017   1.5460  0.00  0.00     0.000 OA
ATOM    133   O  SGN B   7      73.962   6.119   3.5280  0.00  0.00     0.000 OA
ENDBRANCH 121 130
BRANCH 124 134
ATOM    134   C  SGN B   7      70.694  12.293   5.4820  0.00  0.00     0.000 C
ATOM    135   O  SGN B   7      72.042  12.763   5.6510  0.00  0.00     0.000 O
ATOM    136   S  SGN B   7      72.211  14.245   6.1440  0.00  0.00     0.000 S
ATOM    137   O  SGN B   7      73.626  14.451   6.3370  0.00  0.00     0.000 OA
ATOM    138   O  SGN B   7      71.456  14.322   7.3740  0.00  0.00     0.000 OA
ATOM    139   O  SGN B   7      71.646  15.007   5.0410  0.00  0.00     0.000 OA
ENDBRANCH 124 134
BRANCH 120 140
ATOM    140  O4  IDS B   8      70.512   9.918   2.2680  0.00  0.00     0.000 O
BRANCH 140 144
ATOM    141  C1  IDS B   8      67.154   9.583   1.0160  0.00  0.00     0.000 C
ATOM    142  C2  IDS B   8      68.094   8.348   1.1240  0.00  0.00     0.000 C
ATOM    143  C3  IDS B   8      69.488   8.597   0.5200  0.00  0.00     0.000 C
ATOM    144  C4  IDS B   8      70.047   9.963   0.9130  0.00  0.00     0.000 C
ATOM    145  C5  IDS B   8      68.964  11.042   0.7620  0.00  0.00     0.000 C
ATOM    146  O5  IDS B   8      67.805  10.737   1.5330  0.00  0.00     0.000 O
BRANCH 142 147
ATOM    147   O  IDS B   8      68.291   7.999   2.5560  0.00  0.00     0.000 O
ATOM    148   S  IDS B   8      68.264   6.455   3.0510  0.00  0.00     0.000 S
ATOM    149   O  IDS B   8      67.658   5.668   2.0010  0.00  0.00     0.000 OA
ATOM    150   O  IDS B   8      69.651   6.101   3.2890  0.00  0.00     0.000 OA
ATOM    151   O  IDS B   8      67.462   6.455   4.2590  0.00  0.00     0.000 OA
ENDBRANCH 142 147
BRANCH 145 152
ATOM    152   C  IDS B   8      69.430  12.406   1.2320  0.00  0.00     0.000 C
ATOM    153   O  IDS B   8      70.336  12.974   0.6330  0.00  0.00     0.000 OA
ATOM    154   O  IDS B   8      68.886  12.931   2.1860  0.00  0.00     0.000 OA
ENDBRANCH 145 152
ENDBRANCH 140 144
ENDBRANCH 120 140
ENDBRANCH 119 123
ENDBRANCH 103 119
ENDBRANCH 102 106
ENDBRANCH 82 102
ENDBRANCH 81 85
ENDBRANCH 65 81
ENDBRANCH 64 68
ENDBRANCH 41 64
ENDBRANCH 40 44
ENDBRANCH 24 40
ENDBRANCH 23 27
ENDBRANCH 1 23
TORSDOF 31
ENDMDL
MODEL 57
REMARK VINA RESULT:      -1.3     49.666     58.512
ROOT
ATOM      1  C1  SGN B   1      85.485  14.859  29.5980  0.00  0.00     0.000 C
ATOM      2  C2  SGN B   1      86.480  15.770  30.3360  0.00  0.00     0.000 C
ATOM      3  C3  SGN B   1      87.918  15.283  30.1280  0.00  0.00     0.000 C
ATOM      4  C4  SGN B   1      88.048  13.826  30.5610  0.00  0.00     0.000 C
ATOM      5  C5  SGN B   1      86.942  13.008  29.8990  0.00  0.00     0.000 C
ATOM      6  O5  SGN B   1      85.661  13.589  30.2110  0.00  0.00     0.000 O
ATOM      7   O  SGN B   1      88.832  16.101  30.8490  0.00  0.00     0.000 O
ATOM      9  HD  SGN B   1      88.341  15.782  31.4870  0.00  0.00     0.000 HD
ATOM      9   O  SGN B   1      89.318  13.333  30.1760  0.00  0.00     0.000 O
ATOM     11  HD  SGN B   1      88.827  13.013  30.8140  0.00  0.00     0.000 HD
ENDROOT
BRANCH 2 13
ATOM     11   N  SGN B   1      86.392  17.206  30.0120  0.00  0.00     0.000 N
ATOM     13  HD  SGN B   1      85.856  16.853  30.5930  0.00  0.00     0.000 HD
ATOM     13   S  SGN B   1      85.016  18.031  30.1320  0.00  0.00     0.000 S
ATOM     14   O  SGN B   1      83.990  17.197  30.6230  0.00  0.00     0.000 OA
ATOM     15   O  SGN B   1      85.287  19.267  30.7870  0.00  0.00     0.000 OA
ATOM     16   O  SGN B   1      84.813  18.348  28.6180  0.00  0.00     0.000 OA
ENDBRANCH 2 13
BRANCH 5 17
ATOM     17   C  SGN B   1      86.899  11.565  30.3370  0.00  0.00     0.000 C
ATOM     18   O  SGN B   1      87.376  10.695  29.2910  0.00  0.00     0.000 O
ATOM     19   S  SGN B   1      86.500   9.386  29.0150  0.00  0.00     0.000 S
ATOM     20   O  SGN B   1      87.298   8.584  28.1120  0.00  0.00     0.000 OA
ATOM     21   O  SGN B   1      86.332   8.792  30.3210  0.00  0.00     0.000 OA
ATOM     22   O  SGN B   1      85.271   9.871  28.4260  0.00  0.00     0.000 OA
ENDBRANCH 5 17
BRANCH 1 23
ATOM     23  O4  IDS B   2      84.873  14.731  28.3850  0.00  0.00     0.000 O
BRANCH 23 27
ATOM     24  C1  IDS B   2      82.041  14.420  25.3670  0.00  0.00     0.000 C
ATOM     25  C2  IDS B   2      82.973  15.650  25.2840  0.00  0.00     0.000 C
ATOM     26  C3  IDS B   2      84.147  15.511  26.2490  0.00  0.00     0.000 C
ATOM     27  C4  IDS B   2      83.723  15.253  27.6880  0.00  0.00     0.000 C
ATOM     28  C5  IDS B   2      82.488  14.331  27.7160  0.00  0.00     0.000 C
ATOM     29  O5  IDS B   2      82.367  13.606  26.5010  0.00  0.00     0.000 O
ATOM     30   O  IDS B   2      84.909  16.712  26.2340  0.00  0.00     0.000 O
ATOM     32  HD  IDS B   2      84.557  17.347  26.7070  0.00  0.00     0.000 HD
BRANCH 25 32
ATOM     32   O  IDS B   2      83.531  15.840  23.9220  0.00  0.00     0.000 O
ATOM     33   S  IDS B   2      83.233  17.203  23.0410  0.00  0.00     0.000 S
ATOM     34   O  IDS B   2      83.742  16.939  21.7040  0.00  0.00     0.000 OA
ATOM     35   O  IDS B   2      81.801  17.464  23.0230  0.00  0.00     0.000 OA
ATOM     36   O  IDS B   2      83.978  18.257  23.6890  0.00  0.00     0.000 OA
ENDBRANCH 25 32
BRANCH 28 37
ATOM     37   C  IDS B   2      82.357  13.337  28.8890  0.00  0.00     0.000 C
ATOM     38   O  IDS B   2      81.957  13.859  29.9020  0.00  0.00     0.000 OA
ATOM     39   O  IDS B   2      82.558  12.098  28.8540  0.00  0.00     0.000 OA
ENDBRANCH 28 37
BRANCH 24 40
ATOM     40  O4  SUS B   3      80.907  14.385  24.6370  0.00  0.00     0.000 O
BRANCH 40 44
ATOM     41  C1  SUS B   3      78.940  11.157  22.8310  0.00  0.00     0.000 C
ATOM     42  C2  SUS B   3      78.916  11.225  24.3710  0.00  0.00     0.000 C
ATOM     43  C3  SUS B   3      79.233  12.651  24.8170  0.00  0.00     0.000 C
ATOM     44  C4  SUS B   3      80.557  13.076  24.2000  0.00  0.00     0.000 C
ATOM     45  C5  SUS B   3      80.424  13.055  22.6910  0.00  0.00     0.000 C
ATOM     46  O5  SUS B   3      80.146  11.701  22.2820  0.00  0.00     0.000 O
BRANCH 42 49
ATOM     47   N  SUS B   3      79.042  10.253  25.4710  0.00  0.00     0.000 N
ATOM     49  HD  SUS B   3      79.763   9.774  25.4820  0.00  0.00     0.000 HD
ATOM     49   S  SUS B   3      77.785   9.265  25.5690  0.00  0.00     0.000 S
ATOM     50   O  SUS B   3      77.617   8.580  24.3480  0.00  0.00     0.000 OA
ATOM     51   O  SUS B   3      78.381   8.323  26.6460  0.00  0.00     0.000 OA
ATOM     52   O  SUS B   3      76.677   9.968  26.0800  0.00  0.00     0.000 OA
ENDBRANCH 42 49
BRANCH 43 53
ATOM     53   O  SUS B   3      79.341  12.655  26.2880  0.00  0.00     0.000 O
ATOM     54   S  SUS B   3      78.315  13.639  27.1130  0.00  0.00     0.000 S
ATOM     55   O  SUS B   3      76.981  13.064  27.0100  0.00  0.00     0.000 OA
ATOM     56   O  SUS B   3      78.846  13.648  28.4640  0.00  0.00     0.000 OA
ATOM     57   O  SUS B   3      78.381  14.949  26.4580  0.00  0.00     0.000 OA
ENDBRANCH 43 53
BRANCH 45 58
ATOM     58   C  SUS B   3      81.673  13.564  22.0050  0.00  0.00     0.000 C
ATOM     59   S  SUS B   3      83.986  12.819  21.1820  0.00  0.00     0.000 S
ATOM     60   O  SUS B   3      82.537  12.455  21.7060  0.00  0.00     0.000 O
ATOM     61   O  SUS B   3      84.731  13.207  22.3650  0.00  0.00     0.000 OA
ATOM     62   O  SUS B   3      84.406  11.549  20.6530  0.00  0.00     0.000 OA
ATOM     63   O  SUS B   3      83.796  13.845  20.2200  0.00  0.00     0.000 OA
ENDBRANCH 45 58
BRANCH 41 64
ATOM     64  O4  IDS B   4      77.793  11.624  22.2380  0.00  0.00     0.000 O
BRANCH 64 68
ATOM     65  C1  IDS B   4      74.805  11.485  20.1580  0.00  0.00     0.000 C
ATOM     66  C2  IDS B   4      75.170  10.303  21.0650  0.00  0.00     0.000 C
ATOM     67  C3  IDS B   4      76.629   9.885  20.9940  0.00  0.00     0.000 C
ATOM     68  C4  IDS B   4      77.579  11.066  20.9230  0.00  0.00     0.000 C
ATOM     69  C5  IDS B   4      77.011  12.075  19.9160  0.00  0.00     0.000 C
ATOM     70  O5  IDS B   4      75.736  12.530  20.3740  0.00  0.00     0.000 O
ATOM     71   O  IDS B   4      76.779   9.081  19.8410  0.00  0.00     0.000 O
ATOM     73  HD  IDS B   4      76.339   9.478  20.4720  0.00  0.00     0.000 HD
BRANCH 66 73
ATOM     73   O  IDS B   4      74.943  10.692  22.4630  0.00  0.00     0.000 O
ATOM     74   S  IDS B   4      73.895   9.818  23.3320  0.00  0.00     0.000 S
ATOM     75   O  IDS B   4      72.641   9.844  22.6100  0.00  0.00     0.000 OA
ATOM     76   O  IDS B   4      73.869  10.541  24.5790  0.00  0.00     0.000 OA
ATOM     77   O  IDS B   4      74.475   8.499  23.4220  0.00  0.00     0.000 OA
ENDBRANCH 66 73
BRANCH 69 78
ATOM     78   C  IDS B   4      77.958  13.216  19.5670  0.00  0.00     0.000 C
ATOM     79   O  IDS B   4      78.048  14.167  20.3420  0.00  0.00     0.000 OA
ATOM     80   O  IDS B   4      78.686  13.100  18.5640  0.00  0.00     0.000 OA
ENDBRANCH 69 78
BRANCH 65 81
ATOM     81  O4  SGN B   5      74.663  11.046  18.8760  0.00  0.00     0.000 O
BRANCH 81 85
ATOM     82  C1  SGN B   5      72.376  11.507  15.3840  0.00  0.00     0.000 C
ATOM     83  C2  SGN B   5      73.446  12.573  15.6630  0.00  0.00     0.000 C
ATOM     84  C3  SGN B   5      74.465  12.026  16.6730  0.00  0.00     0.000 C
ATOM     85  C4  SGN B   5      73.735  11.570  17.9240  0.00  0.00     0.000 C
ATOM     86  C5  SGN B   5      72.721  10.501  17.5250  0.00  0.00     0.000 C
ATOM     87  O5  SGN B   5      71.784  11.077  16.5950  0.00  0.00     0.000 O
ATOM     88   O  SGN B   5      75.419  13.019  16.9770  0.00  0.00     0.000 O
ATOM     90  HD  SGN B   5      75.542  12.353  16.4380  0.00  0.00     0.000 HD
BRANCH 83 92
ATOM     90   N  SGN B   5      73.150  13.951  15.2250  0.00  0.00     0.000 N
ATOM     92  HD  SGN B   5      73.402  14.527  15.8210  0.00  0.00     0.000 HD
ATOM     92   S  SGN B   5      73.488  14.348  13.7150  0.00  0.00     0.000 S
ATOM     93   O  SGN B   5      73.098  15.722  13.6130  0.00  0.00     0.000 OA
ATOM     94   O  SGN B   5      74.846  13.975  13.5120  0.00  0.00     0.000 OA
ATOM     95   O  SGN B   5      72.636  13.422  12.8740  0.00  0.00     0.000 OA
ENDBRANCH 83 92
BRANCH 86 96
ATOM     96   C  SGN B   5      71.921   9.940  18.6830  0.00  0.00     0.000 C
ATOM     97   O  SGN B   5      71.609  10.972  19.6230  0.00  0.00     0.000 O
ATOM     98   S  SGN B   5      70.069  11.090  20.0550  0.00  0.00     0.000 S
ATOM     99   O  SGN B   5      70.114  12.051  21.1310  0.00  0.00     0.000 OA
ATOM    100   O  SGN B   5      69.337  11.511  18.9150  0.00  0.00     0.000 OA
ATOM    101   O  SGN B   5      69.720   9.775  20.4860  0.00  0.00     0.000 OA
ENDBRANCH 86 96
BRANCH 82 102
ATOM    102  O4  IDS B   6      72.866  10.440  14.6910  0.00  0.00     0.000 O
BRANCH 102 106
ATOM    103  C1  IDS B   6      72.660   8.443  11.6540  0.00  0.00     0.000 C
ATOM    104  C2  IDS B   6      72.163   9.896  11.6730  0.00  0.00     0.000 C
ATOM    105  C3  IDS B   6      71.280  10.258  12.8520  0.00  0.00     0.000 C
ATOM    106  C4  IDS B   6      71.769   9.656  14.1570  0.00  0.00     0.000 C
ATOM    107  C5  IDS B   6      72.199   8.204  13.9280  0.00  0.00     0.000 C
ATOM    108  O5  IDS B   6      73.200   8.098  12.9150  0.00  0.00     0.000 O
ATOM    109   O  IDS B   6      69.959   9.828  12.5630  0.00  0.00     0.000 O
ATOM    111  HD  IDS B   6      70.068   9.203  11.9730  0.00  0.00     0.000 HD
BRANCH 104 111
ATOM    111   O  IDS B   6      73.321  10.798  11.7650  0.00  0.00     0.000 O
ATOM    112   S  IDS B   6      74.141  11.109  10.4260  0.00  0.00     0.000 S
ATOM    113   O  IDS B   6      74.587   9.805   9.9590  0.00  0.00     0.000 OA
ATOM    114   O  IDS B   6      73.259  11.823   9.4960  0.00  0.00     0.000 OA
ATOM    115   O  IDS B   6      75.197  11.926  10.9820  0.00  0.00     0.000 OA
ENDBRANCH 104 111
BRANCH 107 116
ATOM    116   C  IDS B   6      72.722   7.621  15.2350  0.00  0.00     0.000 C
ATOM    117   O  IDS B   6      71.935   7.537  16.1440  0.00  0.00     0.000 OA
ATOM    118   O  IDS B   6      73.884   7.266  15.3520  0.00  0.00     0.000 OA
ENDBRANCH 107 116
BRANCH 103 119
ATOM    119  O4  SGN B   7      71.619   7.754  11.1190  0.00  0.00     0.000 O
BRANCH 119 123
ATOM    120  C1  SGN B   7      71.134   4.414   8.6490  0.00  0.00     0.000 C
ATOM    121  C2  SGN B   7      71.624   4.171  10.0890  0.00  0.00     0.000 C
ATOM    122  C3  SGN B   7      71.364   5.407  10.9610  0.00  0.00     0.000 C
ATOM    123  C4  SGN B   7      71.971   6.635  10.3030  0.00  0.00     0.000 C
ATOM    124  C5  SGN B   7      71.426   6.786   8.8740  0.00  0.00     0.000 C
ATOM    125  O5  SGN B   7      71.693   5.602   8.0890  0.00  0.00     0.000 O
ATOM    126   O  SGN B   7      71.920   5.183  12.2620  0.00  0.00     0.000 O
ATOM    128  HD  SGN B   7      71.704   4.859  11.4880  0.00  0.00     0.000 HD
BRANCH 121 130
ATOM    128   N  SGN B   7      72.214   2.844   9.8990  0.00  0.00     0.000 N
ATOM    130  HD  SGN B   7      72.599   2.897  10.6720  0.00  0.00     0.000 HD
ATOM    130   S  SGN B   7      71.693   1.549  10.7010  0.00  0.00     0.000 S
ATOM    131   O  SGN B   7      70.281   1.544  10.5240  0.00  0.00     0.000 OA
ATOM    132   O  SGN B   7      72.470   0.432  10.2990  0.00  0.00     0.000 OA
ATOM    133   O  SGN B   7      72.204   1.888  12.1430  0.00  0.00     0.000 OA
ENDBRANCH 121 130
BRANCH 124 134
ATOM    134   C  SGN B   7      72.053   7.907   8.1000  0.00  0.00     0.000 C
ATOM    135   O  SGN B   7      72.980   7.348   7.1530  0.00  0.00     0.000 O
ATOM    136   S  SGN B   7      73.632   8.352   6.1350  0.00  0.00     0.000 S
ATOM    137   O  SGN B   7      74.588   7.589   5.3690  0.00  0.00     0.000 OA
ATOM    138   O  SGN B   7      74.248   9.372   6.9520  0.00  0.00     0.000 OA
ATOM    139   O  SGN B   7      72.484   8.807   5.3660  0.00  0.00     0.000 OA
ENDBRANCH 124 134
BRANCH 120 140
ATOM    140  O4  IDS B   8      69.874   4.555   8.2210  0.00  0.00     0.000 O
BRANCH 140 144
ATOM    141  C1  IDS B   8      67.015   4.773   6.0430  0.00  0.00     0.000 C
ATOM    142  C2  IDS B   8      67.097   5.622   7.3430  0.00  0.00     0.000 C
ATOM    143  C3  IDS B   8      67.495   4.796   8.5800  0.00  0.00     0.000 C
ATOM    144  C4  IDS B   8      68.640   3.830   8.2800  0.00  0.00     0.000 C
ATOM    145  C5  IDS B   8      68.387   3.107   6.9480  0.00  0.00     0.000 C
ATOM    146  O5  IDS B   8      68.215   4.028   5.8730  0.00  0.00     0.000 O
BRANCH 142 147
ATOM    147   O  IDS B   8      68.122   6.686   7.1770  0.00  0.00     0.000 O
ATOM    148   S  IDS B   8      67.762   8.243   7.4530  0.00  0.00     0.000 S
ATOM    149   O  IDS B   8      66.322   8.365   7.4650  0.00  0.00     0.000 OA
ATOM    150   O  IDS B   8      68.363   8.558   8.7360  0.00  0.00     0.000 OA
ATOM    151   O  IDS B   8      68.359   8.974   6.3510  0.00  0.00     0.000 OA
ENDBRANCH 142 147
BRANCH 145 152
ATOM    152   C  IDS B   8      69.538   2.207   6.5460  0.00  0.00     0.000 C
ATOM    153   O  IDS B   8      70.211   2.490   5.5620  0.00  0.00     0.000 OA
ATOM    154   O  IDS B   8      69.794   1.222   7.2160  0.00  0.00     0.000 OA
ENDBRANCH 145 152
ENDBRANCH 140 144
ENDBRANCH 120 140
ENDBRANCH 119 123
ENDBRANCH 103 119
ENDBRANCH 102 106
ENDBRANCH 82 102
ENDBRANCH 81 85
ENDBRANCH 65 81
ENDBRANCH 64 68
ENDBRANCH 41 64
ENDBRANCH 40 44
ENDBRANCH 24 40
ENDBRANCH 23 27
ENDBRANCH 1 23
TORSDOF 31
ENDMDL
MODEL 58
REMARK VINA RESULT:      -1.3    100.275    107.258
ROOT
ATOM      1  C1  SGN B   1      65.433  76.935  88.0580  0.00  0.00     0.000 C
ATOM      2  C2  SGN B   1      64.781  78.311  88.2710  0.00  0.00     0.000 C
ATOM      3  C3  SGN B   1      65.842  79.416  88.3000  0.00  0.00     0.000 C
ATOM      4  C4  SGN B   1      66.892  79.111  89.3630  0.00  0.00     0.000 C
ATOM      5  C5  SGN B   1      67.392  77.680  89.1750  0.00  0.00     0.000 C
ATOM      6  O5  SGN B   1      66.273  76.773  89.1930  0.00  0.00     0.000 O
ATOM      7   O  SGN B   1      65.240  80.682  88.5420  0.00  0.00     0.000 O
ATOM      9  HD  SGN B   1      65.030  80.247  89.2610  0.00  0.00     0.000 HD
ATOM      9   O  SGN B   1      67.966  80.024  89.2400  0.00  0.00     0.000 O
ATOM     11  HD  SGN B   1      67.757  79.589  89.9590  0.00  0.00     0.000 HD
ENDROOT
BRANCH 2 13
ATOM     11   N  SGN B   1      63.344  77.986  88.3550  0.00  0.00     0.000 N
ATOM     13  HD  SGN B   1      63.821  77.702  87.6910  0.00  0.00     0.000 HD
ATOM     13   S  SGN B   1      62.445  77.722  87.0470  0.00  0.00     0.000 S
ATOM     14   O  SGN B   1      63.242  77.800  85.8860  0.00  0.00     0.000 OA
ATOM     15   O  SGN B   1      61.649  76.563  87.2750  0.00  0.00     0.000 OA
ATOM     16   O  SGN B   1      61.502  78.959  87.1720  0.00  0.00     0.000 OA
ENDBRANCH 2 13
BRANCH 5 17
ATOM     17   C  SGN B   1      68.358  77.223  90.2390  0.00  0.00     0.000 C
ATOM     18   O  SGN B   1      67.938  77.671  91.5430  0.00  0.00     0.000 O
ATOM     19   S  SGN B   1      69.081  78.297  92.4710  0.00  0.00     0.000 S
ATOM     20   O  SGN B   1      68.468  78.443  93.7740  0.00  0.00     0.000 OA
ATOM     21   O  SGN B   1      70.140  77.315  92.4370  0.00  0.00     0.000 OA
ATOM     22   O  SGN B   1      69.426  79.556  91.8480  0.00  0.00     0.000 OA
ENDBRANCH 5 17
BRANCH 1 23
ATOM     23  O4  IDS B   2      65.806  76.091  87.0540  0.00  0.00     0.000 O
BRANCH 23 27
ATOM     24  C1  IDS B   2      69.551  76.987  85.5030  0.00  0.00     0.000 C
ATOM     25  C2  IDS B   2      68.353  77.631  84.7690  0.00  0.00     0.000 C
ATOM     26  C3  IDS B   2      67.071  77.484  85.5850  0.00  0.00     0.000 C
ATOM     27  C4  IDS B   2      66.757  76.045  85.9690  0.00  0.00     0.000 C
ATOM     28  C5  IDS B   2      68.061  75.290  86.2950  0.00  0.00     0.000 C
ATOM     29  O5  IDS B   2      69.106  76.197  86.6130  0.00  0.00     0.000 O
ATOM     30   O  IDS B   2      65.974  77.975  84.8240  0.00  0.00     0.000 O
ATOM     32  HD  IDS B   2      65.694  77.414  84.2270  0.00  0.00     0.000 HD
BRANCH 25 32
ATOM     32   O  IDS B   2      68.561  79.078  84.5170  0.00  0.00     0.000 O
ATOM     33   S  IDS B   2      68.625  79.695  82.9880  0.00  0.00     0.000 S
ATOM     34   O  IDS B   2      69.060  81.076  83.1270  0.00  0.00     0.000 OA
ATOM     35   O  IDS B   2      69.564  78.919  82.1910  0.00  0.00     0.000 OA
ATOM     36   O  IDS B   2      67.275  79.617  82.4790  0.00  0.00     0.000 OA
ENDBRANCH 25 32
BRANCH 28 37
ATOM     37   C  IDS B   2      68.011  74.204  87.3900  0.00  0.00     0.000 C
ATOM     38   O  IDS B   2      68.805  74.400  88.2800  0.00  0.00     0.000 OA
ATOM     39   O  IDS B   2      67.216  73.235  87.4570  0.00  0.00     0.000 OA
ENDBRANCH 28 37
BRANCH 24 40
ATOM     40  O4  SUS B   3      70.763  76.954  84.9110  0.00  0.00     0.000 O
BRANCH 40 44
ATOM     41  C1  SUS B   3      74.600  77.231  86.5680  0.00  0.00     0.000 C
ATOM     42  C2  SUS B   3      73.801  75.944  86.8530  0.00  0.00     0.000 C
ATOM     43  C3  SUS B   3      72.686  75.805  85.8190  0.00  0.00     0.000 C
ATOM     44  C4  SUS B   3      71.844  77.071  85.8300  0.00  0.00     0.000 C
ATOM     45  C5  SUS B   3      72.720  78.246  85.4470  0.00  0.00     0.000 C
ATOM     46  O5  SUS B   3      73.754  78.380  86.4420  0.00  0.00     0.000 O
BRANCH 42 49
ATOM     47   N  SUS B   3      74.521  74.661  86.9180  0.00  0.00     0.000 N
ATOM     49  HD  SUS B   3      74.136  73.982  86.5430  0.00  0.00     0.000 HD
ATOM     49   S  SUS B   3      74.914  74.248  88.4150  0.00  0.00     0.000 S
ATOM     50   O  SUS B   3      73.755  74.181  89.2140  0.00  0.00     0.000 OA
ATOM     51   O  SUS B   3      75.430  72.825  88.0790  0.00  0.00     0.000 OA
ATOM     52   O  SUS B   3      75.969  75.067  88.8640  0.00  0.00     0.000 OA
ENDBRANCH 42 49
BRANCH 43 53
ATOM     53   O  SUS B   3      71.855  74.646  86.1990  0.00  0.00     0.000 O
ATOM     54   S  SUS B   3      71.752  73.411  85.1200  0.00  0.00     0.000 S
ATOM     55   O  SUS B   3      73.043  72.737  85.1050  0.00  0.00     0.000 OA
ATOM     56   O  SUS B   3      70.668  72.589  85.6280  0.00  0.00     0.000 OA
ATOM     57   O  SUS B   3      71.456  74.019  83.8200  0.00  0.00     0.000 OA
ENDBRANCH 43 53
BRANCH 45 58
ATOM     58   C  SUS B   3      71.929  79.531  85.3380  0.00  0.00     0.000 C
ATOM     59   S  SUS B   3      70.973  81.455  86.7430  0.00  0.00     0.000 S
ATOM     60   O  SUS B   3      71.932  80.202  86.6100  0.00  0.00     0.000 O
ATOM     61   O  SUS B   3      69.646  80.900  86.9280  0.00  0.00     0.000 OA
ATOM     62   O  SUS B   3      71.493  82.064  87.9380  0.00  0.00     0.000 OA
ATOM     63   O  SUS B   3      71.159  82.203  85.5500  0.00  0.00     0.000 OA
ENDBRANCH 45 58
BRANCH 41 64
ATOM     64  O4  IDS B   4      75.520  77.098  85.5570  0.00  0.00     0.000 O
BRANCH 64 68
ATOM     65  C1  IDS B   4      78.897  76.766  84.2280  0.00  0.00     0.000 C
ATOM     66  C2  IDS B   4      78.538  76.154  85.5880  0.00  0.00     0.000 C
ATOM     67  C3  IDS B   4      77.762  77.080  86.5090  0.00  0.00     0.000 C
ATOM     68  C4  IDS B   4      76.708  77.891  85.7770  0.00  0.00     0.000 C
ATOM     69  C5  IDS B   4      77.333  78.428  84.4830  0.00  0.00     0.000 C
ATOM     70  O5  IDS B   4      77.728  77.328  83.6590  0.00  0.00     0.000 O
ATOM     71   O  IDS B   4      78.696  77.949  87.1150  0.00  0.00     0.000 O
ATOM     73  HD  IDS B   4      78.442  77.240  86.6870  0.00  0.00     0.000 HD
BRANCH 66 73
ATOM     73   O  IDS B   4      77.662  74.995  85.3690  0.00  0.00     0.000 O
ATOM     74   S  IDS B   4      78.253  73.525  85.6940  0.00  0.00     0.000 S
ATOM     75   O  IDS B   4      79.455  73.382  84.9000  0.00  0.00     0.000 OA
ATOM     76   O  IDS B   4      77.170  72.671  85.2770  0.00  0.00     0.000 OA
ATOM     77   O  IDS B   4      78.503  73.515  87.1160  0.00  0.00     0.000 OA
ENDBRANCH 66 73
BRANCH 69 78
ATOM     78   C  IDS B   4      76.472  79.443  83.7420  0.00  0.00     0.000 C
ATOM     79   O  IDS B   4      76.702  79.656  82.5530  0.00  0.00     0.000 OA
ATOM     80   O  IDS B   4      75.499  79.944  84.3350  0.00  0.00     0.000 OA
ENDBRANCH 69 78
BRANCH 65 81
ATOM     81  O4  SGN B   5      79.969  77.594  84.3730  0.00  0.00     0.000 O
BRANCH 81 85
ATOM     82  C1  SGN B   5      83.476  78.941  82.4970  0.00  0.00     0.000 C
ATOM     83  C2  SGN B   5      82.145  79.500  81.9720  0.00  0.00     0.000 C
ATOM     84  C3  SGN B   5      81.049  79.288  83.0250  0.00  0.00     0.000 C
ATOM     85  C4  SGN B   5      80.978  77.815  83.3840  0.00  0.00     0.000 C
ATOM     86  C5  SGN B   5      82.343  77.384  83.9130  0.00  0.00     0.000 C
ATOM     87  O5  SGN B   5      83.324  77.587  82.8780  0.00  0.00     0.000 O
ATOM     88   O  SGN B   5      79.811  79.747  82.5260  0.00  0.00     0.000 O
ATOM     90  HD  SGN B   5      80.315  80.173  83.0870  0.00  0.00     0.000 HD
BRANCH 83 92
ATOM     90   N  SGN B   5      82.874  79.820  80.7290  0.00  0.00     0.000 N
ATOM     92  HD  SGN B   5      82.884  79.141  80.1910  0.00  0.00     0.000 HD
ATOM     92   S  SGN B   5      82.590  81.230  80.0320  0.00  0.00     0.000 S
ATOM     93   O  SGN B   5      83.429  81.228  78.8720  0.00  0.00     0.000 OA
ATOM     94   O  SGN B   5      81.176  81.312  79.8900  0.00  0.00     0.000 OA
ATOM     95   O  SGN B   5      83.000  82.258  81.0640  0.00  0.00     0.000 OA
ENDBRANCH 83 92
BRANCH 86 96
ATOM     96   C  SGN B   5      82.418  75.928  84.3260  0.00  0.00     0.000 C
ATOM     97   O  SGN B   5      81.874  75.088  83.3050  0.00  0.00     0.000 O
ATOM     98   S  SGN B   5      82.791  73.859  82.8390  0.00  0.00     0.000 S
ATOM     99   O  SGN B   5      81.906  73.108  81.9810  0.00  0.00     0.000 OA
ATOM    100   O  SGN B   5      83.929  74.399  82.1870  0.00  0.00     0.000 OA
ATOM    101   O  SGN B   5      83.115  73.178  84.0500  0.00  0.00     0.000 OA
ENDBRANCH 86 96
BRANCH 82 102
ATOM    102  O4  IDS B   6      83.980  79.672  83.5320  0.00  0.00     0.000 O
BRANCH 102 106
ATOM    103  C1  IDS B   6      86.359  81.775  85.3140  0.00  0.00     0.000 C
ATOM    104  C2  IDS B   6      85.795  82.207  83.9510  0.00  0.00     0.000 C
ATOM    105  C3  IDS B   6      85.814  81.134  82.8780  0.00  0.00     0.000 C
ATOM    106  C4  IDS B   6      85.422  79.767  83.4100  0.00  0.00     0.000 C
ATOM    107  C5  IDS B   6      86.100  79.523  84.7610  0.00  0.00     0.000 C
ATOM    108  O5  IDS B   6      85.784  80.544  85.7080  0.00  0.00     0.000 O
ATOM    109   O  IDS B   6      87.113  81.101  82.3110  0.00  0.00     0.000 O
ATOM    111  HD  IDS B   6      87.618  81.444  82.9250  0.00  0.00     0.000 HD
BRANCH 104 111
ATOM    111   O  IDS B   6      84.379  82.571  84.1110  0.00  0.00     0.000 O
ATOM    112   S  IDS B   6      83.997  84.125  84.1180  0.00  0.00     0.000 S
ATOM    113   O  IDS B   6      84.761  84.685  85.2210  0.00  0.00     0.000 OA
ATOM    114   O  IDS B   6      84.318  84.688  82.8010  0.00  0.00     0.000 OA
ATOM    115   O  IDS B   6      82.578  84.016  84.3820  0.00  0.00     0.000 OA
ENDBRANCH 104 111
BRANCH 107 116
ATOM    116   C  IDS B   6      85.672  78.165  85.3020  0.00  0.00     0.000 C
ATOM    117   O  IDS B   6      86.069  77.195  84.7080  0.00  0.00     0.000 OA
ATOM    118   O  IDS B   6      84.953  78.070  86.2840  0.00  0.00     0.000 OA
ENDBRANCH 107 116
BRANCH 103 119
ATOM    119  O4  SGN B   7      87.701  81.912  85.1640  0.00  0.00     0.000 O
BRANCH 119 123
ATOM    120  C1  SGN B   7      90.926  83.059  87.5670  0.00  0.00     0.000 C
ATOM    121  C2  SGN B   7      90.311  81.669  87.8140  0.00  0.00     0.000 C
ATOM    122  C3  SGN B   7      89.440  81.246  86.6240  0.00  0.00     0.000 C
ATOM    123  C4  SGN B   7      88.415  82.329  86.3280  0.00  0.00     0.000 C
ATOM    124  C5  SGN B   7      89.125  83.674  86.1040  0.00  0.00     0.000 C
ATOM    125  O5  SGN B   7      89.932  84.032  87.2480  0.00  0.00     0.000 O
ATOM    126   O  SGN B   7      88.808  79.998  86.9290  0.00  0.00     0.000 O
ATOM    128  HD  SGN B   7      89.397  80.595  87.1420  0.00  0.00     0.000 HD
BRANCH 121 130
ATOM    128   N  SGN B   7      91.008  81.559  89.0980  0.00  0.00     0.000 N
ATOM    130  HD  SGN B   7      90.381  81.044  89.4030  0.00  0.00     0.000 HD
ATOM    130   S  SGN B   7      91.770  80.215  89.5510  0.00  0.00     0.000 S
ATOM    131   O  SGN B   7      92.605  79.873  88.4500  0.00  0.00     0.000 OA
ATOM    132   O  SGN B   7      92.330  80.431  90.8360  0.00  0.00     0.000 OA
ATOM    133   O  SGN B   7      90.547  79.270  89.8050  0.00  0.00     0.000 OA
ENDBRANCH 121 130
BRANCH 124 134
ATOM    134   C  SGN B   7      88.189  84.831  85.9180  0.00  0.00     0.000 C
ATOM    135   O  SGN B   7      88.864  85.849  85.1600  0.00  0.00     0.000 O
ATOM    136   S  SGN B   7      88.000  87.086  84.7240  0.00  0.00     0.000 S
ATOM    137   O  SGN B   7      88.905  88.007  84.0780  0.00  0.00     0.000 OA
ATOM    138   O  SGN B   7      87.444  87.610  85.9510  0.00  0.00     0.000 OA
ATOM    139   O  SGN B   7      87.024  86.487  83.8280  0.00  0.00     0.000 OA
ENDBRANCH 124 134
BRANCH 120 140
ATOM    140  O4  IDS B   8      91.850  83.401  86.6630  0.00  0.00     0.000 O
BRANCH 140 144
ATOM    141  C1  IDS B   8      93.554  83.513  83.4930  0.00  0.00     0.000 C
ATOM    142  C2  IDS B   8      92.899  82.198  84.0030  0.00  0.00     0.000 C
ATOM    143  C3  IDS B   8      93.274  81.861  85.4590  0.00  0.00     0.000 C
ATOM    144  C4  IDS B   8      93.217  83.091  86.3640  0.00  0.00     0.000 C
ATOM    145  C5  IDS B   8      93.891  84.287  85.6750  0.00  0.00     0.000 C
ATOM    146  O5  IDS B   8      93.299  84.570  84.4100  0.00  0.00     0.000 O
BRANCH 142 147
ATOM    147   O  IDS B   8      91.419  82.327  83.9490  0.00  0.00     0.000 O
ATOM    148   S  IDS B   8      90.571  81.714  82.7100  0.00  0.00     0.000 S
ATOM    149   O  IDS B   8      91.498  81.448  81.6330  0.00  0.00     0.000 OA
ATOM    150   O  IDS B   8      89.948  80.509  83.2260  0.00  0.00     0.000 OA
ATOM    151   O  IDS B   8      89.612  82.744  82.3580  0.00  0.00     0.000 OA
ENDBRANCH 142 147
BRANCH 145 152
ATOM    152   C  IDS B   8      93.779  85.564  86.4830  0.00  0.00     0.000 C
ATOM    153   O  IDS B   8      93.204  86.535  86.0030  0.00  0.00     0.000 OA
ATOM    154   O  IDS B   8      94.242  85.607  87.6090  0.00  0.00     0.000 OA
ENDBRANCH 145 152
ENDBRANCH 140 144
ENDBRANCH 120 140
ENDBRANCH 119 123
ENDBRANCH 103 119
ENDBRANCH 102 106
ENDBRANCH 82 102
ENDBRANCH 81 85
ENDBRANCH 65 81
ENDBRANCH 64 68
ENDBRANCH 41 64
ENDBRANCH 40 44
ENDBRANCH 24 40
ENDBRANCH 23 27
ENDBRANCH 1 23
TORSDOF 31
ENDMDL
MODEL 59
REMARK VINA RESULT:      -1.3     58.362     63.860
ROOT
ATOM      1  C1  SGN B   1      46.827  69.903  41.7910  0.00  0.00     0.000 C
ATOM      2  C2  SGN B   1      46.191  70.057  43.1820  0.00  0.00     0.000 C
ATOM      3  C3  SGN B   1      44.959  70.966  43.1180  0.00  0.00     0.000 C
ATOM      4  C4  SGN B   1      45.330  72.314  42.5080  0.00  0.00     0.000 C
ATOM      5  C5  SGN B   1      46.082  72.079  41.2000  0.00  0.00     0.000 C
ATOM      6  O5  SGN B   1      47.216  71.225  41.4420  0.00  0.00     0.000 O
ATOM      7   O  SGN B   1      44.400  71.142  44.4150  0.00  0.00     0.000 O
ATOM      9  HD  SGN B   1      45.193  71.474  44.5190  0.00  0.00     0.000 HD
ATOM      9   O  SGN B   1      44.152  73.062  42.2680  0.00  0.00     0.000 O
ATOM     11  HD  SGN B   1      44.946  73.393  42.3720  0.00  0.00     0.000 HD
ENDROOT
BRANCH 2 13
ATOM     11   N  SGN B   1      47.039  69.229  44.0600  0.00  0.00     0.000 N
ATOM     13  HD  SGN B   1      46.731  68.909  43.3170  0.00  0.00     0.000 HD
ATOM     13   S  SGN B   1      46.917  67.625  44.1080  0.00  0.00     0.000 S
ATOM     14   O  SGN B   1      45.953  67.183  43.1770  0.00  0.00     0.000 OA
ATOM     15   O  SGN B   1      48.230  67.073  44.0720  0.00  0.00     0.000 OA
ATOM     16   O  SGN B   1      46.398  67.484  45.5720  0.00  0.00     0.000 OA
ENDBRANCH 2 13
BRANCH 5 17
ATOM     17   C  SGN B   1      46.599  73.341  40.5540  0.00  0.00     0.000 C
ATOM     18   O  SGN B   1      47.137  74.242  41.5430  0.00  0.00     0.000 O
ATOM     19   S  SGN B   1      46.708  75.776  41.4010  0.00  0.00     0.000 S
ATOM     20   O  SGN B   1      47.548  76.489  42.3400  0.00  0.00     0.000 OA
ATOM     21   O  SGN B   1      46.987  76.094  40.0200  0.00  0.00     0.000 OA
ATOM     22   O  SGN B   1      45.302  75.808  41.7400  0.00  0.00     0.000 OA
ENDBRANCH 5 17
BRANCH 1 23
ATOM     23  O4  IDS B   2      46.759  69.111  40.6830  0.00  0.00     0.000 O
BRANCH 23 27
ATOM     24  C1  IDS B   2      43.761  70.257  38.0510  0.00  0.00     0.000 C
ATOM     25  C2  IDS B   2      43.363  69.184  39.0890  0.00  0.00     0.000 C
ATOM     26  C3  IDS B   2      44.426  69.057  40.1770  0.00  0.00     0.000 C
ATOM     27  C4  IDS B   2      45.822  68.788  39.6340  0.00  0.00     0.000 C
ATOM     28  C5  IDS B   2      46.038  69.573  38.3240  0.00  0.00     0.000 C
ATOM     29  O5  IDS B   2      45.126  70.657  38.2250  0.00  0.00     0.000 O
ATOM     30   O  IDS B   2      44.085  67.978  41.0400  0.00  0.00     0.000 O
ATOM     32  HD  IDS B   2      44.286  67.202  40.7120  0.00  0.00     0.000 HD
BRANCH 25 32
ATOM     32   O  IDS B   2      42.075  69.499  39.7550  0.00  0.00     0.000 O
ATOM     33   S  IDS B   2      40.760  68.511  39.6190  0.00  0.00     0.000 S
ATOM     34   O  IDS B   2      39.644  69.240  40.2010  0.00  0.00     0.000 OA
ATOM     35   O  IDS B   2      40.524  68.209  38.2140  0.00  0.00     0.000 OA
ATOM     36   O  IDS B   2      41.077  67.331  40.3900  0.00  0.00     0.000 OA
ENDBRANCH 25 32
BRANCH 28 37
ATOM     37   C  IDS B   2      47.456  70.103  38.0260  0.00  0.00     0.000 C
ATOM     38   O  IDS B   2      48.217  69.232  37.6760  0.00  0.00     0.000 OA
ATOM     39   O  IDS B   2      47.836  71.299  38.0550  0.00  0.00     0.000 OA
ENDBRANCH 28 37
BRANCH 24 40
ATOM     40  O4  SUS B   3      42.980  70.470  36.9710  0.00  0.00     0.000 O
BRANCH 40 44
ATOM     41  C1  SUS B   3      42.147  74.002  34.8790  0.00  0.00     0.000 C
ATOM     42  C2  SUS B   3      43.570  73.423  34.7470  0.00  0.00     0.000 C
ATOM     43  C3  SUS B   3      43.553  71.950  35.1490  0.00  0.00     0.000 C
ATOM     44  C4  SUS B   3      42.964  71.828  36.5450  0.00  0.00     0.000 C
ATOM     45  C5  SUS B   3      41.539  72.343  36.5220  0.00  0.00     0.000 C
ATOM     46  O5  SUS B   3      41.571  73.739  36.1630  0.00  0.00     0.000 O
BRANCH 42 49
ATOM     47   N  SUS B   3      44.270  73.527  33.4550  0.00  0.00     0.000 N
ATOM     49  HD  SUS B   3      44.725  72.834  33.2050  0.00  0.00     0.000 HD
ATOM     49   S  SUS B   3      45.227  74.808  33.3710  0.00  0.00     0.000 S
ATOM     50   O  SUS B   3      46.170  74.772  34.4180  0.00  0.00     0.000 OA
ATOM     51   O  SUS B   3      45.896  74.445  32.0210  0.00  0.00     0.000 OA
ATOM     52   O  SUS B   3      44.441  75.970  33.2400  0.00  0.00     0.000 OA
ENDBRANCH 42 49
BRANCH 43 53
ATOM     53   O  SUS B   3      44.946  71.463  35.1480  0.00  0.00     0.000 O
ATOM     54   S  SUS B   3      45.307  70.226  34.1270  0.00  0.00     0.000 S
ATOM     55   O  SUS B   3      45.279  70.757  32.7710  0.00  0.00     0.000 OA
ATOM     56   O  SUS B   3      46.623  69.788  34.5570  0.00  0.00     0.000 OA
ATOM     57   O  SUS B   3      44.268  69.211  34.3210  0.00  0.00     0.000 OA
ENDBRANCH 43 53
BRANCH 45 58
ATOM     58   C  SUS B   3      40.850  72.162  37.8570  0.00  0.00     0.000 C
ATOM     59   S  SUS B   3      40.580  73.241  40.1690  0.00  0.00     0.000 S
ATOM     60   O  SUS B   3      41.047  73.338  38.6590  0.00  0.00     0.000 O
ATOM     61   O  SUS B   3      41.621  72.488  40.8410  0.00  0.00     0.000 OA
ATOM     62   O  SUS B   3      40.574  74.632  40.5370  0.00  0.00     0.000 OA
ATOM     63   O  SUS B   3      39.305  72.617  40.1330  0.00  0.00     0.000 OA
ENDBRANCH 45 58
BRANCH 41 64
ATOM     64  O4  IDS B   4      41.326  73.697  33.8220  0.00  0.00     0.000 O
BRANCH 64 68
ATOM     65  C1  IDS B   4      39.506  74.499  30.7680  0.00  0.00     0.000 C
ATOM     66  C2  IDS B   4      40.834  75.199  31.0820  0.00  0.00     0.000 C
ATOM     67  C3  IDS B   4      40.951  75.713  32.5070  0.00  0.00     0.000 C
ATOM     68  C4  IDS B   4      40.379  74.750  33.5300  0.00  0.00     0.000 C
ATOM     69  C5  IDS B   4      39.035  74.233  33.0000  0.00  0.00     0.000 C
ATOM     70  O5  IDS B   4      39.251  73.533  31.7720  0.00  0.00     0.000 O
ATOM     71   O  IDS B   4      40.258  76.942  32.5680  0.00  0.00     0.000 O
ATOM     73  HD  IDS B   4      40.656  76.281  32.1750  0.00  0.00     0.000 HD
BRANCH 66 73
ATOM     73   O  IDS B   4      41.929  74.231  30.9240  0.00  0.00     0.000 O
ATOM     74   S  IDS B   4      42.956  74.443  29.6920  0.00  0.00     0.000 S
ATOM     75   O  IDS B   4      42.152  74.469  28.4890  0.00  0.00     0.000 OA
ATOM     76   O  IDS B   4      43.801  73.281  29.8090  0.00  0.00     0.000 OA
ATOM     77   O  IDS B   4      43.626  75.693  29.9590  0.00  0.00     0.000 OA
ENDBRANCH 66 73
BRANCH 69 78
ATOM     78   C  IDS B   4      38.229  73.425  34.0080  0.00  0.00     0.000 C
ATOM     79   O  IDS B   4      37.479  72.542  33.5940  0.00  0.00     0.000 OA
ATOM     80   O  IDS B   4      38.434  73.612  35.2210  0.00  0.00     0.000 OA
ENDBRANCH 69 78
BRANCH 65 81
ATOM     81  O4  SGN B   5      38.539  75.435  30.5570  0.00  0.00     0.000 O
BRANCH 81 85
ATOM     82  C1  SGN B   5      35.106  76.310  28.3020  0.00  0.00     0.000 C
ATOM     83  C2  SGN B   5      34.993  75.178  29.3350  0.00  0.00     0.000 C
ATOM     84  C3  SGN B   5      36.132  75.300  30.3570  0.00  0.00     0.000 C
ATOM     85  C4  SGN B   5      37.462  75.311  29.6260  0.00  0.00     0.000 C
ATOM     86  C5  SGN B   5      37.465  76.486  28.6510  0.00  0.00     0.000 C
ATOM     87  O5  SGN B   5      36.391  76.306  27.7090  0.00  0.00     0.000 O
ATOM     88   O  SGN B   5      36.068  74.231  31.2750  0.00  0.00     0.000 O
ATOM     90  HD  SGN B   5      35.798  75.040  31.4270  0.00  0.00     0.000 HD
BRANCH 83 92
ATOM     90   N  SGN B   5      33.626  75.235  28.7830  0.00  0.00     0.000 N
ATOM     92  HD  SGN B   5      33.642  75.314  27.9200  0.00  0.00     0.000 HD
ATOM     92   S  SGN B   5      32.544  74.202  29.3470  0.00  0.00     0.000 S
ATOM     93   O  SGN B   5      31.350  74.506  28.6180  0.00  0.00     0.000 OA
ATOM     94   O  SGN B   5      33.142  72.916  29.2310  0.00  0.00     0.000 OA
ATOM     95   O  SGN B   5      32.441  74.521  30.8220  0.00  0.00     0.000 OA
ENDBRANCH 83 92
BRANCH 86 96
ATOM     96   C  SGN B   5      38.745  76.629  27.8550  0.00  0.00     0.000 C
ATOM     97   O  SGN B   5      38.558  76.163  26.5160  0.00  0.00     0.000 O
ATOM     98   S  SGN B   5      39.022  77.161  25.3500  0.00  0.00     0.000 S
ATOM     99   O  SGN B   5      38.901  76.344  24.1660  0.00  0.00     0.000 OA
ATOM    100   O  SGN B   5      38.158  78.286  25.3830  0.00  0.00     0.000 OA
ATOM    101   O  SGN B   5      40.372  77.486  25.6770  0.00  0.00     0.000 OA
ENDBRANCH 86 96
BRANCH 82 102
ATOM    102  O4  IDS B   6      34.833  77.535  28.8350  0.00  0.00     0.000 O
BRANCH 102 106
ATOM    103  C1  IDS B   6      32.829  80.566  28.6050  0.00  0.00     0.000 C
ATOM    104  C2  IDS B   6      32.334  79.247  27.9900  0.00  0.00     0.000 C
ATOM    105  C3  IDS B   6      33.358  78.502  27.1560  0.00  0.00     0.000 C
ATOM    106  C4  IDS B   6      34.744  78.521  27.7760  0.00  0.00     0.000 C
ATOM    107  C5  IDS B   6      35.053  79.923  28.3100  0.00  0.00     0.000 C
ATOM    108  O5  IDS B   6      34.072  80.363  29.2510  0.00  0.00     0.000 O
ATOM    109   O  IDS B   6      33.377  79.079  25.8610  0.00  0.00     0.000 O
ATOM    111  HD  IDS B   6      33.066  79.878  25.9840  0.00  0.00     0.000 HD
BRANCH 104 111
ATOM    111   O  IDS B   6      31.966  78.322  29.0720  0.00  0.00     0.000 O
ATOM    112   S  IDS B   6      30.411  78.032  29.3190  0.00  0.00     0.000 S
ATOM    113   O  IDS B   6      29.834  79.339  29.5920  0.00  0.00     0.000 OA
ATOM    114   O  IDS B   6      29.870  77.359  28.1330  0.00  0.00     0.000 OA
ATOM    115   O  IDS B   6      30.514  77.180  30.4840  0.00  0.00     0.000 OA
ENDBRANCH 104 111
BRANCH 107 116
ATOM    116   C  IDS B   6      36.430  79.923  28.9610  0.00  0.00     0.000 C
ATOM    117   O  IDS B   6      37.380  79.925  28.2210  0.00  0.00     0.000 OA
ATOM    118   O  IDS B   6      36.558  79.910  30.1760  0.00  0.00     0.000 OA
ENDBRANCH 107 116
BRANCH 103 119
ATOM    119  O4  SGN B   7      32.697  81.462  27.5930  0.00  0.00     0.000 O
BRANCH 119 123
ATOM    120  C1  SGN B   7      31.685  85.503  27.2280  0.00  0.00     0.000 C
ATOM    121  C2  SGN B   7      33.086  85.165  27.7710  0.00  0.00     0.000 C
ATOM    122  C3  SGN B   7      33.443  83.704  27.4670  0.00  0.00     0.000 C
ATOM    123  C4  SGN B   7      32.345  82.789  27.9840  0.00  0.00     0.000 C
ATOM    124  C5  SGN B   7      30.990  83.212  27.3910  0.00  0.00     0.000 C
ATOM    125  O5  SGN B   7      30.695  84.592  27.7030  0.00  0.00     0.000 O
ATOM    126   O  SGN B   7      34.705  83.397  28.0710  0.00  0.00     0.000 O
ATOM    128  HD  SGN B   7      34.120  83.998  27.8520  0.00  0.00     0.000 HD
BRANCH 121 130
ATOM    128   N  SGN B   7      33.264  86.542  28.2390  0.00  0.00     0.000 N
ATOM    130  HD  SGN B   7      33.792  86.267  28.8680  0.00  0.00     0.000 HD
ATOM    130   S  SGN B   7      34.633  87.358  28.0070  0.00  0.00     0.000 S
ATOM    131   O  SGN B   7      34.921  87.215  26.6200  0.00  0.00     0.000 OA
ATOM    132   O  SGN B   7      34.486  88.647  28.5800  0.00  0.00     0.000 OA
ATOM    133   O  SGN B   7      35.585  86.595  28.9890  0.00  0.00     0.000 OA
ENDBRANCH 121 130
BRANCH 124 134
ATOM    134   C  SGN B   7      29.823  82.439  27.9320  0.00  0.00     0.000 C
ATOM    135   O  SGN B   7      28.733  83.351  28.1510  0.00  0.00     0.000 O
ATOM    136   S  SGN B   7      27.362  82.712  28.5740  0.00  0.00     0.000 S
ATOM    137   O  SGN B   7      26.465  83.813  28.8350  0.00  0.00     0.000 OA
ATOM    138   O  SGN B   7      27.655  81.931  29.7540  0.00  0.00     0.000 OA
ATOM    139   O  SGN B   7      27.008  81.925  27.4030  0.00  0.00     0.000 OA
ENDBRANCH 124 134
BRANCH 120 140
ATOM    140  O4  IDS B   8      31.296  85.588  25.9510  0.00  0.00     0.000 O
BRANCH 140 144
ATOM    141  C1  IDS B   8      31.025  84.707  22.4710  0.00  0.00     0.000 C
ATOM    142  C2  IDS B   8      32.365  84.525  23.2400  0.00  0.00     0.000 C
ATOM    143  C3  IDS B   8      32.773  85.772  24.0450  0.00  0.00     0.000 C
ATOM    144  C4  IDS B   8      31.590  86.382  24.7950  0.00  0.00     0.000 C
ATOM    145  C5  IDS B   8      30.361  86.455  23.8770  0.00  0.00     0.000 C
ATOM    146  O5  IDS B   8      30.016  85.173  23.3570  0.00  0.00     0.000 O
BRANCH 142 147
ATOM    147   O  IDS B   8      32.233  83.402  24.2050  0.00  0.00     0.000 O
ATOM    148   S  IDS B   8      32.781  81.919  23.8430  0.00  0.00     0.000 S
ATOM    149   O  IDS B   8      32.990  81.866  22.4130  0.00  0.00     0.000 OA
ATOM    150   O  IDS B   8      34.012  81.766  24.5960  0.00  0.00     0.000 OA
ATOM    151   O  IDS B   8      31.735  81.010  24.2710  0.00  0.00     0.000 OA
ENDBRANCH 142 147
BRANCH 145 152
ATOM    152   C  IDS B   8      29.126  86.960  24.5950  0.00  0.00     0.000 C
ATOM    153   O  IDS B   8      28.133  86.245  24.6660  0.00  0.00     0.000 OA
ATOM    154   O  IDS B   8      29.139  88.063  25.1120  0.00  0.00     0.000 OA
ENDBRANCH 145 152
ENDBRANCH 140 144
ENDBRANCH 120 140
ENDBRANCH 119 123
ENDBRANCH 103 119
ENDBRANCH 102 106
ENDBRANCH 82 102
ENDBRANCH 81 85
ENDBRANCH 65 81
ENDBRANCH 64 68
ENDBRANCH 41 64
ENDBRANCH 40 44
ENDBRANCH 24 40
ENDBRANCH 23 27
ENDBRANCH 1 23
TORSDOF 31
ENDMDL
MODEL 60
REMARK VINA RESULT:      -1.3     64.069     69.575
ROOT
ATOM      1  C1  SGN B   1      81.844  50.830  51.4630  0.00  0.00     0.000 C
ATOM      2  C2  SGN B   1      83.231  50.358  50.9970  0.00  0.00     0.000 C
ATOM      3  C3  SGN B   1      83.311  50.333  49.4670  0.00  0.00     0.000 C
ATOM      4  C4  SGN B   1      82.192  49.467  48.8960  0.00  0.00     0.000 C
ATOM      5  C5  SGN B   1      80.863  49.900  49.5100  0.00  0.00     0.000 C
ATOM      6  O5  SGN B   1      80.956  49.847  50.9460  0.00  0.00     0.000 O
ATOM      7   O  SGN B   1      84.580  49.854  49.0390  0.00  0.00     0.000 O
ATOM      9  HD  SGN B   1      84.275  49.174  49.4810  0.00  0.00     0.000 HD
ATOM      9   O  SGN B   1      82.153  49.618  47.4890  0.00  0.00     0.000 O
ATOM     11  HD  SGN B   1      81.847  48.938  47.9300  0.00  0.00     0.000 HD
ENDROOT
BRANCH 2 13
ATOM     11   N  SGN B   1      83.972  50.120  52.2500  0.00  0.00     0.000 N
ATOM     13  HD  SGN B   1      83.542  50.862  52.1270  0.00  0.00     0.000 HD
ATOM     13   S  SGN B   1      84.597  51.321  53.1200  0.00  0.00     0.000 S
ATOM     14   O  SGN B   1      84.281  52.563  52.5310  0.00  0.00     0.000 OA
ATOM     15   O  SGN B   1      84.282  51.096  54.4910  0.00  0.00     0.000 OA
ATOM     16   O  SGN B   1      86.105  50.971  52.9310  0.00  0.00     0.000 OA
ENDBRANCH 2 13
BRANCH 5 17
ATOM     17   C  SGN B   1      79.690  49.042  49.1030  0.00  0.00     0.000 C
ATOM     18   O  SGN B   1      80.055  47.648  49.0840  0.00  0.00     0.000 O
ATOM     19   S  SGN B   1      79.568  46.813  47.8100  0.00  0.00     0.000 S
ATOM     20   O  SGN B   1      79.846  45.431  48.1390  0.00  0.00     0.000 OA
ATOM     21   O  SGN B   1      78.159  47.112  47.7100  0.00  0.00     0.000 OA
ATOM     22   O  SGN B   1      80.356  47.315  46.7060  0.00  0.00     0.000 OA
ENDBRANCH 5 17
BRANCH 1 23
ATOM     23  O4  IDS B   2      81.171  51.973  51.7790  0.00  0.00     0.000 O
BRANCH 23 27
ATOM     24  C1  IDS B   2      79.566  53.880  48.4600  0.00  0.00     0.000 C
ATOM     25  C2  IDS B   2      80.974  54.353  48.8850  0.00  0.00     0.000 C
ATOM     26  C3  IDS B   2      81.584  53.399  49.9090  0.00  0.00     0.000 C
ATOM     27  C4  IDS B   2      80.701  53.172  51.1280  0.00  0.00     0.000 C
ATOM     28  C5  IDS B   2      79.219  53.128  50.7050  0.00  0.00     0.000 C
ATOM     29  O5  IDS B   2      79.094  52.836  49.3220  0.00  0.00     0.000 O
ATOM     30   O  IDS B   2      82.820  53.933  50.3670  0.00  0.00     0.000 O
ATOM     32  HD  IDS B   2      82.724  54.556  50.9600  0.00  0.00     0.000 HD
BRANCH 25 32
ATOM     32   O  IDS B   2      81.909  54.435  47.7360  0.00  0.00     0.000 O
ATOM     33   S  IDS B   2      82.595  55.862  47.2710  0.00  0.00     0.000 S
ATOM     34   O  IDS B   2      83.255  55.599  46.0020  0.00  0.00     0.000 OA
ATOM     35   O  IDS B   2      81.558  56.875  47.1310  0.00  0.00     0.000 OA
ATOM     36   O  IDS B   2      83.550  56.190  48.3030  0.00  0.00     0.000 OA
ENDBRANCH 25 32
BRANCH 28 37
ATOM     37   C  IDS B   2      78.273  52.192  51.4860  0.00  0.00     0.000 C
ATOM     38   O  IDS B   2      77.990  52.621  52.5800  0.00  0.00     0.000 OA
ATOM     39   O  IDS B   2      77.759  51.124  51.0740  0.00  0.00     0.000 OA
ENDBRANCH 28 37
BRANCH 24 40
ATOM     40  O4  SUS B   3      78.833  54.629  47.6090  0.00  0.00     0.000 O
BRANCH 40 44
ATOM     41  C1  SUS B   3      76.118  53.482  44.6320  0.00  0.00     0.000 C
ATOM     42  C2  SUS B   3      75.690  53.268  46.0980  0.00  0.00     0.000 C
ATOM     43  C3  SUS B   3      76.542  54.152  47.0060  0.00  0.00     0.000 C
ATOM     44  C4  SUS B   3      78.010  53.856  46.7420  0.00  0.00     0.000 C
ATOM     45  C5  SUS B   3      78.326  54.192  45.2990  0.00  0.00     0.000 C
ATOM     46  O5  SUS B   3      77.531  53.336  44.4530  0.00  0.00     0.000 O
BRANCH 42 49
ATOM     47   N  SUS B   3      74.276  53.475  46.4580  0.00  0.00     0.000 N
ATOM     49  HD  SUS B   3      74.123  53.885  47.2050  0.00  0.00     0.000 HD
ATOM     49   S  SUS B   3      73.432  52.114  46.4550  0.00  0.00     0.000 S
ATOM     50   O  SUS B   3      74.015  51.186  47.3410  0.00  0.00     0.000 OA
ATOM     51   O  SUS B   3      72.134  52.706  47.0610  0.00  0.00     0.000 OA
ATOM     52   O  SUS B   3      73.217  51.700  45.1250  0.00  0.00     0.000 OA
ENDBRANCH 42 49
BRANCH 43 53
ATOM     53   O  SUS B   3      76.208  53.823  48.4050  0.00  0.00     0.000 O
ATOM     54   S  SUS B   3      75.601  55.035  49.3350  0.00  0.00     0.000 S
ATOM     55   O  SUS B   3      74.251  55.312  48.8650  0.00  0.00     0.000 OA
ATOM     56   O  SUS B   3      75.654  54.502  50.6850  0.00  0.00     0.000 OA
ATOM     57   O  SUS B   3      76.481  56.191  49.1360  0.00  0.00     0.000 OA
ENDBRANCH 43 53
BRANCH 45 58
ATOM     58   C  SUS B   3      79.796  54.018  44.9850  0.00  0.00     0.000 C
ATOM     59   S  SUS B   3      81.543  52.251  44.3440  0.00  0.00     0.000 S
ATOM     60   O  SUS B   3      80.028  52.680  44.5150  0.00  0.00     0.000 O
ATOM     61   O  SUS B   3      82.011  51.966  45.6870  0.00  0.00     0.000 OA
ATOM     62   O  SUS B   3      81.397  51.066  43.5420  0.00  0.00     0.000 OA
ATOM     63   O  SUS B   3      82.177  53.346  43.6990  0.00  0.00     0.000 OA
ENDBRANCH 45 58
BRANCH 41 64
ATOM     64  O4  IDS B   4      75.594  54.616  44.0620  0.00  0.00     0.000 O
BRANCH 64 68
ATOM     65  C1  IDS B   4      73.329  56.422  41.8530  0.00  0.00     0.000 C
ATOM     66  C2  IDS B   4      72.875  55.121  42.5280  0.00  0.00     0.000 C
ATOM     67  C3  IDS B   4      73.883  53.987  42.4480  0.00  0.00     0.000 C
ATOM     68  C4  IDS B   4      75.312  54.453  42.6550  0.00  0.00     0.000 C
ATOM     69  C5  IDS B   4      75.520  55.735  41.8370  0.00  0.00     0.000 C
ATOM     70  O5  IDS B   4      74.628  56.746  42.3130  0.00  0.00     0.000 O
ATOM     71   O  IDS B   4      73.752  53.400  41.1700  0.00  0.00     0.000 O
ATOM     73  HD  IDS B   4      73.502  53.882  41.8440  0.00  0.00     0.000 HD
BRANCH 66 73
ATOM     73   O  IDS B   4      72.686  55.375  43.9630  0.00  0.00     0.000 O
ATOM     74   S  IDS B   4      71.178  55.337  44.5470  0.00  0.00     0.000 S
ATOM     75   O  IDS B   4      70.416  56.298  43.7790  0.00  0.00     0.000 OA
ATOM     76   O  IDS B   4      71.383  55.716  45.9230  0.00  0.00     0.000 OA
ATOM     77   O  IDS B   4      70.729  53.977  44.3670  0.00  0.00     0.000 OA
ENDBRANCH 66 73
BRANCH 69 78
ATOM     78   C  IDS B   4      76.965  56.207  41.7640  0.00  0.00     0.000 C
ATOM     79   O  IDS B   4      77.500  56.303  40.6600  0.00  0.00     0.000 OA
ATOM     80   O  IDS B   4      77.524  56.581  42.8110  0.00  0.00     0.000 OA
ENDBRANCH 69 78
BRANCH 65 81
ATOM     81  O4  SGN B   5      73.165  56.312  40.5050  0.00  0.00     0.000 O
BRANCH 81 85
ATOM     82  C1  SGN B   5      72.112  58.445  37.0430  0.00  0.00     0.000 C
ATOM     83  C2  SGN B   5      73.512  58.700  37.6210  0.00  0.00     0.000 C
ATOM     84  C3  SGN B   5      73.899  57.546  38.5570  0.00  0.00     0.000 C
ATOM     85  C4  SGN B   5      72.832  57.389  39.6260  0.00  0.00     0.000 C
ATOM     86  C5  SGN B   5      71.498  57.118  38.9350  0.00  0.00     0.000 C
ATOM     87  O5  SGN B   5      71.180  58.240  38.0880  0.00  0.00     0.000 O
ATOM     88   O  SGN B   5      75.160  57.801  39.1360  0.00  0.00     0.000 O
ATOM     90  HD  SGN B   5      75.011  57.261  38.4750  0.00  0.00     0.000 HD
BRANCH 83 92
ATOM     90   N  SGN B   5      73.515  59.546  36.4110  0.00  0.00     0.000 N
ATOM     92  HD  SGN B   5      72.762  59.966  36.3240  0.00  0.00     0.000 HD
ATOM     92   S  SGN B   5      74.817  60.421  36.1100  0.00  0.00     0.000 S
ATOM     93   O  SGN B   5      74.504  61.117  34.8980  0.00  0.00     0.000 OA
ATOM     94   O  SGN B   5      75.077  61.151  37.3040  0.00  0.00     0.000 OA
ATOM     95   O  SGN B   5      75.931  59.410  35.9470  0.00  0.00     0.000 OA
ENDBRANCH 83 92
BRANCH 86 96
ATOM     96   C  SGN B   5      70.334  56.927  39.8860  0.00  0.00     0.000 C
ATOM     97   O  SGN B   5      70.306  57.970  40.8620  0.00  0.00     0.000 O
ATOM     98   S  SGN B   5      68.904  58.725  41.0500  0.00  0.00     0.000 S
ATOM     99   O  SGN B   5      69.139  59.550  42.2110  0.00  0.00     0.000 OA
ATOM    100   O  SGN B   5      68.644  59.444  39.8550  0.00  0.00     0.000 OA
ATOM    101   O  SGN B   5      67.965  57.676  41.2830  0.00  0.00     0.000 OA
ENDBRANCH 86 96
BRANCH 82 102
ATOM    102  O4  IDS B   6      72.086  57.397  36.1720  0.00  0.00     0.000 O
BRANCH 102 106
ATOM    103  C1  IDS B   6      71.244  56.253  32.8190  0.00  0.00     0.000 C
ATOM    104  C2  IDS B   6      71.525  57.739  33.0960  0.00  0.00     0.000 C
ATOM    105  C3  IDS B   6      70.816  58.313  34.3070  0.00  0.00     0.000 C
ATOM    106  C4  IDS B   6      70.808  57.359  35.4880  0.00  0.00     0.000 C
ATOM    107  C5  IDS B   6      70.491  55.940  35.0060  0.00  0.00     0.000 C
ATOM    108  O5  IDS B   6      71.411  55.500  34.0050  0.00  0.00     0.000 O
ATOM    109   O  IDS B   6      69.493  58.652  33.9250  0.00  0.00     0.000 O
ATOM    111  HD  IDS B   6      69.342  58.153  33.2330  0.00  0.00     0.000 HD
BRANCH 104 111
ATOM    111   O  IDS B   6      72.960  57.913  33.3670  0.00  0.00     0.000 O
ATOM    112   S  IDS B   6      73.861  58.607  32.2400  0.00  0.00     0.000 S
ATOM    113   O  IDS B   6      73.696  57.761  31.0680  0.00  0.00     0.000 OA
ATOM    114   O  IDS B   6      73.403  59.990  32.0670  0.00  0.00     0.000 OA
ATOM    115   O  IDS B   6      75.157  58.489  32.8720  0.00  0.00     0.000 OA
ENDBRANCH 104 111
BRANCH 107 116
ATOM    116   C  IDS B   6      70.521  54.985  36.1920  0.00  0.00     0.000 C
ATOM    117   O  IDS B   6      69.578  55.021  36.9410  0.00  0.00     0.000 OA
ATOM    118   O  IDS B   6      71.463  54.230  36.3760  0.00  0.00     0.000 OA
ENDBRANCH 107 116
BRANCH 103 119
ATOM    119  O4  SGN B   7      70.061  56.269  32.1530  0.00  0.00     0.000 O
BRANCH 119 123
ATOM    120  C1  SGN B   7      68.296  54.095  29.0460  0.00  0.00     0.000 C
ATOM    121  C2  SGN B   7      68.398  53.415  30.4240  0.00  0.00     0.000 C
ATOM    122  C3  SGN B   7      68.682  54.453  31.5170  0.00  0.00     0.000 C
ATOM    123  C4  SGN B   7      69.907  55.271  31.1420  0.00  0.00     0.000 C
ATOM    124  C5  SGN B   7      69.710  55.901  29.7530  0.00  0.00     0.000 C
ATOM    125  O5  SGN B   7      69.447  54.887  28.7570  0.00  0.00     0.000 O
ATOM    126   O  SGN B   7      68.869  53.777  32.7660  0.00  0.00     0.000 O
ATOM    128  HD  SGN B   7      68.625  53.735  31.9360  0.00  0.00     0.000 HD
BRANCH 121 130
ATOM    128   N  SGN B   7      68.237  52.034  29.9630  0.00  0.00     0.000 N
ATOM    130  HD  SGN B   7      68.523  51.738  30.7250  0.00  0.00     0.000 HD
ATOM    130   S  SGN B   7      67.054  51.081  30.4990  0.00  0.00     0.000 S
ATOM    131   O  SGN B   7      65.863  51.846  30.3490  0.00  0.00     0.000 OA
ATOM    132   O  SGN B   7      67.179  49.817  29.8690  0.00  0.00     0.000 OA
ATOM    133   O  SGN B   7      67.534  50.839  31.9700  0.00  0.00     0.000 OA
ENDBRANCH 121 130
BRANCH 124 134
ATOM    134   C  SGN B   7      70.915  56.635  29.2430  0.00  0.00     0.000 C
ATOM    135   O  SGN B   7      71.057  56.363  27.8390  0.00  0.00     0.000 O
ATOM    136   S  SGN B   7      72.175  57.163  27.0800  0.00  0.00     0.000 S
ATOM    137   O  SGN B   7      72.197  56.651  25.7310  0.00  0.00     0.000 OA
ATOM    138   O  SGN B   7      73.395  56.891  27.8070  0.00  0.00     0.000 OA
ATOM    139   O  SGN B   7      71.704  58.535  27.1860  0.00  0.00     0.000 OA
ENDBRANCH 124 134
BRANCH 120 140
ATOM    140  O4  IDS B   8      67.350  54.934  28.6100  0.00  0.00     0.000 O
BRANCH 140 144
ATOM    141  C1  IDS B   8      64.999  57.660  28.6670  0.00  0.00     0.000 C
ATOM    142  C2  IDS B   8      65.237  56.782  29.9290  0.00  0.00     0.000 C
ATOM    143  C3  IDS B   8      65.184  55.272  29.6330  0.00  0.00     0.000 C
ATOM    144  C4  IDS B   8      65.940  54.912  28.3550  0.00  0.00     0.000 C
ATOM    145  C5  IDS B   8      65.592  55.906  27.2360  0.00  0.00     0.000 C
ATOM    146  O5  IDS B   8      65.870  57.250  27.6190  0.00  0.00     0.000 O
BRANCH 142 147
ATOM    147   O  IDS B   8      66.582  57.074  30.4890  0.00  0.00     0.000 O
ATOM    148   S  IDS B   8      66.763  58.084  31.7460  0.00  0.00     0.000 S
ATOM    149   O  IDS B   8      65.542  58.846  31.8760  0.00  0.00     0.000 OA
ATOM    150   O  IDS B   8      67.019  57.232  32.8930  0.00  0.00     0.000 OA
ATOM    151   O  IDS B   8      67.893  58.925  31.4000  0.00  0.00     0.000 OA
ENDBRANCH 142 147
BRANCH 145 152
ATOM    152   C  IDS B   8      66.387  55.661  25.9690  0.00  0.00     0.000 C
ATOM    153   O  IDS B   8      66.308  54.574  25.4070  0.00  0.00     0.000 OA
ATOM    154   O  IDS B   8      67.079  56.552  25.5120  0.00  0.00     0.000 OA
ENDBRANCH 145 152
ENDBRANCH 140 144
ENDBRANCH 120 140
ENDBRANCH 119 123
ENDBRANCH 103 119
ENDBRANCH 102 106
ENDBRANCH 82 102
ENDBRANCH 81 85
ENDBRANCH 65 81
ENDBRANCH 64 68
ENDBRANCH 41 64
ENDBRANCH 40 44
ENDBRANCH 24 40
ENDBRANCH 23 27
ENDBRANCH 1 23
TORSDOF 31
ENDMDL
MODEL 61
REMARK VINA RESULT:      -1.3     35.562     41.980
ROOT
ATOM      1  C1  SGN B   1      37.029  62.518  32.2840  0.00  0.00     0.000 C
ATOM      2  C2  SGN B   1      36.600  63.957  31.9570  0.00  0.00     0.000 C
ATOM      3  C3  SGN B   1      35.072  64.069  31.9040  0.00  0.00     0.000 C
ATOM      4  C4  SGN B   1      34.505  63.065  30.9060  0.00  0.00     0.000 C
ATOM      5  C5  SGN B   1      35.085  61.684  31.2050  0.00  0.00     0.000 C
ATOM      6  O5  SGN B   1      36.524  61.753  31.1970  0.00  0.00     0.000 O
ATOM      7   O  SGN B   1      34.680  65.392  31.5570  0.00  0.00     0.000 O
ATOM      9  HD  SGN B   1      35.134  65.155  30.8590  0.00  0.00     0.000 HD
ATOM      9   O  SGN B   1      33.094  63.036  31.0170  0.00  0.00     0.000 O
ATOM     11  HD  SGN B   1      33.548  62.799  30.3190  0.00  0.00     0.000 HD
ENDROOT
BRANCH 2 13
ATOM     11   N  SGN B   1      37.872  64.695  31.8330  0.00  0.00     0.000 N
ATOM     13  HD  SGN B   1      37.721  64.189  32.5200  0.00  0.00     0.000 HD
ATOM     13   S  SGN B   1      38.720  65.167  33.1160  0.00  0.00     0.000 S
ATOM     14   O  SGN B   1      38.093  64.728  34.3010  0.00  0.00     0.000 OA
ATOM     15   O  SGN B   1      40.090  64.851  32.8910  0.00  0.00     0.000 OA
ATOM     16   O  SGN B   1      38.566  66.708  32.9300  0.00  0.00     0.000 OA
ENDBRANCH 2 13
BRANCH 5 17
ATOM     17   C  SGN B   1      34.681  60.621  30.2130  0.00  0.00     0.000 C
ATOM     18   O  SGN B   1      34.705  61.137  28.8670  0.00  0.00     0.000 O
ATOM     19   S  SGN B   1      33.446  60.770  27.9530  0.00  0.00     0.000 S
ATOM     20   O  SGN B   1      33.815  61.191  26.6180  0.00  0.00     0.000 OA
ATOM     21   O  SGN B   1      33.314  59.338  28.0920  0.00  0.00     0.000 OA
ATOM     22   O  SGN B   1      32.342  61.519  28.5120  0.00  0.00     0.000 OA
ENDBRANCH 5 17
BRANCH 1 23
ATOM     23  O4  IDS B   2      37.304  61.717  33.3530  0.00  0.00     0.000 O
BRANCH 23 27
ATOM     24  C1  IDS B   2      33.909  59.978  34.9900  0.00  0.00     0.000 C
ATOM     25  C2  IDS B   2      34.345  61.317  35.6250  0.00  0.00     0.000 C
ATOM     26  C3  IDS B   2      35.404  62.007  34.7700  0.00  0.00     0.000 C
ATOM     27  C4  IDS B   2      36.614  61.131  34.4770  0.00  0.00     0.000 C
ATOM     28  C5  IDS B   2      36.168  59.671  34.2600  0.00  0.00     0.000 C
ATOM     29  O5  IDS B   2      34.790  59.607  33.9220  0.00  0.00     0.000 O
ATOM     30   O  IDS B   2      35.869  63.169  35.4480  0.00  0.00     0.000 O
ATOM     32  HD  IDS B   2      36.444  62.993  36.0710  0.00  0.00     0.000 HD
BRANCH 25 32
ATOM     32   O  IDS B   2      33.210  62.260  35.7820  0.00  0.00     0.000 O
ATOM     33   S  IDS B   2      32.719  62.794  37.2640  0.00  0.00     0.000 S
ATOM     34   O  IDS B   2      31.469  63.503  37.0450  0.00  0.00     0.000 OA
ATOM     35   O  IDS B   2      32.536  61.655  38.1530  0.00  0.00     0.000 OA
ATOM     36   O  IDS B   2      33.759  63.687  37.7210  0.00  0.00     0.000 OA
ENDBRANCH 25 32
BRANCH 28 37
ATOM     37   C  IDS B   2      36.957  58.819  33.2440  0.00  0.00     0.000 C
ATOM     38   O  IDS B   2      38.034  58.469  33.6650  0.00  0.00     0.000 OA
ATOM     39   O  IDS B   2      36.565  58.434  32.1160  0.00  0.00     0.000 OA
ENDBRANCH 28 37
BRANCH 24 40
ATOM     40  O4  SUS B   3      33.027  59.184  35.6320  0.00  0.00     0.000 O
BRANCH 40 44
ATOM     41  C1  SUS B   3      30.036  56.671  34.1210  0.00  0.00     0.000 C
ATOM     42  C2  SUS B   3      31.499  56.239  33.8970  0.00  0.00     0.000 C
ATOM     43  C3  SUS B   3      32.398  56.972  34.8910  0.00  0.00     0.000 C
ATOM     44  C4  SUS B   3      32.166  58.468  34.7530  0.00  0.00     0.000 C
ATOM     45  C5  SUS B   3      30.720  58.774  35.0860  0.00  0.00     0.000 C
ATOM     46  O5  SUS B   3      29.885  58.094  34.1270  0.00  0.00     0.000 O
BRANCH 42 49
ATOM     47   N  SUS B   3      31.830  54.805  33.9560  0.00  0.00     0.000 N
ATOM     49  HD  SUS B   3      32.564  54.594  34.3640  0.00  0.00     0.000 HD
ATOM     49   S  SUS B   3      31.849  54.116  32.5100  0.00  0.00     0.000 S
ATOM     50   O  SUS B   3      32.769  54.780  31.6740  0.00  0.00     0.000 OA
ATOM     51   O  SUS B   3      32.417  52.749  32.9700  0.00  0.00     0.000 OA
ATOM     52   O  SUS B   3      30.527  53.973  32.0430  0.00  0.00     0.000 OA
ENDBRANCH 42 49
BRANCH 43 53
ATOM     53   O  SUS B   3      33.799  56.648  34.5620  0.00  0.00     0.000 O
ATOM     54   S  SUS B   3      34.687  55.894  35.7220  0.00  0.00     0.000 S
ATOM     55   O  SUS B   3      34.188  54.532  35.8370  0.00  0.00     0.000 OA
ATOM     56   O  SUS B   3      36.051  55.979  35.2310  0.00  0.00     0.000 OA
ATOM     57   O  SUS B   3      34.472  56.645  36.9620  0.00  0.00     0.000 OA
ENDBRANCH 43 53
BRANCH 45 58
ATOM     58   C  SUS B   3      30.436  60.259  35.0680  0.00  0.00     0.000 C
ATOM     59   S  SUS B   3      29.871  62.202  33.4900  0.00  0.00     0.000 S
ATOM     60   O  SUS B   3      30.005  60.646  33.7530  0.00  0.00     0.000 O
ATOM     61   O  SUS B   3      31.229  62.672  33.2900  0.00  0.00     0.000 OA
ATOM     62   O  SUS B   3      29.099  62.203  32.2760  0.00  0.00     0.000 OA
ATOM     63   O  SUS B   3      29.208  62.725  34.6320  0.00  0.00     0.000 OA
ENDBRANCH 45 58
BRANCH 41 64
ATOM     64  O4  IDS B   4      29.428  56.036  35.1760  0.00  0.00     0.000 O
BRANCH 64 68
ATOM     65  C1  IDS B   4      27.133  53.630  36.6670  0.00  0.00     0.000 C
ATOM     66  C2  IDS B   4      27.836  53.309  35.3410  0.00  0.00     0.000 C
ATOM     67  C3  IDS B   4      27.802  54.436  34.3240  0.00  0.00     0.000 C
ATOM     68  C4  IDS B   4      28.020  55.801  34.9490  0.00  0.00     0.000 C
ATOM     69  C5  IDS B   4      27.173  55.883  36.2260  0.00  0.00     0.000 C
ATOM     70  O5  IDS B   4      27.607  54.877  37.1430  0.00  0.00     0.000 O
ATOM     71   O  IDS B   4      26.538  54.396  33.6950  0.00  0.00     0.000 O
ATOM     73  HD  IDS B   4      27.195  54.081  34.1630  0.00  0.00     0.000 HD
BRANCH 66 73
ATOM     73   O  IDS B   4      29.260  53.064  35.6080  0.00  0.00     0.000 O
ATOM     74   S  IDS B   4      29.820  51.559  35.4170  0.00  0.00     0.000 S
ATOM     75   O  IDS B   4      29.014  50.711  36.2690  0.00  0.00     0.000 OA
ATOM     76   O  IDS B   4      31.188  51.694  35.8500  0.00  0.00     0.000 OA
ATOM     77   O  IDS B   4      29.667  51.266  34.0120  0.00  0.00     0.000 OA
ENDBRANCH 66 73
BRANCH 69 78
ATOM     78   C  IDS B   4      27.111  57.269  36.8520  0.00  0.00     0.000 C
ATOM     79   O  IDS B   4      26.014  57.811  36.9800  0.00  0.00     0.000 OA
ATOM     80   O  IDS B   4      28.158  57.763  37.3100  0.00  0.00     0.000 OA
ENDBRANCH 69 78
BRANCH 65 81
ATOM     81  O4  SGN B   5      25.787  53.505  36.5070  0.00  0.00     0.000 O
BRANCH 81 85
ATOM     82  C1  SGN B   5      22.253  52.294  38.4260  0.00  0.00     0.000 C
ATOM     83  C2  SGN B   5      22.849  53.644  38.8500  0.00  0.00     0.000 C
ATOM     84  C3  SGN B   5      23.822  54.138  37.7700  0.00  0.00     0.000 C
ATOM     85  C4  SGN B   5      24.874  53.072  37.5190  0.00  0.00     0.000 C
ATOM     86  C5  SGN B   5      24.166  51.792  37.0830  0.00  0.00     0.000 C
ATOM     87  O5  SGN B   5      23.285  51.369  38.1410  0.00  0.00     0.000 O
ATOM     88   O  SGN B   5      24.417  55.350  38.1790  0.00  0.00     0.000 O
ATOM     90  HD  SGN B   5      23.768  55.276  37.6100  0.00  0.00     0.000 HD
BRANCH 83 92
ATOM     90   N  SGN B   5      22.072  53.493  40.0960  0.00  0.00     0.000 N
ATOM     92  HD  SGN B   5      22.512  53.032  40.6830  0.00  0.00     0.000 HD
ATOM     92   S  SGN B   5      21.319  54.779  40.6720  0.00  0.00     0.000 S
ATOM     93   O  SGN B   5      20.678  54.311  41.8640  0.00  0.00     0.000 OA
ATOM     94   O  SGN B   5      22.305  55.802  40.7480  0.00  0.00     0.000 OA
ATOM     95   O  SGN B   5      20.343  55.173  39.5850  0.00  0.00     0.000 OA
ENDBRANCH 83 92
BRANCH 86 96
ATOM     96   C  SGN B   5      25.099  50.637  36.7840  0.00  0.00     0.000 C
ATOM     97   O  SGN B   5      26.049  50.473  37.8390  0.00  0.00     0.000 O
ATOM     98   S  SGN B   5      26.192  48.991  38.4360  0.00  0.00     0.000 S
ATOM     99   O  SGN B   5      27.336  49.109  39.3080  0.00  0.00     0.000 OA
ATOM    100   O  SGN B   5      24.975  48.678  39.0950  0.00  0.00     0.000 OA
ATOM    101   O  SGN B   5      26.433  48.171  37.2940  0.00  0.00     0.000 OA
ENDBRANCH 86 96
BRANCH 82 102
ATOM    102  O4  IDS B   6      21.408  52.405  37.3620  0.00  0.00     0.000 O
BRANCH 102 106
ATOM    103  C1  IDS B   6      18.267  52.200  35.5320  0.00  0.00     0.000 C
ATOM    104  C2  IDS B   6      18.367  53.012  36.8330  0.00  0.00     0.000 C
ATOM    105  C3  IDS B   6      19.055  52.301  37.9820  0.00  0.00     0.000 C
ATOM    106  C4  IDS B   6      20.276  51.515  37.5390  0.00  0.00     0.000 C
ATOM    107  C5  IDS B   6      19.965  50.765  36.2400  0.00  0.00     0.000 C
ATOM    108  O5  IDS B   6      19.529  51.648  35.2060  0.00  0.00     0.000 O
ATOM    109   O  IDS B   6      18.108  51.451  38.6060  0.00  0.00     0.000 O
ATOM    111  HD  IDS B   6      17.515  51.311  37.9900  0.00  0.00     0.000 HD
BRANCH 104 111
ATOM    111   O  IDS B   6      19.171  54.218  36.5840  0.00  0.00     0.000 O
ATOM    112   S  IDS B   6      18.406  55.617  36.4460  0.00  0.00     0.000 S
ATOM    113   O  IDS B   6      17.484  55.422  35.3380  0.00  0.00     0.000 OA
ATOM    114   O  IDS B   6      17.765  55.926  37.7290  0.00  0.00     0.000 OA
ATOM    115   O  IDS B   6      19.532  56.469  36.1290  0.00  0.00     0.000 OA
ENDBRANCH 104 111
BRANCH 107 116
ATOM    116   C  IDS B   6      21.207  50.009  35.7850  0.00  0.00     0.000 C
ATOM    117   O  IDS B   6      21.555  49.079  36.4670  0.00  0.00     0.000 OA
ATOM    118   O  IDS B   6      21.820  50.340  34.7820  0.00  0.00     0.000 OA
ENDBRANCH 107 116
BRANCH 103 119
ATOM    119  O4  SGN B   7      17.180  51.410  35.7290  0.00  0.00     0.000 O
BRANCH 119 123
ATOM    120  C1  SGN B   7      14.069  49.883  33.3880  0.00  0.00     0.000 C
ATOM    121  C2  SGN B   7      15.465  49.255  33.2170  0.00  0.00     0.000 C
ATOM    122  C3  SGN B   7      16.372  49.629  34.3960  0.00  0.00     0.000 C
ATOM    123  C4  SGN B   7      16.393  51.139  34.5690  0.00  0.00     0.000 C
ATOM    124  C5  SGN B   7      14.958  51.668  34.7240  0.00  0.00     0.000 C
ATOM    125  O5  SGN B   7      14.141  51.293  33.5920  0.00  0.00     0.000 O
ATOM    126   O  SGN B   7      17.686  49.113  34.1560  0.00  0.00     0.000 O
ATOM    128  HD  SGN B   7      16.851  49.137  33.9250  0.00  0.00     0.000 HD
BRANCH 121 130
ATOM    128   N  SGN B   7      15.046  48.600  31.9750  0.00  0.00     0.000 N
ATOM    130  HD  SGN B   7      15.861  48.618  31.6820  0.00  0.00     0.000 HD
ATOM    130   S  SGN B   7      15.399  47.061  31.6550  0.00  0.00     0.000 S
ATOM    131   O  SGN B   7      14.995  46.338  32.8120  0.00  0.00     0.000 OA
ATOM    132   O  SGN B   7      14.862  46.736  30.3830  0.00  0.00     0.000 OA
ATOM    133   O  SGN B   7      16.943  47.170  31.4170  0.00  0.00     0.000 OA
ENDBRANCH 121 130
BRANCH 124 134
ATOM    134   C  SGN B   7      14.865  53.164  34.7850  0.00  0.00     0.000 C
ATOM    135   O  SGN B   7      13.718  53.583  34.0270  0.00  0.00     0.000 O
ATOM    136   S  SGN B   7      13.355  55.110  34.0930  0.00  0.00     0.000 S
ATOM    137   O  SGN B   7      12.250  55.304  33.1840  0.00  0.00     0.000 OA
ATOM    138   O  SGN B   7      14.555  55.802  33.6790  0.00  0.00     0.000 OA
ATOM    139   O  SGN B   7      13.008  55.290  35.4940  0.00  0.00     0.000 OA
ENDBRANCH 124 134
BRANCH 120 140
ATOM    140  O4  IDS B   8      13.140  49.587  34.3040  0.00  0.00     0.000 O
BRANCH 140 144
ATOM    141  C1  IDS B   8      11.751  48.785  37.5270  0.00  0.00     0.000 C
ATOM    142  C2  IDS B   8      13.130  48.218  37.0870  0.00  0.00     0.000 C
ATOM    143  C3  IDS B   8      13.106  47.597  35.6780  0.00  0.00     0.000 C
ATOM    144  C4  IDS B   8      12.336  48.463  34.6830  0.00  0.00     0.000 C
ATOM    145  C5  IDS B   8      11.018  48.945  35.3100  0.00  0.00     0.000 C
ATOM    146  O5  IDS B   8      11.242  49.657  36.5250  0.00  0.00     0.000 O
BRANCH 142 147
ATOM    147   O  IDS B   8      14.134  49.314  37.0680  0.00  0.00     0.000 O
ATOM    148   S  IDS B   8      15.150  49.540  38.3120  0.00  0.00     0.000 S
ATOM    149   O  IDS B   8      14.625  48.811  39.4440  0.00  0.00     0.000 OA
ATOM    150   O  IDS B   8      16.432  49.031  37.8620  0.00  0.00     0.000 OA
ATOM    151   O  IDS B   8      15.156  50.971  38.5450  0.00  0.00     0.000 OA
ENDBRANCH 142 147
BRANCH 145 152
ATOM    152   C  IDS B   8      10.254  49.891  34.4070  0.00  0.00     0.000 C
ATOM    153   O  IDS B   8       9.906  49.515  33.2930  0.00  0.00     0.000 OA
ATOM    154   O  IDS B   8       9.975  51.008  34.8030  0.00  0.00     0.000 OA
ENDBRANCH 145 152
ENDBRANCH 140 144
ENDBRANCH 120 140
ENDBRANCH 119 123
ENDBRANCH 103 119
ENDBRANCH 102 106
ENDBRANCH 82 102
ENDBRANCH 81 85
ENDBRANCH 65 81
ENDBRANCH 64 68
ENDBRANCH 41 64
ENDBRANCH 40 44
ENDBRANCH 24 40
ENDBRANCH 23 27
ENDBRANCH 1 23
TORSDOF 31
ENDMDL
MODEL 62
REMARK VINA RESULT:      -1.3     77.976     83.903
ROOT
ATOM      1  C1  SGN B   1      76.963  51.400  75.8320  0.00  0.00     0.000 C
ATOM      2  C2  SGN B   1      76.254  52.595  76.4890  0.00  0.00     0.000 C
ATOM      3  C3  SGN B   1      76.341  53.837  75.5950  0.00  0.00     0.000 C
ATOM      4  C4  SGN B   1      77.797  54.148  75.2670  0.00  0.00     0.000 C
ATOM      5  C5  SGN B   1      78.475  52.880  74.7530  0.00  0.00     0.000 C
ATOM      6  O5  SGN B   1      78.315  51.823  75.7190  0.00  0.00     0.000 O
ATOM      7   O  SGN B   1      75.722  54.952  76.2260  0.00  0.00     0.000 O
ATOM      9  HD  SGN B   1      76.354  54.761  76.7860  0.00  0.00     0.000 HD
ATOM      9   O  SGN B   1      77.851  55.164  74.2830  0.00  0.00     0.000 O
ATOM     11  HD  SGN B   1      78.483  54.974  74.8430  0.00  0.00     0.000 HD
ENDROOT
BRANCH 2 13
ATOM     11   N  SGN B   1      75.737  52.055  77.7610  0.00  0.00     0.000 N
ATOM     13  HD  SGN B   1      75.595  51.637  77.0150  0.00  0.00     0.000 HD
ATOM     13   S  SGN B   1      74.413  51.143  77.8320  0.00  0.00     0.000 S
ATOM     14   O  SGN B   1      73.903  50.925  76.5350  0.00  0.00     0.000 OA
ATOM     15   O  SGN B   1      74.680  50.027  78.6750  0.00  0.00     0.000 OA
ATOM     16   O  SGN B   1      73.509  52.124  78.6400  0.00  0.00     0.000 OA
ENDBRANCH 2 13
BRANCH 5 17
ATOM     17   C  SGN B   1      79.954  53.035  74.4970  0.00  0.00     0.000 C
ATOM     18   O  SGN B   1      80.578  53.815  75.5360  0.00  0.00     0.000 O
ATOM     19   S  SGN B   1      81.595  54.948  75.0480  0.00  0.00     0.000 S
ATOM     20   O  SGN B   1      82.248  55.411  76.2540  0.00  0.00     0.000 OA
ATOM     21   O  SGN B   1      82.481  54.259  74.1400  0.00  0.00     0.000 OA
ATOM     22   O  SGN B   1      80.767  55.951  74.4150  0.00  0.00     0.000 OA
ENDBRANCH 5 17
BRANCH 1 23
ATOM     23  O4  IDS B   2      76.710  50.357  74.9910  0.00  0.00     0.000 O
BRANCH 23 27
ATOM     24  C1  IDS B   2      76.984  51.401  70.9830  0.00  0.00     0.000 C
ATOM     25  C2  IDS B   2      75.574  51.504  71.6040  0.00  0.00     0.000 C
ATOM     26  C3  IDS B   2      75.637  51.391  73.1250  0.00  0.00     0.000 C
ATOM     27  C4  IDS B   2      76.350  50.136  73.6120  0.00  0.00     0.000 C
ATOM     28  C5  IDS B   2      77.540  49.813  72.6860  0.00  0.00     0.000 C
ATOM     29  O5  IDS B   2      77.942  50.963  71.9560  0.00  0.00     0.000 O
ATOM     30   O  IDS B   2      74.315  51.365  73.6490  0.00  0.00     0.000 O
ATOM     32  HD  IDS B   2      73.934  50.590  73.5770  0.00  0.00     0.000 HD
BRANCH 25 32
ATOM     32   O  IDS B   2      74.909  52.790  71.2780  0.00  0.00     0.000 O
ATOM     33   S  IDS B   2      73.508  52.851  70.4080  0.00  0.00     0.000 S
ATOM     34   O  IDS B   2      73.285  54.254  70.0970  0.00  0.00     0.000 OA
ATOM     35   O  IDS B   2      73.655  52.054  69.1980  0.00  0.00     0.000 OA
ATOM     36   O  IDS B   2      72.482  52.337  71.2850  0.00  0.00     0.000 OA
ENDBRANCH 25 32
BRANCH 28 37
ATOM     37   C  IDS B   2      78.794  49.177  73.3200  0.00  0.00     0.000 C
ATOM     38   O  IDS B   2      78.639  48.010  73.5930  0.00  0.00     0.000 OA
ATOM     39   O  IDS B   2      79.909  49.725  73.5000  0.00  0.00     0.000 OA
ENDBRANCH 28 37
BRANCH 24 40
ATOM     40  O4  SUS B   3      77.131  51.411  69.6420  0.00  0.00     0.000 O
BRANCH 40 44
ATOM     41  C1  SUS B   3      80.188  52.997  67.2580  0.00  0.00     0.000 C
ATOM     42  C2  SUS B   3      80.526  51.750  68.1000  0.00  0.00     0.000 C
ATOM     43  C3  SUS B   3      79.230  51.048  68.5010  0.00  0.00     0.000 C
ATOM     44  C4  SUS B   3      78.329  52.047  69.2090  0.00  0.00     0.000 C
ATOM     45  C5  SUS B   3      77.997  53.173  68.2510  0.00  0.00     0.000 C
ATOM     46  O5  SUS B   3      79.225  53.840  67.8980  0.00  0.00     0.000 O
BRANCH 42 49
ATOM     47   N  SUS B   3      81.434  50.739  67.5330  0.00  0.00     0.000 N
ATOM     49  HD  SUS B   3      81.222  49.910  67.6660  0.00  0.00     0.000 HD
ATOM     49   S  SUS B   3      82.954  50.944  67.9970  0.00  0.00     0.000 S
ATOM     50   O  SUS B   3      83.033  50.916  69.4040  0.00  0.00     0.000 OA
ATOM     51   O  SUS B   3      83.505  49.627  67.3930  0.00  0.00     0.000 OA
ATOM     52   O  SUS B   3      83.498  52.062  67.3350  0.00  0.00     0.000 OA
ENDBRANCH 42 49
BRANCH 43 53
ATOM     53   O  SUS B   3      79.576  49.945  69.4190  0.00  0.00     0.000 O
ATOM     54   S  SUS B   3      79.175  48.423  68.9460  0.00  0.00     0.000 S
ATOM     55   O  SUS B   3      80.062  48.059  67.8500  0.00  0.00     0.000 OA
ATOM     56   O  SUS B   3      79.363  47.622  70.1430  0.00  0.00     0.000 OA
ATOM     57   O  SUS B   3      77.779  48.481  68.5030  0.00  0.00     0.000 OA
ENDBRANCH 43 53
BRANCH 45 58
ATOM     58   C  SUS B   3      77.019  54.159  68.8530  0.00  0.00     0.000 C
ATOM     59   S  SUS B   3      76.887  56.211  70.3870  0.00  0.00     0.000 S
ATOM     60   O  SUS B   3      77.746  55.206  69.5150  0.00  0.00     0.000 O
ATOM     61   O  SUS B   3      76.601  55.498  71.6170  0.00  0.00     0.000 OA
ATOM     62   O  SUS B   3      77.832  57.280  70.5720  0.00  0.00     0.000 OA
ATOM     63   O  SUS B   3      75.755  56.531  69.5920  0.00  0.00     0.000 OA
ENDBRANCH 45 58
BRANCH 41 64
ATOM     64  O4  IDS B   4      79.904  52.716  65.9440  0.00  0.00     0.000 O
BRANCH 64 68
ATOM     65  C1  IDS B   4      80.651  52.638  62.3780  0.00  0.00     0.000 C
ATOM     66  C2  IDS B   4      81.775  52.464  63.4070  0.00  0.00     0.000 C
ATOM     67  C3  IDS B   4      81.748  53.471  64.5440  0.00  0.00     0.000 C
ATOM     68  C4  IDS B   4      80.345  53.758  65.0440  0.00  0.00     0.000 C
ATOM     69  C5  IDS B   4      79.431  53.939  63.8250  0.00  0.00     0.000 C
ATOM     70  O5  IDS B   4      79.415  52.728  63.0640  0.00  0.00     0.000 O
ATOM     71   O  IDS B   4      82.336  54.662  64.0630  0.00  0.00     0.000 O
ATOM     73  HD  IDS B   4      82.157  53.815  64.0580  0.00  0.00     0.000 HD
BRANCH 66 73
ATOM     73   O  IDS B   4      81.632  51.148  64.0460  0.00  0.00     0.000 O
ATOM     74   S  IDS B   4      82.752  50.025  63.7290  0.00  0.00     0.000 S
ATOM     75   O  IDS B   4      82.777  49.866  62.2900  0.00  0.00     0.000 OA
ATOM     76   O  IDS B   4      82.234  48.882  64.4360  0.00  0.00     0.000 OA
ATOM     77   O  IDS B   4      83.985  50.548  64.2670  0.00  0.00     0.000 OA
ENDBRANCH 66 73
BRANCH 69 78
ATOM     78   C  IDS B   4      78.035  54.449  64.1550  0.00  0.00     0.000 C
ATOM     79   O  IDS B   4      77.661  55.511  63.6600  0.00  0.00     0.000 OA
ATOM     80   O  IDS B   4      77.279  53.724  64.8290  0.00  0.00     0.000 OA
ENDBRANCH 69 78
BRANCH 65 81
ATOM     81  O4  SGN B   5      80.961  53.663  61.5370  0.00  0.00     0.000 O
BRANCH 81 85
ATOM     82  C1  SGN B   5      80.683  54.972  57.5560  0.00  0.00     0.000 C
ATOM     83  C2  SGN B   5      79.404  55.042  58.4040  0.00  0.00     0.000 C
ATOM     84  C3  SGN B   5      79.773  54.983  59.8930  0.00  0.00     0.000 C
ATOM     85  C4  SGN B   5      80.596  53.735  60.1560  0.00  0.00     0.000 C
ATOM     86  C5  SGN B   5      81.844  53.790  59.2790  0.00  0.00     0.000 C
ATOM     87  O5  SGN B   5      81.436  53.824  57.8980  0.00  0.00     0.000 O
ATOM     88   O  SGN B   5      78.600  54.990  60.6780  0.00  0.00     0.000 O
ATOM     90  HD  SGN B   5      79.117  55.671  60.5420  0.00  0.00     0.000 HD
BRANCH 83 92
ATOM     90   N  SGN B   5      78.666  55.063  57.1270  0.00  0.00     0.000 N
ATOM     92  HD  SGN B   5      78.518  54.259  56.8400  0.00  0.00     0.000 HD
ATOM     92   S  SGN B   5      77.431  56.068  56.9890  0.00  0.00     0.000 S
ATOM     93   O  SGN B   5      76.937  55.843  55.6640  0.00  0.00     0.000 OA
ATOM     94   O  SGN B   5      76.597  55.811  58.1130  0.00  0.00     0.000 OA
ATOM     95   O  SGN B   5      78.032  57.444  57.1770  0.00  0.00     0.000 OA
ENDBRANCH 83 92
BRANCH 86 96
ATOM     96   C  SGN B   5      82.773  52.605  59.4460  0.00  0.00     0.000 C
ATOM     97   O  SGN B   5      82.041  51.379  59.3780  0.00  0.00     0.000 O
ATOM     98   S  SGN B   5      82.607  50.274  58.3630  0.00  0.00     0.000 S
ATOM     99   O  SGN B   5      81.800  49.118  58.6710  0.00  0.00     0.000 OA
ATOM    100   O  SGN B   5      82.441  50.779  57.0480  0.00  0.00     0.000 OA
ATOM    101   O  SGN B   5      83.977  50.122  58.7320  0.00  0.00     0.000 OA
ENDBRANCH 86 96
BRANCH 82 102
ATOM    102  O4  IDS B   6      81.449  56.094  57.6680  0.00  0.00     0.000 O
BRANCH 102 106
ATOM    103  C1  IDS B   6      83.175  59.105  56.5690  0.00  0.00     0.000 C
ATOM    104  C2  IDS B   6      81.667  58.930  56.3250  0.00  0.00     0.000 C
ATOM    105  C3  IDS B   6      81.261  57.586  55.7530  0.00  0.00     0.000 C
ATOM    106  C4  IDS B   6      82.020  56.429  56.3770  0.00  0.00     0.000 C
ATOM    107  C5  IDS B   6      83.500  56.795  56.5150  0.00  0.00     0.000 C
ATOM    108  O5  IDS B   6      83.685  57.991  57.2750  0.00  0.00     0.000 O
ATOM    109   O  IDS B   6      81.465  57.624  54.3500  0.00  0.00     0.000 O
ATOM    111  HD  IDS B   6      82.056  58.248  54.2420  0.00  0.00     0.000 HD
BRANCH 104 111
ATOM    111   O  IDS B   6      80.959  59.035  57.6100  0.00  0.00     0.000 O
ATOM    112   S  IDS B   6      80.168  60.391  57.9250  0.00  0.00     0.000 S
ATOM    113   O  IDS B   6      81.181  61.432  57.8520  0.00  0.00     0.000 OA
ATOM    114   O  IDS B   6      79.077  60.528  56.9530  0.00  0.00     0.000 OA
ATOM    115   O  IDS B   6      79.725  60.095  59.2710  0.00  0.00     0.000 OA
ENDBRANCH 104 111
BRANCH 107 116
ATOM    116   C  IDS B   6      84.246  55.643  57.1750  0.00  0.00     0.000 C
ATOM    117   O  IDS B   6      84.356  54.630  56.5320  0.00  0.00     0.000 OA
ATOM    118   O  IDS B   6      84.698  55.743  58.3050  0.00  0.00     0.000 OA
ENDBRANCH 107 116
BRANCH 103 119
ATOM    119  O4  SGN B   7      83.659  59.449  55.3480  0.00  0.00     0.000 O
BRANCH 119 123
ATOM    120  C1  SGN B   7      86.655  61.963  53.8660  0.00  0.00     0.000 C
ATOM    121  C2  SGN B   7      87.094  60.646  54.5320  0.00  0.00     0.000 C
ATOM    122  C3  SGN B   7      85.908  59.680  54.6480  0.00  0.00     0.000 C
ATOM    123  C4  SGN B   7      84.751  60.370  55.3520  0.00  0.00     0.000 C
ATOM    124  C5  SGN B   7      84.394  61.672  54.6170  0.00  0.00     0.000 C
ATOM    125  O5  SGN B   7      85.539  62.551  54.5320  0.00  0.00     0.000 O
ATOM    126   O  SGN B   7      86.328  58.509  55.3590  0.00  0.00     0.000 O
ATOM    128  HD  SGN B   7      86.547  59.249  54.9640  0.00  0.00     0.000 HD
BRANCH 121 130
ATOM    128   N  SGN B   7      88.478  61.120  54.6190  0.00  0.00     0.000 N
ATOM    130  HD  SGN B   7      88.611  60.625  55.3160  0.00  0.00     0.000 HD
ATOM    130   S  SGN B   7      89.731  60.190  54.2230  0.00  0.00     0.000 S
ATOM    131   O  SGN B   7      89.417  59.668  52.9370  0.00  0.00     0.000 OA
ATOM    132   O  SGN B   7      90.921  60.935  54.4230  0.00  0.00     0.000 OA
ATOM    133   O  SGN B   7      89.704  59.163  55.4060  0.00  0.00     0.000 OA
ENDBRANCH 121 130
BRANCH 124 134
ATOM    134   C  SGN B   7      83.337  62.486  55.3020  0.00  0.00     0.000 C
ATOM    135   O  SGN B   7      83.695  63.875  55.2080  0.00  0.00     0.000 O
ATOM    136   S  SGN B   7      82.636  64.909  55.7340  0.00  0.00     0.000 S
ATOM    137   O  SGN B   7      83.253  66.210  55.6350  0.00  0.00     0.000 OA
ATOM    138   O  SGN B   7      82.367  64.514  57.0980  0.00  0.00     0.000 OA
ATOM    139   O  SGN B   7      81.523  64.710  54.8190  0.00  0.00     0.000 OA
ENDBRANCH 124 134
BRANCH 120 140
ATOM    140  O4  IDS B   8      86.268  62.156  52.6000  0.00  0.00     0.000 O
BRANCH 140 144
ATOM    141  C1  IDS B   8      84.587  61.525  49.4800  0.00  0.00     0.000 C
ATOM    142  C2  IDS B   8      85.180  60.358  50.3180  0.00  0.00     0.000 C
ATOM    143  C3  IDS B   8      86.630  60.616  50.7700  0.00  0.00     0.000 C
ATOM    144  C4  IDS B   8      86.824  62.041  51.2840  0.00  0.00     0.000 C
ATOM    145  C5  IDS B   8      86.148  63.043  50.3360  0.00  0.00     0.000 C
ATOM    146  O5  IDS B   8      84.761  62.757  50.1690  0.00  0.00     0.000 O
BRANCH 142 147
ATOM    147   O  IDS B   8      84.365  60.164  51.5450  0.00  0.00     0.000 O
ATOM    148   S  IDS B   8      83.224  59.013  51.6180  0.00  0.00     0.000 S
ATOM    149   O  IDS B   8      82.941  58.590  50.2650  0.00  0.00     0.000 OA
ATOM    150   O  IDS B   8      83.793  57.954  52.4300  0.00  0.00     0.000 OA
ATOM    151   O  IDS B   8      82.077  59.651  52.2370  0.00  0.00     0.000 OA
ENDBRANCH 142 147
BRANCH 145 152
ATOM    152   C  IDS B   8      86.221  64.469  50.8450  0.00  0.00     0.000 C
ATOM    153   O  IDS B   8      87.315  64.982  51.0500  0.00  0.00     0.000 OA
ATOM    154   O  IDS B   8      85.193  65.097  51.0250  0.00  0.00     0.000 OA
ENDBRANCH 145 152
ENDBRANCH 140 144
ENDBRANCH 120 140
ENDBRANCH 119 123
ENDBRANCH 103 119
ENDBRANCH 102 106
ENDBRANCH 82 102
ENDBRANCH 81 85
ENDBRANCH 65 81
ENDBRANCH 64 68
ENDBRANCH 41 64
ENDBRANCH 40 44
ENDBRANCH 24 40
ENDBRANCH 23 27
ENDBRANCH 1 23
TORSDOF 31
ENDMDL
MODEL 63
REMARK VINA RESULT:      -1.3     71.288     79.668
ROOT
ATOM      1  C1  SGN B   1      49.838  47.889  79.9720  0.00  0.00     0.000 C
ATOM      2  C2  SGN B   1      49.682  47.522  81.4570  0.00  0.00     0.000 C
ATOM      3  C3  SGN B   1      49.945  48.742  82.3470  0.00  0.00     0.000 C
ATOM      4  C4  SGN B   1      51.321  49.327  82.0460  0.00  0.00     0.000 C
ATOM      5  C5  SGN B   1      51.456  49.532  80.5390  0.00  0.00     0.000 C
ATOM      6  O5  SGN B   1      51.197  48.289  79.8580  0.00  0.00     0.000 O
ATOM      7   O  SGN B   1      49.843  48.389  83.7210  0.00  0.00     0.000 O
ATOM      9  HD  SGN B   1      50.493  47.881  83.4570  0.00  0.00     0.000 HD
ATOM      9   O  SGN B   1      51.465  50.562  82.7220  0.00  0.00     0.000 O
ATOM     11  HD  SGN B   1      52.115  50.055  82.4570  0.00  0.00     0.000 HD
ENDROOT
BRANCH 2 13
ATOM     11   N  SGN B   1      49.313  46.094  81.4400  0.00  0.00     0.000 N
ATOM     13  HD  SGN B   1      48.895  46.663  80.9380  0.00  0.00     0.000 HD
ATOM     13   S  SGN B   1      47.824  45.596  81.0900  0.00  0.00     0.000 S
ATOM     14   O  SGN B   1      47.005  46.699  80.7710  0.00  0.00     0.000 OA
ATOM     15   O  SGN B   1      47.916  44.505  80.1780  0.00  0.00     0.000 OA
ATOM     16   O  SGN B   1      47.455  45.000  82.4840  0.00  0.00     0.000 OA
ENDBRANCH 2 13
BRANCH 5 17
ATOM     17   C  SGN B   1      52.821  50.007  80.1040  0.00  0.00     0.000 C
ATOM     18   O  SGN B   1      53.860  49.326  80.8350  0.00  0.00     0.000 O
ATOM     19   S  SGN B   1      55.041  50.245  81.3960  0.00  0.00     0.000 S
ATOM     20   O  SGN B   1      56.047  49.317  81.8680  0.00  0.00     0.000 OA
ATOM     21   O  SGN B   1      55.460  51.019  80.2500  0.00  0.00     0.000 OA
ATOM     22   O  SGN B   1      54.439  51.033  82.4490  0.00  0.00     0.000 OA
ENDBRANCH 5 17
BRANCH 1 23
ATOM     23  O4  IDS B   2      49.107  48.352  78.9180  0.00  0.00     0.000 O
BRANCH 23 27
ATOM     24  C1  IDS B   2      48.812  52.492  78.8440  0.00  0.00     0.000 C
ATOM     25  C2  IDS B   2      47.667  51.755  79.5730  0.00  0.00     0.000 C
ATOM     26  C3  IDS B   2      48.020  50.287  79.8000  0.00  0.00     0.000 C
ATOM     27  C4  IDS B   2      48.408  49.551  78.5240  0.00  0.00     0.000 C
ATOM     28  C5  IDS B   2      49.215  50.486  77.6020  0.00  0.00     0.000 C
ATOM     29  O5  IDS B   2      49.779  51.562  78.3370  0.00  0.00     0.000 O
ATOM     30   O  IDS B   2      46.897  49.616  80.3590  0.00  0.00     0.000 O
ATOM     32  HD  IDS B   2      46.294  49.411  79.7710  0.00  0.00     0.000 HD
BRANCH 25 32
ATOM     32   O  IDS B   2      47.368  52.353  80.8970  0.00  0.00     0.000 O
ATOM     33   S  IDS B   2      45.898  53.019  81.2400  0.00  0.00     0.000 S
ATOM     34   O  IDS B   2      46.047  53.693  82.5200  0.00  0.00     0.000 OA
ATOM     35   O  IDS B   2      45.532  53.955  80.1860  0.00  0.00     0.000 OA
ATOM     36   O  IDS B   2      44.979  51.909  81.3340  0.00  0.00     0.000 OA
ENDBRANCH 25 32
BRANCH 28 37
ATOM     37   C  IDS B   2      50.325  49.859  76.7330  0.00  0.00     0.000 C
ATOM     38   O  IDS B   2      49.888  49.241  75.7910  0.00  0.00     0.000 OA
ATOM     39   O  IDS B   2      51.565  49.987  76.8830  0.00  0.00     0.000 OA
ENDBRANCH 28 37
BRANCH 24 40
ATOM     40  O4  SUS B   3      48.662  53.786  78.4920  0.00  0.00     0.000 O
BRANCH 40 44
ATOM     41  C1  SUS B   3      51.465  56.893  78.3140  0.00  0.00     0.000 C
ATOM     42  C2  SUS B   3      51.584  55.775  77.2590  0.00  0.00     0.000 C
ATOM     43  C3  SUS B   3      50.256  55.028  77.1660  0.00  0.00     0.000 C
ATOM     44  C4  SUS B   3      49.873  54.532  78.5510  0.00  0.00     0.000 C
ATOM     45  C5  SUS B   3      49.697  55.725  79.4680  0.00  0.00     0.000 C
ATOM     46  O5  SUS B   3      50.963  56.408  79.5640  0.00  0.00     0.000 O
BRANCH 42 49
ATOM     47   N  SUS B   3      52.000  56.135  75.8920  0.00  0.00     0.000 N
ATOM     49  HD  SUS B   3      51.581  55.742  75.2440  0.00  0.00     0.000 HD
ATOM     49   S  SUS B   3      53.573  55.945  75.6550  0.00  0.00     0.000 S
ATOM     50   O  SUS B   3      53.942  54.612  75.9270  0.00  0.00     0.000 OA
ATOM     51   O  SUS B   3      53.557  56.207  74.1280  0.00  0.00     0.000 OA
ATOM     52   O  SUS B   3      54.273  56.967  76.3280  0.00  0.00     0.000 OA
ENDBRANCH 42 49
BRANCH 43 53
ATOM     53   O  SUS B   3      50.442  53.881  76.2560  0.00  0.00     0.000 O
ATOM     54   S  SUS B   3      49.508  53.837  74.9040  0.00  0.00     0.000 S
ATOM     55   O  SUS B   3      49.984  54.884  74.0100  0.00  0.00     0.000 OA
ATOM     56   O  SUS B   3      49.698  52.494  74.3880  0.00  0.00     0.000 OA
ATOM     57   O  SUS B   3      48.133  54.099  75.3410  0.00  0.00     0.000 OA
ENDBRANCH 43 53
BRANCH 45 58
ATOM     58   C  SUS B   3      49.217  55.317  80.8440  0.00  0.00     0.000 C
ATOM     59   S  SUS B   3      50.045  54.440  83.1090  0.00  0.00     0.000 S
ATOM     60   O  SUS B   3      50.352  55.084  81.6950  0.00  0.00     0.000 O
ATOM     61   O  SUS B   3      49.829  53.030  82.8450  0.00  0.00     0.000 OA
ATOM     62   O  SUS B   3      51.285  54.693  83.7930  0.00  0.00     0.000 OA
ATOM     63   O  SUS B   3      48.919  55.144  83.6110  0.00  0.00     0.000 OA
ENDBRANCH 45 58
BRANCH 41 64
ATOM     64  O4  IDS B   4      50.833  58.023  77.8550  0.00  0.00     0.000 O
BRANCH 64 68
ATOM     65  C1  IDS B   4      50.734  61.477  76.6990  0.00  0.00     0.000 C
ATOM     66  C2  IDS B   4      51.947  60.592  76.3860  0.00  0.00     0.000 C
ATOM     67  C3  IDS B   4      52.471  59.802  77.5730  0.00  0.00     0.000 C
ATOM     68  C4  IDS B   4      51.363  59.233  78.4390  0.00  0.00     0.000 C
ATOM     69  C5  IDS B   4      50.306  60.327  78.6410  0.00  0.00     0.000 C
ATOM     70  O5  IDS B   4      49.762  60.696  77.3710  0.00  0.00     0.000 O
ATOM     71   O  IDS B   4      53.273  60.678  78.3390  0.00  0.00     0.000 O
ATOM     73  HD  IDS B   4      52.850  60.414  77.6310  0.00  0.00     0.000 HD
BRANCH 66 73
ATOM     73   O  IDS B   4      51.555  59.586  75.3890  0.00  0.00     0.000 O
ATOM     74   S  IDS B   4      52.187  59.703  73.9050  0.00  0.00     0.000 S
ATOM     75   O  IDS B   4      51.853  61.025  73.4200  0.00  0.00     0.000 OA
ATOM     76   O  IDS B   4      51.513  58.635  73.2110  0.00  0.00     0.000 OA
ATOM     77   O  IDS B   4      53.607  59.499  74.0740  0.00  0.00     0.000 OA
ENDBRANCH 66 73
BRANCH 69 78
ATOM     78   C  IDS B   4      49.234  59.986  79.6670  0.00  0.00     0.000 C
ATOM     79   O  IDS B   4      49.101  60.717  80.6480  0.00  0.00     0.000 OA
ATOM     80   O  IDS B   4      48.460  59.041  79.4280  0.00  0.00     0.000 OA
ENDBRANCH 69 78
BRANCH 65 81
ATOM     81  O4  SGN B   5      51.150  62.611  77.3270  0.00  0.00     0.000 O
BRANCH 81 85
ATOM     82  C1  SGN B   5      50.428  66.732  77.6930  0.00  0.00     0.000 C
ATOM     83  C2  SGN B   5      49.445  65.786  78.3990  0.00  0.00     0.000 C
ATOM     84  C3  SGN B   5      50.090  64.403  78.5610  0.00  0.00     0.000 C
ATOM     85  C4  SGN B   5      50.535  63.896  77.2010  0.00  0.00     0.000 C
ATOM     86  C5  SGN B   5      51.521  64.902  76.6120  0.00  0.00     0.000 C
ATOM     87  O5  SGN B   5      50.855  66.170  76.4660  0.00  0.00     0.000 O
ATOM     88   O  SGN B   5      49.173  63.513  79.1570  0.00  0.00     0.000 O
ATOM     90  HD  SGN B   5      49.829  63.905  79.5640  0.00  0.00     0.000 HD
BRANCH 83 92
ATOM     90   N  SGN B   5      48.490  66.912  78.3800  0.00  0.00     0.000 N
ATOM     92  HD  SGN B   5      48.048  66.932  77.6350  0.00  0.00     0.000 HD
ATOM     92   S  SGN B   5      47.617  67.178  79.6920  0.00  0.00     0.000 S
ATOM     93   O  SGN B   5      46.805  68.308  79.3540  0.00  0.00     0.000 OA
ATOM     94   O  SGN B   5      47.008  65.932  80.0090  0.00  0.00     0.000 OA
ATOM     95   O  SGN B   5      48.631  67.474  80.7750  0.00  0.00     0.000 OA
ENDBRANCH 83 92
BRANCH 86 96
ATOM     96   C  SGN B   5      52.063  64.517  75.2510  0.00  0.00     0.000 C
ATOM     97   O  SGN B   5      50.998  64.133  74.3780  0.00  0.00     0.000 O
ATOM     98   S  SGN B   5      50.971  64.846  72.9420  0.00  0.00     0.000 S
ATOM     99   O  SGN B   5      49.939  64.118  72.2440  0.00  0.00     0.000 OA
ATOM    100   O  SGN B   5      50.686  66.220  73.1530  0.00  0.00     0.000 OA
ATOM    101   O  SGN B   5      52.277  64.625  72.4110  0.00  0.00     0.000 OA
ENDBRANCH 86 96
BRANCH 82 102
ATOM    102  O4  IDS B   6      51.502  67.048  78.4700  0.00  0.00     0.000 O
BRANCH 102 106
ATOM    103  C1  IDS B   6      53.777  69.182  80.3490  0.00  0.00     0.000 C
ATOM    104  C2  IDS B   6      52.272  69.172  80.6590  0.00  0.00     0.000 C
ATOM    105  C3  IDS B   6      51.365  69.274  79.4480  0.00  0.00     0.000 C
ATOM    106  C4  IDS B   6      51.855  68.441  78.2770  0.00  0.00     0.000 C
ATOM    107  C5  IDS B   6      53.371  68.603  78.1250  0.00  0.00     0.000 C
ATOM    108  O5  IDS B   6      54.066  68.252  79.3220  0.00  0.00     0.000 O
ATOM    109   O  IDS B   6      51.264  70.641  79.0870  0.00  0.00     0.000 O
ATOM    111  HD  IDS B   6      51.978  70.999  79.4220  0.00  0.00     0.000 HD
BRANCH 104 111
ATOM    111   O  IDS B   6      51.923  67.894  81.2990  0.00  0.00     0.000 O
ATOM    112   S  IDS B   6      51.665  67.889  82.8790  0.00  0.00     0.000 S
ATOM    113   O  IDS B   6      52.904  68.387  83.4540  0.00  0.00     0.000 OA
ATOM    114   O  IDS B   6      50.484  68.713  83.1590  0.00  0.00     0.000 OA
ATOM    115   O  IDS B   6      51.454  66.471  83.0770  0.00  0.00     0.000 OA
ENDBRANCH 104 111
BRANCH 107 116
ATOM    116   C  IDS B   6      53.857  67.736  76.9710  0.00  0.00     0.000 C
ATOM    117   O  IDS B   6      53.515  68.066  75.8640  0.00  0.00     0.000 OA
ATOM    118   O  IDS B   6      54.552  66.751  77.1650  0.00  0.00     0.000 OA
ENDBRANCH 107 116
BRANCH 103 119
ATOM    119  O4  SGN B   7      54.068  70.501  80.2100  0.00  0.00     0.000 O
BRANCH 119 123
ATOM    120  C1  SGN B   7      57.288  73.014  81.1070  0.00  0.00     0.000 C
ATOM    121  C2  SGN B   7      57.443  72.054  79.9120  0.00  0.00     0.000 C
ATOM    122  C3  SGN B   7      56.075  71.515  79.4750  0.00  0.00     0.000 C
ATOM    123  C4  SGN B   7      55.360  70.902  80.6670  0.00  0.00     0.000 C
ATOM    124  C5  SGN B   7      55.262  71.932  81.8040  0.00  0.00     0.000 C
ATOM    125  O5  SGN B   7      56.571  72.411  82.1840  0.00  0.00     0.000 O
ATOM    126   O  SGN B   7      56.266  70.554  78.4300  0.00  0.00     0.000 O
ATOM    128  HD  SGN B   7      56.607  71.170  78.9340  0.00  0.00     0.000 HD
BRANCH 121 130
ATOM    128   N  SGN B   7      58.890  72.280  79.8810  0.00  0.00     0.000 N
ATOM    130  HD  SGN B   7      59.013  71.493  79.5430  0.00  0.00     0.000 HD
ATOM    130   S  SGN B   7      59.689  72.547  78.5090  0.00  0.00     0.000 S
ATOM    131   O  SGN B   7      58.965  73.581  77.8510  0.00  0.00     0.000 OA
ATOM    132   O  SGN B   7      61.063  72.719  78.8180  0.00  0.00     0.000 OA
ATOM    133   O  SGN B   7      59.605  71.126  77.8540  0.00  0.00     0.000 OA
ENDBRANCH 121 130
BRANCH 124 134
ATOM    134   C  SGN B   7      54.672  71.385  83.0700  0.00  0.00     0.000 C
ATOM    135   O  SGN B   7      55.402  71.924  84.1860  0.00  0.00     0.000 O
ATOM    136   S  SGN B   7      54.841  71.592  85.6150  0.00  0.00     0.000 S
ATOM    137   O  SGN B   7      55.784  72.143  86.5590  0.00  0.00     0.000 OA
ATOM    138   O  SGN B   7      54.768  70.149  85.6670  0.00  0.00     0.000 OA
ATOM    139   O  SGN B   7      53.550  72.261  85.6080  0.00  0.00     0.000 OA
ENDBRANCH 124 134
BRANCH 120 140
ATOM    140  O4  IDS B   8      56.714  74.221  81.1240  0.00  0.00     0.000 O
BRANCH 140 144
ATOM    141  C1  IDS B   8      54.290  76.787  80.4140  0.00  0.00     0.000 C
ATOM    142  C2  IDS B   8      54.670  75.728  79.3410  0.00  0.00     0.000 C
ATOM    143  C3  IDS B   8      56.192  75.556  79.1750  0.00  0.00     0.000 C
ATOM    144  C4  IDS B   8      56.913  75.506  80.5210  0.00  0.00     0.000 C
ATOM    145  C5  IDS B   8      56.382  76.611  81.4470  0.00  0.00     0.000 C
ATOM    146  O5  IDS B   8      54.972  76.512  81.6320  0.00  0.00     0.000 O
BRANCH 142 147
ATOM    147   O  IDS B   8      54.118  74.404  79.7330  0.00  0.00     0.000 O
ATOM    148   S  IDS B   8      52.728  73.858  79.1020  0.00  0.00     0.000 S
ATOM    149   O  IDS B   8      52.046  74.984  78.5030  0.00  0.00     0.000 OA
ATOM    150   O  IDS B   8      53.113  72.852  78.1300  0.00  0.00     0.000 OA
ATOM    151   O  IDS B   8      51.988  73.312  80.2240  0.00  0.00     0.000 OA
ENDBRANCH 142 147
BRANCH 145 152
ATOM    152   C  IDS B   8      56.989  76.552  82.8340  0.00  0.00     0.000 C
ATOM    153   O  IDS B   8      56.260  76.387  83.8060  0.00  0.00     0.000 OA
ATOM    154   O  IDS B   8      58.196  76.647  82.9680  0.00  0.00     0.000 OA
ENDBRANCH 145 152
ENDBRANCH 140 144
ENDBRANCH 120 140
ENDBRANCH 119 123
ENDBRANCH 103 119
ENDBRANCH 102 106
ENDBRANCH 82 102
ENDBRANCH 81 85
ENDBRANCH 65 81
ENDBRANCH 64 68
ENDBRANCH 41 64
ENDBRANCH 40 44
ENDBRANCH 24 40
ENDBRANCH 23 27
ENDBRANCH 1 23
TORSDOF 31
ENDMDL
MODEL 64
REMARK VINA RESULT:      -1.3     86.578     93.636
ROOT
ATOM      1  C1  SGN B   1      62.205  64.097  92.2150  0.00  0.00     0.000 C
ATOM      2  C2  SGN B   1      62.706  62.735  91.7070  0.00  0.00     0.000 C
ATOM      3  C3  SGN B   1      63.026  62.798  90.2100  0.00  0.00     0.000 C
ATOM      4  C4  SGN B   1      61.808  63.285  89.4310  0.00  0.00     0.000 C
ATOM      5  C5  SGN B   1      61.281  64.564  90.0780  0.00  0.00     0.000 C
ATOM      6  O5  SGN B   1      61.015  64.324  91.4730  0.00  0.00     0.000 O
ATOM      7   O  SGN B   1      63.446  61.525  89.7340  0.00  0.00     0.000 O
ATOM      9  HD  SGN B   1      62.644  61.353  90.0110  0.00  0.00     0.000 HD
ATOM      9   O  SGN B   1      62.178  63.534  88.0870  0.00  0.00     0.000 O
ATOM     11  HD  SGN B   1      61.375  63.362  88.3640  0.00  0.00     0.000 HD
ENDROOT
BRANCH 2 13
ATOM     11   N  SGN B   1      62.694  61.875  92.9060  0.00  0.00     0.000 N
ATOM     13  HD  SGN B   1      63.068  62.656  92.9280  0.00  0.00     0.000 HD
ATOM     13   S  SGN B   1      63.842  61.954  94.0310  0.00  0.00     0.000 S
ATOM     14   O  SGN B   1      64.770  62.966  93.7070  0.00  0.00     0.000 OA
ATOM     15   O  SGN B   1      63.219  61.959  95.3110  0.00  0.00     0.000 OA
ATOM     16   O  SGN B   1      64.455  60.535  93.8230  0.00  0.00     0.000 OA
ENDBRANCH 2 13
BRANCH 5 17
ATOM     17   C  SGN B   1      60.007  65.085  89.4600  0.00  0.00     0.000 C
ATOM     18   O  SGN B   1      59.102  64.004  89.1590  0.00  0.00     0.000 O
ATOM     19   S  SGN B   1      58.403  64.054  87.7220  0.00  0.00     0.000 S
ATOM     20   O  SGN B   1      57.390  63.020  87.7610  0.00  0.00     0.000 OA
ATOM     21   O  SGN B   1      57.861  65.390  87.6390  0.00  0.00     0.000 OA
ATOM     22   O  SGN B   1      59.465  63.790  86.7760  0.00  0.00     0.000 OA
ENDBRANCH 5 17
BRANCH 1 23
ATOM     23  O4  IDS B   2      62.677  65.262  92.7430  0.00  0.00     0.000 O
BRANCH 23 27
ATOM     24  C1  IDS B   2      63.945  67.948  89.8440  0.00  0.00     0.000 C
ATOM     25  C2  IDS B   2      65.040  67.025  90.4220  0.00  0.00     0.000 C
ATOM     26  C3  IDS B   2      64.423  65.895  91.2430  0.00  0.00     0.000 C
ATOM     27  C4  IDS B   2      63.493  66.383  92.3460  0.00  0.00     0.000 C
ATOM     28  C5  IDS B   2      62.697  67.611  91.8580  0.00  0.00     0.000 C
ATOM     29  O5  IDS B   2      62.671  67.668  90.4390  0.00  0.00     0.000 O
ATOM     30   O  IDS B   2      65.462  65.144  91.8600  0.00  0.00     0.000 O
ATOM     32  HD  IDS B   2      65.785  65.524  92.5680  0.00  0.00     0.000 HD
BRANCH 25 32
ATOM     32   O  IDS B   2      65.870  66.406  89.3600  0.00  0.00     0.000 O
ATOM     33   S  IDS B   2      67.491  66.692  89.2430  0.00  0.00     0.000 S
ATOM     34   O  IDS B   2      67.914  66.113  87.9780  0.00  0.00     0.000 OA
ATOM     35   O  IDS B   2      67.733  68.127  89.2790  0.00  0.00     0.000 OA
ATOM     36   O  IDS B   2      68.091  66.005  90.3630  0.00  0.00     0.000 OA
ENDBRANCH 25 32
BRANCH 28 37
ATOM     37   C  IDS B   2      61.255  67.787  92.3770  0.00  0.00     0.000 C
ATOM     38   O  IDS B   2      60.443  67.862  91.4850  0.00  0.00     0.000 OA
ATOM     39   O  IDS B   2      60.878  67.791  93.5740  0.00  0.00     0.000 OA
ENDBRANCH 28 37
BRANCH 24 40
ATOM     40  O4  SUS B   3      64.293  69.047  89.1420  0.00  0.00     0.000 O
BRANCH 40 44
ATOM     41  C1  SUS B   3      62.426  70.885  85.8740  0.00  0.00     0.000 C
ATOM     42  C2  SUS B   3      61.716  70.984  87.2380  0.00  0.00     0.000 C
ATOM     43  C3  SUS B   3      62.724  70.706  88.3520  0.00  0.00     0.000 C
ATOM     44  C4  SUS B   3      63.383  69.360  88.0940  0.00  0.00     0.000 C
ATOM     45  C5  SUS B   3      64.121  69.421  86.7720  0.00  0.00     0.000 C
ATOM     46  O5  SUS B   3      63.156  69.661  85.7280  0.00  0.00     0.000 O
BRANCH 42 49
ATOM     47   N  SUS B   3      60.999  72.226  87.5740  0.00  0.00     0.000 N
ATOM     49  HD  SUS B   3      61.086  72.516  88.3850  0.00  0.00     0.000 HD
ATOM     49   S  SUS B   3      59.434  72.146  87.2400  0.00  0.00     0.000 S
ATOM     50   O  SUS B   3      58.852  71.062  87.9280  0.00  0.00     0.000 OA
ATOM     51   O  SUS B   3      59.039  73.490  87.9030  0.00  0.00     0.000 OA
ATOM     52   O  SUS B   3      59.250  72.206  85.8440  0.00  0.00     0.000 OA
ENDBRANCH 42 49
BRANCH 43 53
ATOM     53   O  SUS B   3      61.989  70.668  89.6310  0.00  0.00     0.000 O
ATOM     54   S  SUS B   3      62.419  71.768  90.7750  0.00  0.00     0.000 S
ATOM     55   O  SUS B   3      61.962  73.073  90.3190  0.00  0.00     0.000 OA
ATOM     56   O  SUS B   3      61.753  71.302  91.9780  0.00  0.00     0.000 OA
ATOM     57   O  SUS B   3      63.881  71.720  90.8680  0.00  0.00     0.000 OA
ENDBRANCH 43 53
BRANCH 45 58
ATOM     58   C  SUS B   3      64.888  68.147  86.4920  0.00  0.00     0.000 C
ATOM     59   S  SUS B   3      64.613  65.772  85.5600  0.00  0.00     0.000 S
ATOM     60   O  SUS B   3      64.052  67.240  85.7540  0.00  0.00     0.000 O
ATOM     61   O  SUS B   3      64.383  65.107  86.8280  0.00  0.00     0.000 OA
ATOM     62   O  SUS B   3      63.749  65.291  84.5150  0.00  0.00     0.000 OA
ATOM     63   O  SUS B   3      65.976  65.932  85.1950  0.00  0.00     0.000 OA
ENDBRANCH 45 58
BRANCH 41 64
ATOM     64  O4  IDS B   4      63.142  72.009  85.5400  0.00  0.00     0.000 O
BRANCH 64 68
ATOM     65  C1  IDS B   4      63.724  75.085  83.6770  0.00  0.00     0.000 C
ATOM     66  C2  IDS B   4      62.295  74.658  84.0360  0.00  0.00     0.000 C
ATOM     67  C3  IDS B   4      61.988  73.197  83.7560  0.00  0.00     0.000 C
ATOM     68  C4  IDS B   4      63.134  72.273  84.1190  0.00  0.00     0.000 C
ATOM     69  C5  IDS B   4      64.437  72.903  83.6080  0.00  0.00     0.000 C
ATOM     70  O5  IDS B   4      64.634  74.164  84.2520  0.00  0.00     0.000 O
ATOM     71   O  IDS B   4      61.704  73.085  82.3760  0.00  0.00     0.000 O
ATOM     73  HD  IDS B   4      61.808  73.503  83.1270  0.00  0.00     0.000 HD
BRANCH 66 73
ATOM     73   O  IDS B   4      62.100  74.829  85.4820  0.00  0.00     0.000 O
ATOM     74   S  IDS B   4      61.088  75.989  85.9780  0.00  0.00     0.000 S
ATOM     75   O  IDS B   4      61.570  77.227  85.4030  0.00  0.00     0.000 OA
ATOM     76   O  IDS B   4      61.229  75.913  87.4100  0.00  0.00     0.000 OA
ATOM     77   O  IDS B   4      59.786  75.601  85.4890  0.00  0.00     0.000 OA
ENDBRANCH 66 73
BRANCH 69 78
ATOM     78   C  IDS B   4      65.655  71.994  83.7010  0.00  0.00     0.000 C
ATOM     79   O  IDS B   4      66.260  71.711  82.6680  0.00  0.00     0.000 OA
ATOM     80   O  IDS B   4      66.060  71.654  84.8270  0.00  0.00     0.000 OA
ENDBRANCH 69 78
BRANCH 65 81
ATOM     81  O4  SGN B   5      63.815  75.278  82.3310  0.00  0.00     0.000 O
BRANCH 81 85
ATOM     82  C1  SGN B   5      65.604  77.658  79.3700  0.00  0.00     0.000 C
ATOM     83  C2  SGN B   5      66.493  76.609  80.0530  0.00  0.00     0.000 C
ATOM     84  C3  SGN B   5      65.611  75.553  80.7330  0.00  0.00     0.000 C
ATOM     85  C4  SGN B   5      64.656  76.241  81.6920  0.00  0.00     0.000 C
ATOM     86  C5  SGN B   5      63.815  77.237  80.8980  0.00  0.00     0.000 C
ATOM     87  O5  SGN B   5      64.693  78.211  80.3010  0.00  0.00     0.000 O
ATOM     88   O  SGN B   5      66.421  74.617  81.4110  0.00  0.00     0.000 O
ATOM     90  HD  SGN B   5      66.041  74.489  80.6430  0.00  0.00     0.000 HD
BRANCH 83 92
ATOM     90   N  SGN B   5      67.641  77.420  79.6020  0.00  0.00     0.000 N
ATOM     92  HD  SGN B   5      67.820  78.048  80.1710  0.00  0.00     0.000 HD
ATOM     92   S  SGN B   5      68.916  76.657  79.0130  0.00  0.00     0.000 S
ATOM     93   O  SGN B   5      69.834  77.704  78.6800  0.00  0.00     0.000 OA
ATOM     94   O  SGN B   5      69.267  75.683  79.9890  0.00  0.00     0.000 OA
ATOM     95   O  SGN B   5      68.394  75.914  77.8020  0.00  0.00     0.000 OA
ENDBRANCH 83 92
BRANCH 86 96
ATOM     96   C  SGN B   5      62.801  77.995  81.7300  0.00  0.00     0.000 C
ATOM     97   O  SGN B   5      63.413  78.526  82.9080  0.00  0.00     0.000 O
ATOM     98   S  SGN B   5      63.167  80.085  83.1900  0.00  0.00     0.000 S
ATOM     99   O  SGN B   5      63.720  80.260  84.5110  0.00  0.00     0.000 OA
ATOM    100   O  SGN B   5      63.831  80.813  82.1690  0.00  0.00     0.000 OA
ATOM    101   O  SGN B   5      61.748  80.234  83.1460  0.00  0.00     0.000 OA
ENDBRANCH 86 96
BRANCH 82 102
ATOM    102  O4  IDS B   6      64.936  77.159  78.2920  0.00  0.00     0.000 O
BRANCH 102 106
ATOM    103  C1  IDS B   6      63.953  76.843  74.8000  0.00  0.00     0.000 C
ATOM    104  C2  IDS B   6      65.429  76.733  75.2140  0.00  0.00     0.000 C
ATOM    105  C3  IDS B   6      65.914  77.815  76.1600  0.00  0.00     0.000 C
ATOM    106  C4  IDS B   6      64.896  78.152  77.2360  0.00  0.00     0.000 C
ATOM    107  C5  IDS B   6      63.498  78.234  76.6170  0.00  0.00     0.000 C
ATOM    108  O5  IDS B   6      63.141  77.025  75.9440  0.00  0.00     0.000 O
ATOM    109   O  IDS B   6      66.233  78.963  75.3910  0.00  0.00     0.000 O
ATOM    111  HD  IDS B   6      65.769  78.864  74.6670  0.00  0.00     0.000 HD
BRANCH 104 111
ATOM    111   O  IDS B   6      65.632  75.467  75.9350  0.00  0.00     0.000 O
ATOM    112   S  IDS B   6      66.356  74.267  75.1620  0.00  0.00     0.000 S
ATOM    113   O  IDS B   6      65.520  74.024  73.9970  0.00  0.00     0.000 OA
ATOM    114   O  IDS B   6      67.731  74.677  74.8540  0.00  0.00     0.000 OA
ATOM    115   O  IDS B   6      66.260  73.242  76.1790  0.00  0.00     0.000 OA
ENDBRANCH 104 111
BRANCH 107 116
ATOM    116   C  IDS B   6      62.481  78.536  77.7100  0.00  0.00     0.000 C
ATOM    117   O  IDS B   6      61.687  77.667  77.9680  0.00  0.00     0.000 OA
ATOM    118   O  IDS B   6      62.468  79.613  78.2860  0.00  0.00     0.000 OA
ENDBRANCH 107 116
BRANCH 103 119
ATOM    119  O4  SGN B   7      63.970  77.753  73.7930  0.00  0.00     0.000 O
BRANCH 119 123
ATOM    120  C1  SGN B   7      61.909  78.349  70.2020  0.00  0.00     0.000 C
ATOM    121  C2  SGN B   7      61.161  78.654  71.5130  0.00  0.00     0.000 C
ATOM    122  C3  SGN B   7      62.148  78.776  72.6810  0.00  0.00     0.000 C
ATOM    123  C4  SGN B   7      63.023  77.535  72.7460  0.00  0.00     0.000 C
ATOM    124  C5  SGN B   7      63.718  77.314  71.3930  0.00  0.00     0.000 C
ATOM    125  O5  SGN B   7      62.751  77.204  70.3240  0.00  0.00     0.000 O
ATOM    126   O  SGN B   7      61.413  78.961  73.8960  0.00  0.00     0.000 O
ATOM    128  HD  SGN B   7      61.408  78.929  73.0300  0.00  0.00     0.000 HD
BRANCH 121 130
ATOM    128   N  SGN B   7      59.878  78.689  70.8070  0.00  0.00     0.000 N
ATOM    130  HD  SGN B   7      59.466  78.443  71.5280  0.00  0.00     0.000 HD
ATOM    130   S  SGN B   7      58.785  79.844  71.0650  0.00  0.00     0.000 S
ATOM    131   O  SGN B   7      59.502  81.067  70.9470  0.00  0.00     0.000 OA
ATOM    132   O  SGN B   7      57.662  79.588  70.2380  0.00  0.00     0.000 OA
ATOM    133   O  SGN B   7      58.310  79.463  72.5080  0.00  0.00     0.000 OA
ENDBRANCH 121 130
BRANCH 124 134
ATOM    134   C  SGN B   7      64.516  76.046  71.3200  0.00  0.00     0.000 C
ATOM    135   O  SGN B   7      64.323  75.457  70.0230  0.00  0.00     0.000 O
ATOM    136   S  SGN B   7      65.197  74.195  69.6900  0.00  0.00     0.000 S
ATOM    137   O  SGN B   7      64.758  73.727  68.3970  0.00  0.00     0.000 OA
ATOM    138   O  SGN B   7      64.925  73.255  70.7530  0.00  0.00     0.000 OA
ATOM    139   O  SGN B   7      66.546  74.739  69.6960  0.00  0.00     0.000 OA
ENDBRANCH 124 134
BRANCH 120 140
ATOM    140  O4  IDS B   8      62.740  79.148  69.5240  0.00  0.00     0.000 O
BRANCH 140 144
ATOM    141  C1  IDS B   8      65.380  81.529  68.9590  0.00  0.00     0.000 C
ATOM    142  C2  IDS B   8      64.437  81.657  70.1900  0.00  0.00     0.000 C
ATOM    143  C3  IDS B   8      62.947  81.539  69.8230  0.00  0.00     0.000 C
ATOM    144  C4  IDS B   8      62.688  80.403  68.8340  0.00  0.00     0.000 C
ATOM    145  C5  IDS B   8      63.734  80.431  67.7100  0.00  0.00     0.000 C
ATOM    146  O5  IDS B   8      65.062  80.355  68.2230  0.00  0.00     0.000 O
BRANCH 142 147
ATOM    147   O  IDS B   8      64.739  80.572  71.1600  0.00  0.00     0.000 O
ATOM    148   S  IDS B   8      65.687  80.841  72.4480  0.00  0.00     0.000 S
ATOM    149   O  IDS B   8      66.405  82.074  72.2140  0.00  0.00     0.000 OA
ATOM    150   O  IDS B   8      64.785  80.924  73.5820  0.00  0.00     0.000 OA
ATOM    151   O  IDS B   8      66.578  79.699  72.5130  0.00  0.00     0.000 OA
ENDBRANCH 142 147
BRANCH 145 152
ATOM    152   C  IDS B   8      63.590  79.268  66.7500  0.00  0.00     0.000 C
ATOM    153   O  IDS B   8      64.519  78.480  66.6120  0.00  0.00     0.000 OA
ATOM    154   O  IDS B   8      62.547  79.116  66.1410  0.00  0.00     0.000 OA
ENDBRANCH 145 152
ENDBRANCH 140 144
ENDBRANCH 120 140
ENDBRANCH 119 123
ENDBRANCH 103 119
ENDBRANCH 102 106
ENDBRANCH 82 102
ENDBRANCH 81 85
ENDBRANCH 65 81
ENDBRANCH 64 68
ENDBRANCH 41 64
ENDBRANCH 40 44
ENDBRANCH 24 40
ENDBRANCH 23 27
ENDBRANCH 1 23
TORSDOF 31
ENDMDL
MODEL 65
REMARK VINA RESULT:      -1.3     57.496     66.881
ROOT
ATOM      1  C1  SGN B   1      23.082  56.917  65.9050  0.00  0.00     0.000 C
ATOM      2  C2  SGN B   1      22.266  55.812  65.2150  0.00  0.00     0.000 C
ATOM      3  C3  SGN B   1      21.018  56.397  64.5450  0.00  0.00     0.000 C
ATOM      4  C4  SGN B   1      20.186  57.168  65.5650  0.00  0.00     0.000 C
ATOM      5  C5  SGN B   1      21.091  58.147  66.3100  0.00  0.00     0.000 C
ATOM      6  O5  SGN B   1      22.198  57.431  66.8920  0.00  0.00     0.000 O
ATOM      7   O  SGN B   1      20.242  55.367  63.9450  0.00  0.00     0.000 O
ATOM      9  HD  SGN B   1      20.232  55.132  64.7790  0.00  0.00     0.000 HD
ATOM      9   O  SGN B   1      19.154  57.870  64.8970  0.00  0.00     0.000 O
ATOM     11  HD  SGN B   1      19.144  57.635  65.7300  0.00  0.00     0.000 HD
ENDROOT
BRANCH 2 13
ATOM     11   N  SGN B   1      23.059  54.598  65.4860  0.00  0.00     0.000 N
ATOM     13  HD  SGN B   1      23.432  55.300  65.1420  0.00  0.00     0.000 HD
ATOM     13   S  SGN B   1      24.366  54.217  64.6300  0.00  0.00     0.000 S
ATOM     14   O  SGN B   1      24.628  55.218  63.6710  0.00  0.00     0.000 OA
ATOM     15   O  SGN B   1      25.397  53.824  65.5310  0.00  0.00     0.000 OA
ATOM     16   O  SGN B   1      23.822  52.917  63.9590  0.00  0.00     0.000 OA
ENDBRANCH 2 13
BRANCH 5 17
ATOM     17   C  SGN B   1      20.402  58.893  67.4260  0.00  0.00     0.000 C
ATOM     18   O  SGN B   1      19.517  58.022  68.1580  0.00  0.00     0.000 O
ATOM     19   S  SGN B   1      18.067  58.611  68.4870  0.00  0.00     0.000 S
ATOM     20   O  SGN B   1      17.477  57.663  69.4080  0.00  0.00     0.000 OA
ATOM     21   O  SGN B   1      18.336  59.901  69.0770  0.00  0.00     0.000 OA
ATOM     22   O  SGN B   1      17.389  58.678  67.2110  0.00  0.00     0.000 OA
ENDBRANCH 5 17
BRANCH 1 23
ATOM     23  O4  IDS B   2      24.088  57.801  65.6480  0.00  0.00     0.000 O
BRANCH 23 27
ATOM     24  C1  IDS B   2      22.746  61.301  63.8660  0.00  0.00     0.000 C
ATOM     25  C2  IDS B   2      23.210  60.194  62.8940  0.00  0.00     0.000 C
ATOM     26  C3  IDS B   2      23.395  58.867  63.6270  0.00  0.00     0.000 C
ATOM     27  C4  IDS B   2      24.331  58.960  64.8240  0.00  0.00     0.000 C
ATOM     28  C5  IDS B   2      24.132  60.308  65.5460  0.00  0.00     0.000 C
ATOM     29  O5  IDS B   2      22.868  60.872  65.2280  0.00  0.00     0.000 O
ATOM     30   O  IDS B   2      23.939  57.908  62.7290  0.00  0.00     0.000 O
ATOM     32  HD  IDS B   2      24.793  57.996  62.6110  0.00  0.00     0.000 HD
BRANCH 25 32
ATOM     32   O  IDS B   2      22.238  59.967  61.7960  0.00  0.00     0.000 O
ATOM     33   S  IDS B   2      22.643  60.197  60.2130  0.00  0.00     0.000 S
ATOM     34   O  IDS B   2      21.402  60.103  59.4600  0.00  0.00     0.000 OA
ATOM     35   O  IDS B   2      23.263  61.505  60.0570  0.00  0.00     0.000 OA
ATOM     36   O  IDS B   2      23.543  59.117  59.8800  0.00  0.00     0.000 OA
ENDBRANCH 25 32
BRANCH 28 37
ATOM     37   C  IDS B   2      24.305  60.338  67.0780  0.00  0.00     0.000 C
ATOM     38   O  IDS B   2      23.321  60.742  67.6520  0.00  0.00     0.000 OA
ATOM     39   O  IDS B   2      25.298  59.939  67.7340  0.00  0.00     0.000 OA
ENDBRANCH 28 37
BRANCH 24 40
ATOM     40  O4  SUS B   3      22.592  62.566  63.4200  0.00  0.00     0.000 O
BRANCH 40 44
ATOM     41  C1  SUS B   3      19.860  65.530  64.5570  0.00  0.00     0.000 C
ATOM     42  C2  SUS B   3      20.957  65.155  65.5740  0.00  0.00     0.000 C
ATOM     43  C3  SUS B   3      22.101  64.456  64.8440  0.00  0.00     0.000 C
ATOM     44  C4  SUS B   3      21.542  63.271  64.0730  0.00  0.00     0.000 C
ATOM     45  C5  SUS B   3      20.547  63.778  63.0480  0.00  0.00     0.000 C
ATOM     46  O5  SUS B   3      19.462  64.415  63.7510  0.00  0.00     0.000 O
BRANCH 42 49
ATOM     47   N  SUS B   3      21.534  66.219  66.4130  0.00  0.00     0.000 N
ATOM     49  HD  SUS B   3      22.391  66.195  66.5340  0.00  0.00     0.000 HD
ATOM     49   S  SUS B   3      20.831  66.322  67.8490  0.00  0.00     0.000 S
ATOM     50   O  SUS B   3      20.927  65.086  68.5200  0.00  0.00     0.000 OA
ATOM     51   O  SUS B   3      21.818  67.351  68.4580  0.00  0.00     0.000 OA
ATOM     52   O  SUS B   3      19.550  66.889  67.7030  0.00  0.00     0.000 OA
ENDBRANCH 42 49
BRANCH 43 53
ATOM     53   O  SUS B   3      23.066  63.986  65.8560  0.00  0.00     0.000 O
ATOM     54   S  SUS B   3      24.596  64.580  65.7660  0.00  0.00     0.000 S
ATOM     55   O  SUS B   3      24.546  65.978  66.1700  0.00  0.00     0.000 OA
ATOM     56   O  SUS B   3      25.355  63.735  66.6720  0.00  0.00     0.000 OA
ATOM     57   O  SUS B   3      25.012  64.446  64.3670  0.00  0.00     0.000 OA
ENDBRANCH 43 53
BRANCH 45 58
ATOM     58   C  SUS B   3      20.020  62.663  62.1710  0.00  0.00     0.000 C
ATOM     59   S  SUS B   3      18.279  60.779  62.1060  0.00  0.00     0.000 S
ATOM     60   O  SUS B   3      18.843  62.099  62.7740  0.00  0.00     0.000 O
ATOM     61   O  SUS B   3      19.149  59.716  62.5730  0.00  0.00     0.000 OA
ATOM     62   O  SUS B   3      16.967  60.721  62.6920  0.00  0.00     0.000 OA
ATOM     63   O  SUS B   3      18.310  61.018  60.7070  0.00  0.00     0.000 OA
ENDBRANCH 45 58
BRANCH 41 64
ATOM     64  O4  IDS B   4      20.134  66.671  63.8430  0.00  0.00     0.000 O
BRANCH 64 68
ATOM     65  C1  IDS B   4      19.699  70.188  62.9970  0.00  0.00     0.000 C
ATOM     66  C2  IDS B   4      19.528  69.715  64.4460  0.00  0.00     0.000 C
ATOM     67  C3  IDS B   4      18.676  68.467  64.6030  0.00  0.00     0.000 C
ATOM     68  C4  IDS B   4      18.945  67.430  63.5290  0.00  0.00     0.000 C
ATOM     69  C5  IDS B   4      19.022  68.152  62.1770  0.00  0.00     0.000 C
ATOM     70  O5  IDS B   4      20.103  69.087  62.2030  0.00  0.00     0.000 O
ATOM     71   O  IDS B   4      17.324  68.872  64.5480  0.00  0.00     0.000 O
ATOM     73  HD  IDS B   4      18.177  68.986  64.6460  0.00  0.00     0.000 HD
BRANCH 66 73
ATOM     73   O  IDS B   4      20.847  69.359  64.9860  0.00  0.00     0.000 O
ATOM     74   S  IDS B   4      21.471  70.299  66.1460  0.00  0.00     0.000 S
ATOM     75   O  IDS B   4      21.512  71.642  65.6080  0.00  0.00     0.000 OA
ATOM     76   O  IDS B   4      22.769  69.705  66.3430  0.00  0.00     0.000 OA
ATOM     77   O  IDS B   4      20.579  70.163  67.2730  0.00  0.00     0.000 OA
ENDBRANCH 66 73
BRANCH 69 78
ATOM     78   C  IDS B   4      19.068  67.225  60.9700  0.00  0.00     0.000 C
ATOM     79   O  IDS B   4      18.181  67.313  60.1220  0.00  0.00     0.000 OA
ATOM     80   O  IDS B   4      20.058  66.484  60.8260  0.00  0.00     0.000 OA
ENDBRANCH 69 78
BRANCH 65 81
ATOM     81  O4  SGN B   5      18.576  70.850  62.6010  0.00  0.00     0.000 O
BRANCH 81 85
ATOM     82  C1  SGN B   5      17.187  74.069  60.2890  0.00  0.00     0.000 C
ATOM     83  C2  SGN B   5      17.640  72.811  59.5330  0.00  0.00     0.000 C
ATOM     84  C3  SGN B   5      17.663  71.615  60.4940  0.00  0.00     0.000 C
ATOM     85  C4  SGN B   5      18.546  71.947  61.6850  0.00  0.00     0.000 C
ATOM     86  C5  SGN B   5      17.986  73.193  62.3650  0.00  0.00     0.000 C
ATOM     87  O5  SGN B   5      18.007  74.282  61.4220  0.00  0.00     0.000 O
ATOM     88   O  SGN B   5      18.133  70.468  59.8210  0.00  0.00     0.000 O
ATOM     90  HD  SGN B   5      17.303  70.640  60.0010  0.00  0.00     0.000 HD
BRANCH 83 92
ATOM     90   N  SGN B   5      17.797  73.688  58.3560  0.00  0.00     0.000 N
ATOM     92  HD  SGN B   5      18.577  74.064  58.3500  0.00  0.00     0.000 HD
ATOM     92   S  SGN B   5      17.299  73.140  56.9390  0.00  0.00     0.000 S
ATOM     93   O  SGN B   5      17.592  74.203  56.0250  0.00  0.00     0.000 OA
ATOM     94   O  SGN B   5      17.919  71.869  56.7780  0.00  0.00     0.000 OA
ATOM     95   O  SGN B   5      15.816  72.899  57.1190  0.00  0.00     0.000 OA
ENDBRANCH 83 92
BRANCH 86 96
ATOM     96   C  SGN B   5      18.766  73.637  63.5850  0.00  0.00     0.000 C
ATOM     97   O  SGN B   5      20.165  73.683  63.2980  0.00  0.00     0.000 O
ATOM     98   S  SGN B   5      20.922  75.043  63.6850  0.00  0.00     0.000 S
ATOM     99   O  SGN B   5      22.309  74.707  63.4720  0.00  0.00     0.000 OA
ATOM    100   O  SGN B   5      20.422  76.064  62.8370  0.00  0.00     0.000 OA
ATOM    101   O  SGN B   5      20.595  75.252  65.0580  0.00  0.00     0.000 OA
ENDBRANCH 86 96
BRANCH 82 102
ATOM    102  O4  IDS B   6      15.876  74.018  60.6550  0.00  0.00     0.000 O
BRANCH 102 106
ATOM    103  C1  IDS B   6      12.377  75.019  60.7610  0.00  0.00     0.000 C
ATOM    104  C2  IDS B   6      13.066  74.713  59.4220  0.00  0.00     0.000 C
ATOM    105  C3  IDS B   6      14.424  75.362  59.2350  0.00  0.00     0.000 C
ATOM    106  C4  IDS B   6      15.270  75.326  60.4960  0.00  0.00     0.000 C
ATOM    107  C5  IDS B   6      14.405  75.677  61.7090  0.00  0.00     0.000 C
ATOM    108  O5  IDS B   6      13.278  74.807  61.8310  0.00  0.00     0.000 O
ATOM    109   O  IDS B   6      14.219  76.697  58.8040  0.00  0.00     0.000 O
ATOM    111  HD  IDS B   6      13.418  76.883  59.0760  0.00  0.00     0.000 HD
BRANCH 104 111
ATOM    111   O  IDS B   6      13.311  73.265  59.3300  0.00  0.00     0.000 O
ATOM    112   S  IDS B   6      12.356  72.398  58.3820  0.00  0.00     0.000 S
ATOM    113   O  IDS B   6      11.018  72.623  58.9070  0.00  0.00     0.000 OA
ATOM    114   O  IDS B   6      12.553  72.840  56.9970  0.00  0.00     0.000 OA
ATOM    115   O  IDS B   6      12.883  71.080  58.6620  0.00  0.00     0.000 OA
ENDBRANCH 104 111
BRANCH 107 116
ATOM    116   C  IDS B   6      15.253  75.603  62.9720  0.00  0.00     0.000 C
ATOM    117   O  IDS B   6      14.983  74.730  63.7570  0.00  0.00     0.000 OA
ATOM    118   O  IDS B   6      16.157  76.398  63.1780  0.00  0.00     0.000 OA
ENDBRANCH 107 116
BRANCH 103 119
ATOM    119  O4  SGN B   7      11.798  76.230  60.5540  0.00  0.00     0.000 O
BRANCH 119 123
ATOM    120  C1  SGN B   7       8.277  78.157  61.7300  0.00  0.00     0.000 C
ATOM    121  C2  SGN B   7       9.387  77.993  62.7850  0.00  0.00     0.000 C
ATOM    122  C3  SGN B   7      10.723  77.650  62.1120  0.00  0.00     0.000 C
ATOM    123  C4  SGN B   7      10.547  76.440  61.2110  0.00  0.00     0.000 C
ATOM    124  C5  SGN B   7       9.417  76.699  60.2020  0.00  0.00     0.000 C
ATOM    125  O5  SGN B   7       8.180  77.016  60.8780  0.00  0.00     0.000 O
ATOM    126   O  SGN B   7      11.706  77.409  63.1250  0.00  0.00     0.000 O
ATOM    128  HD  SGN B   7      10.913  77.692  62.9220  0.00  0.00     0.000 HD
BRANCH 121 130
ATOM    128   N  SGN B   7       8.452  78.327  63.8620  0.00  0.00     0.000 N
ATOM    130  HD  SGN B   7       8.914  77.851  64.4200  0.00  0.00     0.000 HD
ATOM    130   S  SGN B   7       8.835  79.348  65.0470  0.00  0.00     0.000 S
ATOM    131   O  SGN B   7       9.342  80.505  64.3920  0.00  0.00     0.000 OA
ATOM    132   O  SGN B   7       7.726  79.449  65.9250  0.00  0.00     0.000 OA
ATOM    133   O  SGN B   7       9.883  78.488  65.8310  0.00  0.00     0.000 OA
ENDBRANCH 121 130
BRANCH 124 134
ATOM    134   C  SGN B   7       9.089  75.515  59.3400  0.00  0.00     0.000 C
ATOM    135   O  SGN B   7       7.661  75.442  59.1860  0.00  0.00     0.000 O
ATOM    136   S  SGN B   7       7.120  74.356  58.1890  0.00  0.00     0.000 S
ATOM    137   O  SGN B   7       5.680  74.402  58.2810  0.00  0.00     0.000 OA
ATOM    138   O  SGN B   7       7.675  73.105  58.6530  0.00  0.00     0.000 OA
ATOM    139   O  SGN B   7       7.647  74.812  56.9120  0.00  0.00     0.000 OA
ENDBRANCH 124 134
BRANCH 120 140
ATOM    140  O4  IDS B   8       8.154  79.117  60.8070  0.00  0.00     0.000 O
BRANCH 140 144
ATOM    141  C1  IDS B   8       9.139  81.446  58.2450  0.00  0.00     0.000 C
ATOM    142  C2  IDS B   8      10.066  81.153  59.4590  0.00  0.00     0.000 C
ATOM    143  C3  IDS B   8       9.333  81.229  60.8100  0.00  0.00     0.000 C
ATOM    144  C4  IDS B   8       7.971  80.538  60.7630  0.00  0.00     0.000 C
ATOM    145  C5  IDS B   8       7.221  80.934  59.4820  0.00  0.00     0.000 C
ATOM    146  O5  IDS B   8       7.977  80.630  58.3130  0.00  0.00     0.000 O
BRANCH 142 147
ATOM    147   O  IDS B   8      10.624  79.780  59.3370  0.00  0.00     0.000 O
ATOM    148   S  IDS B   8      12.111  79.532  58.7390  0.00  0.00     0.000 S
ATOM    149   O  IDS B   8      12.516  80.739  58.0550  0.00  0.00     0.000 OA
ATOM    150   O  IDS B   8      12.944  79.231  59.8880  0.00  0.00     0.000 OA
ATOM    151   O  IDS B   8      11.973  78.412  57.8270  0.00  0.00     0.000 OA
ENDBRANCH 142 147
BRANCH 145 152
ATOM    152   C  IDS B   8       5.902  80.203  59.3290  0.00  0.00     0.000 C
ATOM    153   O  IDS B   8       5.044  80.315  60.1970  0.00  0.00     0.000 OA
ATOM    154   O  IDS B   8       5.701  79.528  58.3350  0.00  0.00     0.000 OA
ENDBRANCH 145 152
ENDBRANCH 140 144
ENDBRANCH 120 140
ENDBRANCH 119 123
ENDBRANCH 103 119
ENDBRANCH 102 106
ENDBRANCH 82 102
ENDBRANCH 81 85
ENDBRANCH 65 81
ENDBRANCH 64 68
ENDBRANCH 41 64
ENDBRANCH 40 44
ENDBRANCH 24 40
ENDBRANCH 23 27
ENDBRANCH 1 23
TORSDOF 31
ENDMDL
MODEL 66
REMARK VINA RESULT:      -1.3     63.929     69.602
ROOT
ATOM      1  C1  SGN B   1      21.215  22.738  89.4520  0.00  0.00     0.000 C
ATOM      2  C2  SGN B   1      21.903  23.997  90.0050  0.00  0.00     0.000 C
ATOM      3  C3  SGN B   1      23.352  23.693  90.4010  0.00  0.00     0.000 C
ATOM      4  C4  SGN B   1      23.394  22.536  91.3950  0.00  0.00     0.000 C
ATOM      5  C5  SGN B   1      22.573  21.374  90.8420  0.00  0.00     0.000 C
ATOM      6  O5  SGN B   1      21.239  21.826  90.5420  0.00  0.00     0.000 O
ATOM      7   O  SGN B   1      23.972  24.848  90.9540  0.00  0.00     0.000 O
ATOM      9  HD  SGN B   1      23.321  24.715  91.5090  0.00  0.00     0.000 HD
ATOM      9   O  SGN B   1      24.738  22.135  91.5930  0.00  0.00     0.000 O
ATOM     11  HD  SGN B   1      24.086  22.002  92.1480  0.00  0.00     0.000 HD
ENDROOT
BRANCH 2 13
ATOM     11   N  SGN B   1      20.867  25.043  89.9200  0.00  0.00     0.000 N
ATOM     13  HD  SGN B   1      21.043  24.541  89.2360  0.00  0.00     0.000 HD
ATOM     13   S  SGN B   1      20.494  25.773  88.5350  0.00  0.00     0.000 S
ATOM     14   O  SGN B   1      21.252  25.226  87.4790  0.00  0.00     0.000 OA
ATOM     15   O  SGN B   1      19.075  25.828  88.4230  0.00  0.00     0.000 OA
ATOM     16   O  SGN B   1      20.983  27.208  88.9010  0.00  0.00     0.000 OA
ENDBRANCH 2 13
BRANCH 5 17
ATOM     17   C  SGN B   1      22.449  20.205  91.7880  0.00  0.00     0.000 C
ATOM     18   O  SGN B   1      22.236  20.658  93.1400  0.00  0.00     0.000 O
ATOM     19   S  SGN B   1      23.109  19.934  94.2680  0.00  0.00     0.000 S
ATOM     20   O  SGN B   1      22.551  20.388  95.5240  0.00  0.00     0.000 OA
ATOM     21   O  SGN B   1      22.905  18.525  94.0200  0.00  0.00     0.000 OA
ATOM     22   O  SGN B   1      24.466  20.381  94.0410  0.00  0.00     0.000 OA
ENDBRANCH 5 17
BRANCH 1 23
ATOM     23  O4  IDS B   2      21.009  22.081  88.2750  0.00  0.00     0.000 O
BRANCH 23 27
ATOM     24  C1  IDS B   2      24.157  19.574  87.2570  0.00  0.00     0.000 C
ATOM     25  C2  IDS B   2      24.221  21.000  86.6660  0.00  0.00     0.000 C
ATOM     26  C3  IDS B   2      23.196  21.914  87.3320  0.00  0.00     0.000 C
ATOM     27  C4  IDS B   2      21.774  21.373  87.2780  0.00  0.00     0.000 C
ATOM     28  C5  IDS B   2      21.786  19.841  87.4530  0.00  0.00     0.000 C
ATOM     29  O5  IDS B   2      22.989  19.411  88.0720  0.00  0.00     0.000 O
ATOM     30   O  IDS B   2      23.200  23.177  86.6770  0.00  0.00     0.000 O
ATOM     32  HD  IDS B   2      22.760  23.177  85.9310  0.00  0.00     0.000 HD
BRANCH 25 32
ATOM     32   O  IDS B   2      25.557  21.621  86.8420  0.00  0.00     0.000 O
ATOM     33   S  IDS B   2      26.493  22.057  85.5550  0.00  0.00     0.000 S
ATOM     34   O  IDS B   2      27.794  22.410  86.1010  0.00  0.00     0.000 OA
ATOM     35   O  IDS B   2      26.592  20.938  84.6280  0.00  0.00     0.000 OA
ATOM     36   O  IDS B   2      25.839  23.203  84.9680  0.00  0.00     0.000 OA
ENDBRANCH 25 32
BRANCH 28 37
ATOM     37   C  IDS B   2      20.600  19.191  88.1940  0.00  0.00     0.000 C
ATOM     38   O  IDS B   2      20.946  18.537  89.1490  0.00  0.00     0.000 OA
ATOM     39   O  IDS B   2      19.379  19.333  87.9370  0.00  0.00     0.000 OA
ENDBRANCH 28 37
BRANCH 24 40
ATOM     40  O4  SUS B   3      24.941  18.600  86.7500  0.00  0.00     0.000 O
BRANCH 40 44
ATOM     41  C1  SUS B   3      26.788  15.348  88.6360  0.00  0.00     0.000 C
ATOM     42  C2  SUS B   3      25.253  15.306  88.5030  0.00  0.00     0.000 C
ATOM     43  C3  SUS B   3      24.816  16.278  87.4090  0.00  0.00     0.000 C
ATOM     44  C4  SUS B   3      25.372  17.658  87.7260  0.00  0.00     0.000 C
ATOM     45  C5  SUS B   3      26.885  17.585  87.7380  0.00  0.00     0.000 C
ATOM     46  O5  SUS B   3      27.284  16.682  88.7890  0.00  0.00     0.000 O
BRANCH 42 49
ATOM     47   N  SUS B   3      24.600  14.011  88.2470  0.00  0.00     0.000 N
ATOM     49  HD  SUS B   3      23.951  14.011  87.6740  0.00  0.00     0.000 HD
ATOM     49   S  SUS B   3      24.080  13.305  89.5880  0.00  0.00     0.000 S
ATOM     50   O  SUS B   3      23.187  14.160  90.2640  0.00  0.00     0.000 OA
ATOM     51   O  SUS B   3      23.313  12.149  88.8970  0.00  0.00     0.000 OA
ATOM     52   O  SUS B   3      25.183  12.808  90.3110  0.00  0.00     0.000 OA
ENDBRANCH 42 49
BRANCH 43 53
ATOM     53   O  SUS B   3      23.341  16.321  87.4000  0.00  0.00     0.000 O
ATOM     54   S  SUS B   3      22.586  15.863  86.0140  0.00  0.00     0.000 S
ATOM     55   O  SUS B   3      22.746  14.421  85.8860  0.00  0.00     0.000 OA
ATOM     56   O  SUS B   3      21.210  16.284  86.2080  0.00  0.00     0.000 OA
ATOM     57   O  SUS B   3      23.258  16.571  84.9210  0.00  0.00     0.000 OA
ENDBRANCH 43 53
BRANCH 45 58
ATOM     58   C  SUS B   3      27.516  18.944  87.9490  0.00  0.00     0.000 C
ATOM     59   S  SUS B   3      28.166  20.622  89.7790  0.00  0.00     0.000 S
ATOM     60   O  SUS B   3      27.715  19.164  89.3560  0.00  0.00     0.000 O
ATOM     61   O  SUS B   3      26.958  21.423  89.7250  0.00  0.00     0.000 OA
ATOM     62   O  SUS B   3      28.615  20.383  91.1240  0.00  0.00     0.000 OA
ATOM     63   O  SUS B   3      29.181  20.989  88.8560  0.00  0.00     0.000 OA
ENDBRANCH 45 58
BRANCH 41 64
ATOM     64  O4  IDS B   4      27.446  14.610  87.6830  0.00  0.00     0.000 O
BRANCH 64 68
ATOM     65  C1  IDS B   4      29.354  11.736  86.5100  0.00  0.00     0.000 C
ATOM     66  C2  IDS B   4      28.309  11.568  87.6210  0.00  0.00     0.000 C
ATOM     67  C3  IDS B   4      28.386  12.616  88.7180  0.00  0.00     0.000 C
ATOM     68  C4  IDS B   4      28.661  14.009  88.1850  0.00  0.00     0.000 C
ATOM     69  C5  IDS B   4      29.772  13.906  87.1310  0.00  0.00     0.000 C
ATOM     70  O5  IDS B   4      29.326  13.077  86.0560  0.00  0.00     0.000 O
ATOM     71   O  IDS B   4      29.422  12.228  89.5970  0.00  0.00     0.000 O
ATOM     73  HD  IDS B   4      28.833  12.109  88.9730  0.00  0.00     0.000 HD
BRANCH 66 73
ATOM     73   O  IDS B   4      26.969  11.712  87.0350  0.00  0.00     0.000 O
ATOM     74   S  IDS B   4      26.026  10.399  86.9670  0.00  0.00     0.000 S
ATOM     75   O  IDS B   4      26.772   9.397  86.2350  0.00  0.00     0.000 OA
ATOM     76   O  IDS B   4      24.871  10.900  86.2650  0.00  0.00     0.000 OA
ATOM     77   O  IDS B   4      25.775  10.033  88.3400  0.00  0.00     0.000 OA
ENDBRANCH 66 73
BRANCH 69 78
ATOM     78   C  IDS B   4      30.317  15.247  86.6580  0.00  0.00     0.000 C
ATOM     79   O  IDS B   4      31.513  15.488  86.8160  0.00  0.00     0.000 OA
ATOM     80   O  IDS B   4      29.559  16.011  86.0330  0.00  0.00     0.000 OA
ENDBRANCH 69 78
BRANCH 65 81
ATOM     81  O4  SGN B   5      30.555  11.259  86.9420  0.00  0.00     0.000 O
BRANCH 81 85
ATOM     82  C1  SGN B   5      34.023   9.228  85.7240  0.00  0.00     0.000 C
ATOM     83  C2  SGN B   5      33.892  10.699  85.3030  0.00  0.00     0.000 C
ATOM     84  C3  SGN B   5      32.850  11.396  86.1890  0.00  0.00     0.000 C
ATOM     85  C4  SGN B   5      31.539  10.634  86.1150  0.00  0.00     0.000 C
ATOM     86  C5  SGN B   5      31.790   9.201  86.5770  0.00  0.00     0.000 C
ATOM     87  O5  SGN B   5      32.757   8.595  85.6990  0.00  0.00     0.000 O
ATOM     88   O  SGN B   5      32.683  12.733  85.7710  0.00  0.00     0.000 O
ATOM     90  HD  SGN B   5      33.145  12.476  86.4570  0.00  0.00     0.000 HD
BRANCH 83 92
ATOM     90   N  SGN B   5      34.872  10.389  84.2440  0.00  0.00     0.000 N
ATOM     92  HD  SGN B   5      34.478  10.076  83.5380  0.00  0.00     0.000 HD
ATOM     92   S  SGN B   5      36.030  11.452  83.9570  0.00  0.00     0.000 S
ATOM     93   O  SGN B   5      36.792  10.869  82.8940  0.00  0.00     0.000 OA
ATOM     94   O  SGN B   5      35.371  12.698  83.7630  0.00  0.00     0.000 OA
ATOM     95   O  SGN B   5      36.797  11.545  85.2590  0.00  0.00     0.000 OA
ENDBRANCH 83 92
BRANCH 86 96
ATOM     96   C  SGN B   5      30.557   8.321  86.5670  0.00  0.00     0.000 C
ATOM     97   O  SGN B   5      29.865   8.441  85.3220  0.00  0.00     0.000 O
ATOM     98   S  SGN B   5      29.502   7.066  84.5810  0.00  0.00     0.000 S
ATOM     99   O  SGN B   5      28.654   7.503  83.4980  0.00  0.00     0.000 OA
ATOM    100   O  SGN B   5      30.721   6.466  84.1740  0.00  0.00     0.000 OA
ATOM    101   O  SGN B   5      28.810   6.303  85.5690  0.00  0.00     0.000 OA
ENDBRANCH 86 96
BRANCH 82 102
ATOM    102  O4  IDS B   6      34.601   9.083  86.9500  0.00  0.00     0.000 O
BRANCH 102 106
ATOM    103  C1  IDS B   6      37.088   8.012  89.3850  0.00  0.00     0.000 C
ATOM    104  C2  IDS B   6      37.492   8.864  88.1710  0.00  0.00     0.000 C
ATOM    105  C3  IDS B   6      36.935   8.393  86.8420  0.00  0.00     0.000 C
ATOM    106  C4  IDS B   6      35.490   7.936  86.9400  0.00  0.00     0.000 C
ATOM    107  C5  IDS B   6      35.300   7.090  88.2020  0.00  0.00     0.000 C
ATOM    108  O5  IDS B   6      35.689   7.796  89.3810  0.00  0.00     0.000 O
ATOM    109   O  IDS B   6      37.762   7.347  86.3610  0.00  0.00     0.000 O
ATOM    111  HD  IDS B   6      38.144   7.039  87.0750  0.00  0.00     0.000 HD
BRANCH 104 111
ATOM    111   O  IDS B   6      36.974  10.229  88.3490  0.00  0.00     0.000 O
ATOM    112   S  IDS B   6      38.005  11.377  88.7720  0.00  0.00     0.000 S
ATOM    113   O  IDS B   6      38.573  10.915  90.0290  0.00  0.00     0.000 OA
ATOM    114   O  IDS B   6      38.979  11.549  87.6870  0.00  0.00     0.000 OA
ATOM    115   O  IDS B   6      37.081  12.481  88.9150  0.00  0.00     0.000 OA
ENDBRANCH 104 111
BRANCH 107 116
ATOM    116   C  IDS B   6      33.841   6.667  88.3110  0.00  0.00     0.000 C
ATOM    117   O  IDS B   6      33.208   7.133  89.2250  0.00  0.00     0.000 OA
ATOM    118   O  IDS B   6      33.344   5.887  87.5140  0.00  0.00     0.000 OA
ENDBRANCH 107 116
BRANCH 103 119
ATOM    119  O4  SGN B   7      37.963   6.975  89.3550  0.00  0.00     0.000 O
BRANCH 119 123
ATOM    120  C1  SGN B   7      39.981   4.621  92.1620  0.00  0.00     0.000 C
ATOM    121  C2  SGN B   7      38.473   4.371  91.9740  0.00  0.00     0.000 C
ATOM    122  C3  SGN B   7      37.981   5.004  90.6660  0.00  0.00     0.000 C
ATOM    123  C4  SGN B   7      38.372   6.473  90.6280  0.00  0.00     0.000 C
ATOM    124  C5  SGN B   7      39.889   6.615  90.8300  0.00  0.00     0.000 C
ATOM    125  O5  SGN B   7      40.307   6.007  92.0730  0.00  0.00     0.000 O
ATOM    126   O  SGN B   7      36.562   4.839  90.5730  0.00  0.00     0.000 O
ATOM    128  HD  SGN B   7      37.301   4.639  90.9780  0.00  0.00     0.000 HD
BRANCH 121 130
ATOM    128   N  SGN B   7      38.418   3.593  93.2140  0.00  0.00     0.000 N
ATOM    130  HD  SGN B   7      37.587   3.811  93.3230  0.00  0.00     0.000 HD
ATOM    130   S  SGN B   7      37.638   2.187  93.3130  0.00  0.00     0.000 S
ATOM    131   O  SGN B   7      38.112   1.420  92.2120  0.00  0.00     0.000 OA
ATOM    132   O  SGN B   7      37.767   1.697  94.6380  0.00  0.00     0.000 OA
ATOM    133   O  SGN B   7      36.155   2.682  93.2170  0.00  0.00     0.000 OA
ENDBRANCH 121 130
BRANCH 124 134
ATOM    134   C  SGN B   7      40.358   8.037  90.9240  0.00  0.00     0.000 C
ATOM    135   O  SGN B   7      41.368   8.120  91.9430  0.00  0.00     0.000 O
ATOM    136   S  SGN B   7      42.100   9.502  92.0930  0.00  0.00     0.000 S
ATOM    137   O  SGN B   7      42.980   9.375  93.2300  0.00  0.00     0.000 OA
ATOM    138   O  SGN B   7      41.045  10.468  92.3010  0.00  0.00     0.000 OA
ATOM    139   O  SGN B   7      42.791   9.630  90.8200  0.00  0.00     0.000 OA
ENDBRANCH 124 134
BRANCH 120 140
ATOM    140  O4  IDS B   8      40.993   4.122  91.4430  0.00  0.00     0.000 O
BRANCH 140 144
ATOM    141  C1  IDS B   8      42.844   3.088  88.5340  0.00  0.00     0.000 C
ATOM    142  C2  IDS B   8      41.304   2.885  88.6150  0.00  0.00     0.000 C
ATOM    143  C3  IDS B   8      40.851   2.236  89.9360  0.00  0.00     0.000 C
ATOM    144  C4  IDS B   8      41.561   2.840  91.1460  0.00  0.00     0.000 C
ATOM    145  C5  IDS B   8      43.064   2.983  90.8610  0.00  0.00     0.000 C
ATOM    146  O5  IDS B   8      43.308   3.766  89.6950  0.00  0.00     0.000 O
BRANCH 142 147
ATOM    147   O  IDS B   8      40.625   4.204  88.5170  0.00  0.00     0.000 O
ATOM    148   S  IDS B   8      40.009   4.724  87.1100  0.00  0.00     0.000 S
ATOM    149   O  IDS B   8      40.584   3.920  86.0560  0.00  0.00     0.000 OA
ATOM    150   O  IDS B   8      38.573   4.552  87.2280  0.00  0.00     0.000 OA
ATOM    151   O  IDS B   8      40.409   6.115  87.0100  0.00  0.00     0.000 OA
ENDBRANCH 142 147
BRANCH 145 152
ATOM    152   C  IDS B   8      43.809   3.669  91.9870  0.00  0.00     0.000 C
ATOM    153   O  IDS B   8      43.789   3.181  93.1110  0.00  0.00     0.000 OA
ATOM    154   O  IDS B   8      44.438   4.688  91.7610  0.00  0.00     0.000 OA
ENDBRANCH 145 152
ENDBRANCH 140 144
ENDBRANCH 120 140
ENDBRANCH 119 123
ENDBRANCH 103 119
ENDBRANCH 102 106
ENDBRANCH 82 102
ENDBRANCH 81 85
ENDBRANCH 65 81
ENDBRANCH 64 68
ENDBRANCH 41 64
ENDBRANCH 40 44
ENDBRANCH 24 40
ENDBRANCH 23 27
ENDBRANCH 1 23
TORSDOF 31
ENDMDL
MODEL 67
REMARK VINA RESULT:      -1.3     53.897     62.168
ROOT
ATOM      1  C1  SGN B   1      46.836  42.785  64.2280  0.00  0.00     0.000 C
ATOM      2  C2  SGN B   1      48.024  43.716  64.5190  0.00  0.00     0.000 C
ATOM      3  C3  SGN B   1      48.265  43.833  66.0290  0.00  0.00     0.000 C
ATOM      4  C4  SGN B   1      46.992  44.297  66.7300  0.00  0.00     0.000 C
ATOM      5  C5  SGN B   1      45.828  43.415  66.2840  0.00  0.00     0.000 C
ATOM      6  O5  SGN B   1      45.732  43.433  64.8470  0.00  0.00     0.000 O
ATOM      7   O  SGN B   1      49.336  44.730  66.2960  0.00  0.00     0.000 O
ATOM      9  HD  SGN B   1      48.770  45.247  65.8930  0.00  0.00     0.000 HD
ATOM      9   O  SGN B   1      47.167  44.204  68.1320  0.00  0.00     0.000 O
ATOM     11  HD  SGN B   1      46.601  44.721  67.7290  0.00  0.00     0.000 HD
ENDROOT
BRANCH 2 13
ATOM     11   N  SGN B   1      48.492  44.133  63.1840  0.00  0.00     0.000 N
ATOM     13  HD  SGN B   1      48.357  43.297  63.3610  0.00  0.00     0.000 HD
ATOM     13   S  SGN B   1      49.384  43.176  62.2480  0.00  0.00     0.000 S
ATOM     14   O  SGN B   1      49.578  41.927  62.8750  0.00  0.00     0.000 OA
ATOM     15   O  SGN B   1      48.857  43.222  60.9250  0.00  0.00     0.000 OA
ATOM     16   O  SGN B   1      50.695  44.021  62.2500  0.00  0.00     0.000 OA
ENDBRANCH 2 13
BRANCH 5 17
ATOM     17   C  SGN B   1      44.488  43.845  66.8290  0.00  0.00     0.000 C
ATOM     18   O  SGN B   1      44.357  45.281  66.7980  0.00  0.00     0.000 O
ATOM     19   S  SGN B   1      43.765  45.959  68.1190  0.00  0.00     0.000 S
ATOM     20   O  SGN B   1      43.516  47.338  67.7540  0.00  0.00     0.000 OA
ATOM     21   O  SGN B   1      42.562  45.208  68.3930  0.00  0.00     0.000 OA
ATOM     22   O  SGN B   1      44.797  45.801  69.1200  0.00  0.00     0.000 OA
ENDBRANCH 5 17
BRANCH 1 23
ATOM     23  O4  IDS B   2      46.559  41.469  64.0000  0.00  0.00     0.000 O
BRANCH 23 27
ATOM     24  C1  IDS B   2      46.107  39.287  67.5020  0.00  0.00     0.000 C
ATOM     25  C2  IDS B   2      47.527  39.287  66.8940  0.00  0.00     0.000 C
ATOM     26  C3  IDS B   2      47.653  40.342  65.7990  0.00  0.00     0.000 C
ATOM     27  C4  IDS B   2      46.600  40.212  64.7060  0.00  0.00     0.000 C
ATOM     28  C5  IDS B   2      45.253  39.782  65.3210  0.00  0.00     0.000 C
ATOM     29  O5  IDS B   2      45.211  40.078  66.7090  0.00  0.00     0.000 O
ATOM     30   O  IDS B   2      48.929  40.227  65.1820  0.00  0.00     0.000 O
ATOM     32  HD  IDS B   2      48.973  39.582  64.6060  0.00  0.00     0.000 HD
BRANCH 25 32
ATOM     32   O  IDS B   2      48.572  39.568  67.9100  0.00  0.00     0.000 O
ATOM     33   S  IDS B   2      49.746  38.470  68.2810  0.00  0.00     0.000 S
ATOM     34   O  IDS B   2      50.433  38.991  69.4510  0.00  0.00     0.000 OA
ATOM     35   O  IDS B   2      49.131  37.179  68.5550  0.00  0.00     0.000 OA
ATOM     36   O  IDS B   2      50.620  38.430  67.1310  0.00  0.00     0.000 OA
ENDBRANCH 25 32
BRANCH 28 37
ATOM     37   C  IDS B   2      43.960  40.319  64.6720  0.00  0.00     0.000 C
ATOM     38   O  IDS B   2      43.256  40.914  65.4540  0.00  0.00     0.000 OA
ATOM     39   O  IDS B   2      43.638  40.248  63.4610  0.00  0.00     0.000 OA
ENDBRANCH 28 37
BRANCH 24 40
ATOM     40  O4  SUS B   3      45.777  38.376  68.4410  0.00  0.00     0.000 O
BRANCH 40 44
ATOM     41  C1  SUS B   3      43.226  38.691  71.7480  0.00  0.00     0.000 C
ATOM     42  C2  SUS B   3      42.572  38.690  70.3520  0.00  0.00     0.000 C
ATOM     43  C3  SUS B   3      43.551  38.099  69.3390  0.00  0.00     0.000 C
ATOM     44  C4  SUS B   3      44.859  38.871  69.4100  0.00  0.00     0.000 C
ATOM     45  C5  SUS B   3      45.444  38.719  70.7990  0.00  0.00     0.000 C
ATOM     46  O5  SUS B   3      44.521  39.301  71.7420  0.00  0.00     0.000 O
BRANCH 42 49
ATOM     47   N  SUS B   3      41.275  38.015  70.1790  0.00  0.00     0.000 N
ATOM     49  HD  SUS B   3      41.175  37.547  69.4570  0.00  0.00     0.000 HD
ATOM     49   S  SUS B   3      40.034  39.022  70.2940  0.00  0.00     0.000 S
ATOM     50   O  SUS B   3      40.163  40.052  69.3400  0.00  0.00     0.000 OA
ATOM     51   O  SUS B   3      38.942  38.011  69.8620  0.00  0.00     0.000 OA
ATOM     52   O  SUS B   3      39.861  39.397  71.6410  0.00  0.00     0.000 OA
ENDBRANCH 42 49
BRANCH 43 53
ATOM     53   O  SUS B   3      42.956  38.240  67.9960  0.00  0.00     0.000 O
ATOM     54   S  SUS B   3      42.676  36.858  67.1510  0.00  0.00     0.000 S
ATOM     55   O  SUS B   3      41.564  36.171  67.7930  0.00  0.00     0.000 OA
ATOM     56   O  SUS B   3      42.382  37.321  65.8070  0.00  0.00     0.000 OA
ATOM     57   O  SUS B   3      43.907  36.066  67.2320  0.00  0.00     0.000 OA
ENDBRANCH 43 53
BRANCH 45 58
ATOM     58   C  SUS B   3      46.800  39.379  70.9180  0.00  0.00     0.000 C
ATOM     59   S  SUS B   3      47.927  41.648  71.3280  0.00  0.00     0.000 S
ATOM     60   O  SUS B   3      46.631  40.738  71.3560  0.00  0.00     0.000 O
ATOM     61   O  SUS B   3      48.104  42.015  69.9360  0.00  0.00     0.000 OA
ATOM     62   O  SUS B   3      47.497  42.752  72.1440  0.00  0.00     0.000 OA
ATOM     63   O  SUS B   3      48.963  40.850  71.8830  0.00  0.00     0.000 OA
ENDBRANCH 45 58
BRANCH 41 64
ATOM     64  O4  IDS B   4      43.181  37.473  72.3810  0.00  0.00     0.000 O
BRANCH 64 68
ATOM     65  C1  IDS B   4      41.934  35.118  74.8650  0.00  0.00     0.000 C
ATOM     66  C2  IDS B   4      40.995  36.167  74.2560  0.00  0.00     0.000 C
ATOM     67  C3  IDS B   4      41.572  37.572  74.2060  0.00  0.00     0.000 C
ATOM     68  C4  IDS B   4      43.038  37.594  73.8130  0.00  0.00     0.000 C
ATOM     69  C5  IDS B   4      43.758  36.487  74.5950  0.00  0.00     0.000 C
ATOM     70  O5  IDS B   4      43.200  35.220  74.2390  0.00  0.00     0.000 O
ATOM     71   O  IDS B   4      41.414  38.137  75.4910  0.00  0.00     0.000 O
ATOM     73  HD  IDS B   4      41.256  37.571  74.8540  0.00  0.00     0.000 HD
BRANCH 66 73
ATOM     73   O  IDS B   4      40.725  35.805  72.8580  0.00  0.00     0.000 O
ATOM     74   S  IDS B   4      39.230  35.321  72.4760  0.00  0.00     0.000 S
ATOM     75   O  IDS B   4      38.931  34.196  73.3360  0.00  0.00     0.000 OA
ATOM     76   O  IDS B   4      39.377  34.973  71.0850  0.00  0.00     0.000 OA
ATOM     77   O  IDS B   4      38.381  36.464  72.7150  0.00  0.00     0.000 OA
ENDBRANCH 66 73
BRANCH 69 78
ATOM     78   C  IDS B   4      45.276  36.520  74.4790  0.00  0.00     0.000 C
ATOM     79   O  IDS B   4      45.944  36.652  75.5030  0.00  0.00     0.000 OA
ATOM     80   O  IDS B   4      45.793  36.306  73.3670  0.00  0.00     0.000 OA
ENDBRANCH 69 78
BRANCH 65 81
ATOM     81  O4  SGN B   5      41.911  35.224  76.2230  0.00  0.00     0.000 O
BRANCH 81 85
ATOM     82  C1  SGN B   5      42.061  33.012  79.7900  0.00  0.00     0.000 C
ATOM     83  C2  SGN B   5      43.384  33.208  79.0350  0.00  0.00     0.000 C
ATOM     84  C3  SGN B   5      43.248  34.384  78.0580  0.00  0.00     0.000 C
ATOM     85  C4  SGN B   5      42.066  34.136  77.1370  0.00  0.00     0.000 C
ATOM     86  C5  SGN B   5      40.813  33.981  77.9960  0.00  0.00     0.000 C
ATOM     87  O5  SGN B   5      40.993  32.855  78.8750  0.00  0.00     0.000 O
ATOM     88   O  SGN B   5      44.441  34.535  77.3190  0.00  0.00     0.000 O
ATOM     90  HD  SGN B   5      44.203  35.023  77.9940  0.00  0.00     0.000 HD
BRANCH 83 92
ATOM     90   N  SGN B   5      43.817  32.463  80.2330  0.00  0.00     0.000 N
ATOM     92  HD  SGN B   5      43.263  31.823  80.4170  0.00  0.00     0.000 HD
ATOM     92   S  SGN B   5      45.363  32.078  80.3610  0.00  0.00     0.000 S
ATOM     93   O  SGN B   5      45.450  31.371  81.6030  0.00  0.00     0.000 OA
ATOM     94   O  SGN B   5      45.700  31.424  79.1430  0.00  0.00     0.000 OA
ATOM     95   O  SGN B   5      46.089  33.405  80.3770  0.00  0.00     0.000 OA
ENDBRANCH 83 92
BRANCH 86 96
ATOM     96   C  SGN B   5      39.544  33.739  77.2050  0.00  0.00     0.000 C
ATOM     97   O  SGN B   5      39.745  32.704  76.2400  0.00  0.00     0.000 O
ATOM     98   S  SGN B   5      38.660  31.522  76.2360  0.00  0.00     0.000 S
ATOM     99   O  SGN B   5      39.011  30.772  75.0540  0.00  0.00     0.000 OA
ATOM    100   O  SGN B   5      38.803  30.809  77.4540  0.00  0.00     0.000 OA
ATOM    101   O  SGN B   5      37.405  32.193  76.1280  0.00  0.00     0.000 OA
ENDBRANCH 86 96
BRANCH 82 102
ATOM    102  O4  IDS B   6      41.797  34.029  80.6580  0.00  0.00     0.000 O
BRANCH 102 106
ATOM    103  C1  IDS B   6      41.056  34.961  84.0990  0.00  0.00     0.000 C
ATOM    104  C2  IDS B   6      41.776  33.641  83.7800  0.00  0.00     0.000 C
ATOM    105  C3  IDS B   6      41.149  32.819  82.6700  0.00  0.00     0.000 C
ATOM    106  C4  IDS B   6      40.675  33.671  81.5060  0.00  0.00     0.000 C
ATOM    107  C5  IDS B   6      39.971  34.924  82.0340  0.00  0.00     0.000 C
ATOM    108  O5  IDS B   6      40.812  35.681  82.9060  0.00  0.00     0.000 O
ATOM    109   O  IDS B   6      40.073  32.079  83.2230  0.00  0.00     0.000 O
ATOM    111  HD  IDS B   6      39.854  32.527  83.9310  0.00  0.00     0.000 HD
BRANCH 104 111
ATOM    111   O  IDS B   6      43.141  33.938  83.3200  0.00  0.00     0.000 O
ATOM    112   S  IDS B   6      44.354  33.641  84.3200  0.00  0.00     0.000 S
ATOM    113   O  IDS B   6      44.063  34.443  85.4980  0.00  0.00     0.000 OA
ATOM    114   O  IDS B   6      44.412  32.195  84.5630  0.00  0.00     0.000 OA
ATOM    115   O  IDS B   6      45.447  34.149  83.5200  0.00  0.00     0.000 OA
ENDBRANCH 104 111
BRANCH 107 116
ATOM    116   C  IDS B   6      39.532  35.789  80.8590  0.00  0.00     0.000 C
ATOM    117   O  IDS B   6      40.169  36.791  80.6560  0.00  0.00     0.000 OA
ATOM    118   O  IDS B   6      38.575  35.481  80.1660  0.00  0.00     0.000 OA
ENDBRANCH 107 116
BRANCH 103 119
ATOM    119  O4  SGN B   7      40.040  34.583  84.9170  0.00  0.00     0.000 O
BRANCH 119 123
ATOM    120  C1  SGN B   7      38.067  36.172  88.2450  0.00  0.00     0.000 C
ATOM    121  C2  SGN B   7      37.767  36.800  86.8700  0.00  0.00     0.000 C
ATOM    122  C3  SGN B   7      38.235  35.873  85.7420  0.00  0.00     0.000 C
ATOM    123  C4  SGN B   7      39.697  35.511  85.9470  0.00  0.00     0.000 C
ATOM    124  C5  SGN B   7      39.893  34.901  87.3440  0.00  0.00     0.000 C
ATOM    125  O5  SGN B   7      39.440  35.807  88.3750  0.00  0.00     0.000 O
ATOM    126   O  SGN B   7      38.031  36.529  84.4850  0.00  0.00     0.000 O
ATOM    128  HD  SGN B   7      37.894  36.518  85.3400  0.00  0.00     0.000 HD
BRANCH 121 130
ATOM    128   N  SGN B   7      37.222  38.068  87.3610  0.00  0.00     0.000 N
ATOM    130  HD  SGN B   7      37.298  38.415  86.5710  0.00  0.00     0.000 HD
ATOM    130   S  SGN B   7      35.736  38.566  86.9910  0.00  0.00     0.000 S
ATOM    131   O  SGN B   7      34.889  37.461  87.2880  0.00  0.00     0.000 OA
ATOM    132   O  SGN B   7      35.518  39.823  87.6100  0.00  0.00     0.000 OA
ATOM    133   O  SGN B   7      35.921  38.900  85.4720  0.00  0.00     0.000 OA
ENDBRANCH 121 130
BRANCH 124 134
ATOM    134   C  SGN B   7      41.325  34.616  87.6870  0.00  0.00     0.000 C
ATOM    135   O  SGN B   7      41.545  34.964  89.0650  0.00  0.00     0.000 O
ATOM    136   S  SGN B   7      42.949  34.597  89.6640  0.00  0.00     0.000 S
ATOM    137   O  SGN B   7      42.971  35.130  91.0050  0.00  0.00     0.000 OA
ATOM    138   O  SGN B   7      43.911  35.229  88.7900  0.00  0.00     0.000 OA
ATOM    139   O  SGN B   7      42.945  33.144  89.6050  0.00  0.00     0.000 OA
ENDBRANCH 124 134
BRANCH 120 140
ATOM    140  O4  IDS B   8      37.510  35.087  88.7930  0.00  0.00     0.000 O
BRANCH 140 144
ATOM    141  C1  IDS B   8      36.193  31.744  89.0240  0.00  0.00     0.000 C
ATOM    142  C2  IDS B   8      35.971  32.605  87.7470  0.00  0.00     0.000 C
ATOM    143  C3  IDS B   8      35.465  34.026  88.0590  0.00  0.00     0.000 C
ATOM    144  C4  IDS B   8      36.214  34.658  89.2300  0.00  0.00     0.000 C
ATOM    145  C5  IDS B   8      36.353  33.646  90.3780  0.00  0.00     0.000 C
ATOM    146  O5  IDS B   8      37.006  32.452  89.9520  0.00  0.00     0.000 O
BRANCH 142 147
ATOM    147   O  IDS B   8      37.257  32.747  87.0150  0.00  0.00     0.000 O
ATOM    148   S  IDS B   8      37.600  31.807  85.7380  0.00  0.00     0.000 S
ATOM    149   O  IDS B   8      36.689  30.685  85.7630  0.00  0.00     0.000 OA
ATOM    150   O  IDS B   8      37.416  32.653  84.5740  0.00  0.00     0.000 OA
ATOM    151   O  IDS B   8      38.976  31.392  85.9290  0.00  0.00     0.000 OA
ENDBRANCH 142 147
BRANCH 145 152
ATOM    152   C  IDS B   8      37.176  34.182  91.5320  0.00  0.00     0.000 C
ATOM    153   O  IDS B   8      38.205  33.603  91.8600  0.00  0.00     0.000 OA
ATOM    154   O  IDS B   8      36.817  35.193  92.1080  0.00  0.00     0.000 OA
ENDBRANCH 145 152
ENDBRANCH 140 144
ENDBRANCH 120 140
ENDBRANCH 119 123
ENDBRANCH 103 119
ENDBRANCH 102 106
ENDBRANCH 82 102
ENDBRANCH 81 85
ENDBRANCH 65 81
ENDBRANCH 64 68
ENDBRANCH 41 64
ENDBRANCH 40 44
ENDBRANCH 24 40
ENDBRANCH 23 27
ENDBRANCH 1 23
TORSDOF 31
ENDMDL
MODEL 68
REMARK VINA RESULT:      -1.3     72.064     80.394
ROOT
ATOM      1  C1  SGN B   1      18.203  79.510  53.3810  0.00  0.00     0.000 C
ATOM      2  C2  SGN B   1      17.409  80.571  52.6020  0.00  0.00     0.000 C
ATOM      3  C3  SGN B   1      16.864  81.645  53.5500  0.00  0.00     0.000 C
ATOM      4  C4  SGN B   1      16.028  81.000  54.6510  0.00  0.00     0.000 C
ATOM      5  C5  SGN B   1      16.827  79.864  55.2840  0.00  0.00     0.000 C
ATOM      6  O5  SGN B   1      17.244  78.939  54.2610  0.00  0.00     0.000 O
ATOM      7   O  SGN B   1      16.093  82.601  52.8330  0.00  0.00     0.000 O
ATOM      9  HD  SGN B   1      15.651  81.871  52.6850  0.00  0.00     0.000 HD
ATOM      9   O  SGN B   1      15.704  81.973  55.6270  0.00  0.00     0.000 O
ATOM     11  HD  SGN B   1      15.262  81.243  55.4790  0.00  0.00     0.000 HD
ENDROOT
BRANCH 2 13
ATOM     11   N  SGN B   1      17.500  80.132  51.1970  0.00  0.00     0.000 N
ATOM     13  HD  SGN B   1      18.211  80.187  51.6870  0.00  0.00     0.000 HD
ATOM     13   S  SGN B   1      18.819  80.367  50.3060  0.00  0.00     0.000 S
ATOM     14   O  SGN B   1      19.825  80.981  51.0810  0.00  0.00     0.000 OA
ATOM     15   O  SGN B   1      19.111  79.160  49.6080  0.00  0.00     0.000 OA
ATOM     16   O  SGN B   1      18.213  81.363  49.2700  0.00  0.00     0.000 OA
ENDBRANCH 2 13
BRANCH 5 17
ATOM     17   C  SGN B   1      16.061  79.075  56.3170  0.00  0.00     0.000 C
ATOM     18   O  SGN B   1      14.703  78.850  55.8890  0.00  0.00     0.000 O
ATOM     19   S  SGN B   1      13.570  79.103  56.9890  0.00  0.00     0.000 S
ATOM     20   O  SGN B   1      12.352  78.591  56.3980  0.00  0.00     0.000 OA
ATOM     21   O  SGN B   1      14.018  78.349  58.1370  0.00  0.00     0.000 OA
ATOM     22   O  SGN B   1      13.556  80.535  57.1950  0.00  0.00     0.000 OA
ENDBRANCH 5 17
BRANCH 1 23
ATOM     23  O4  IDS B   2      19.471  79.247  53.8110  0.00  0.00     0.000 O
BRANCH 23 27
ATOM     24  C1  IDS B   2      20.371  81.082  57.4240  0.00  0.00     0.000 C
ATOM     25  C2  IDS B   2      20.751  81.880  56.1570  0.00  0.00     0.000 C
ATOM     26  C3  IDS B   2      20.117  81.264  54.9130  0.00  0.00     0.000 C
ATOM     27  C4  IDS B   2      20.439  79.787  54.7350  0.00  0.00     0.000 C
ATOM     28  C5  IDS B   2      20.470  79.085  56.1070  0.00  0.00     0.000 C
ATOM     29  O5  IDS B   2      19.754  79.835  57.0770  0.00  0.00     0.000 O
ATOM     30   O  IDS B   2      20.589  81.949  53.7590  0.00  0.00     0.000 O
ATOM     32  HD  IDS B   2      21.381  81.701  53.5140  0.00  0.00     0.000 HD
BRANCH 25 32
ATOM     32   O  IDS B   2      20.310  83.295  56.2320  0.00  0.00     0.000 O
ATOM     33   S  IDS B   2      21.386  84.546  56.2050  0.00  0.00     0.000 S
ATOM     34   O  IDS B   2      20.623  85.743  56.5210  0.00  0.00     0.000 OA
ATOM     35   O  IDS B   2      22.432  84.306  57.1890  0.00  0.00     0.000 OA
ATOM     36   O  IDS B   2      21.899  84.590  54.8550  0.00  0.00     0.000 OA
ENDBRANCH 25 32
BRANCH 28 37
ATOM     37   C  IDS B   2      19.994  77.620  56.1790  0.00  0.00     0.000 C
ATOM     38   O  IDS B   2      20.799  76.844  55.7190  0.00  0.00     0.000 OA
ATOM     39   O  IDS B   2      18.935  77.194  56.7020  0.00  0.00     0.000 OA
ENDBRANCH 28 37
BRANCH 24 40
ATOM     40  O4  SUS B   3      20.891  81.430  58.6190  0.00  0.00     0.000 O
BRANCH 40 44
ATOM     41  C1  SUS B   3      19.220  81.262  62.4570  0.00  0.00     0.000 C
ATOM     42  C2  SUS B   3      19.571  79.921  61.7810  0.00  0.00     0.000 C
ATOM     43  C3  SUS B   3      20.574  80.171  60.6580  0.00  0.00     0.000 C
ATOM     44  C4  SUS B   3      20.000  81.210  59.7080  0.00  0.00     0.000 C
ATOM     45  C5  SUS B   3      19.786  82.504  60.4670  0.00  0.00     0.000 C
ATOM     46  O5  SUS B   3      18.821  82.259  61.5100  0.00  0.00     0.000 O
BRANCH 42 49
ATOM     47   N  SUS B   3      20.087  78.823  62.6160  0.00  0.00     0.000 N
ATOM     49  HD  SUS B   3      20.740  78.359  62.2860  0.00  0.00     0.000 HD
ATOM     49   S  SUS B   3      18.939  77.806  63.0790  0.00  0.00     0.000 S
ATOM     50   O  SUS B   3      18.286  77.274  61.9480  0.00  0.00     0.000 OA
ATOM     51   O  SUS B   3      19.880  76.749  63.7130  0.00  0.00     0.000 OA
ATOM     52   O  SUS B   3      18.142  78.418  64.0660  0.00  0.00     0.000 OA
ENDBRANCH 42 49
BRANCH 43 53
ATOM     53   O  SUS B   3      20.783  78.897  59.9420  0.00  0.00     0.000 O
ATOM     54   S  SUS B   3      22.309  78.288  59.9250  0.00  0.00     0.000 S
ATOM     55   O  SUS B   3      22.605  77.815  61.2700  0.00  0.00     0.000 OA
ATOM     56   O  SUS B   3      22.256  77.232  58.9310  0.00  0.00     0.000 OA
ATOM     57   O  SUS B   3      23.193  79.394  59.5460  0.00  0.00     0.000 OA
ENDBRANCH 43 53
BRANCH 45 58
ATOM     58   C  SUS B   3      19.308  83.619  59.5630  0.00  0.00     0.000 C
ATOM     59   S  SUS B   3      17.197  84.591  58.4760  0.00  0.00     0.000 S
ATOM     60   O  SUS B   3      17.871  83.630  59.5390  0.00  0.00     0.000 O
ATOM     61   O  SUS B   3      17.312  83.896  57.2090  0.00  0.00     0.000 OA
ATOM     62   O  SUS B   3      15.846  84.629  58.9690  0.00  0.00     0.000 OA
ATOM     63   O  SUS B   3      17.911  85.816  58.5650  0.00  0.00     0.000 OA
ENDBRANCH 45 58
BRANCH 41 64
ATOM     64  O4  IDS B   4      20.162  81.689  63.3600  0.00  0.00     0.000 O
BRANCH 64 68
ATOM     65  C1  IDS B   4      21.433  82.309  66.7180  0.00  0.00     0.000 C
ATOM     66  C2  IDS B   4      20.512  81.112  66.4500  0.00  0.00     0.000 C
ATOM     67  C3  IDS B   4      19.284  81.439  65.6170  0.00  0.00     0.000 C
ATOM     68  C4  IDS B   4      19.581  82.396  64.4780  0.00  0.00     0.000 C
ATOM     69  C5  IDS B   4      20.473  83.521  65.0200  0.00  0.00     0.000 C
ATOM     70  O5  IDS B   4      21.702  82.962  65.4900  0.00  0.00     0.000 O
ATOM     71   O  IDS B   4      18.329  82.013  66.4860  0.00  0.00     0.000 O
ATOM     73  HD  IDS B   4      19.039  81.560  66.2860  0.00  0.00     0.000 HD
BRANCH 66 73
ATOM     73   O  IDS B   4      21.254  80.109  65.6740  0.00  0.00     0.000 O
ATOM     74   S  IDS B   4      21.630  78.714  66.4010  0.00  0.00     0.000 S
ATOM     75   O  IDS B   4      22.379  79.060  67.5900  0.00  0.00     0.000 OA
ATOM     76   O  IDS B   4      22.412  78.052  65.3870  0.00  0.00     0.000 OA
ATOM     77   O  IDS B   4      20.367  78.076  66.6870  0.00  0.00     0.000 OA
ENDBRANCH 66 73
BRANCH 69 78
ATOM     78   C  IDS B   4      20.680  84.680  64.0550  0.00  0.00     0.000 C
ATOM     79   O  IDS B   4      20.326  85.807  64.3990  0.00  0.00     0.000 OA
ATOM     80   O  IDS B   4      21.296  84.469  62.9940  0.00  0.00     0.000 OA
ENDBRANCH 69 78
BRANCH 65 81
ATOM     81  O4  SGN B   5      20.905  83.072  67.7160  0.00  0.00     0.000 O
BRANCH 81 85
ATOM     82  C1  SGN B   5      21.889  85.442  71.0400  0.00  0.00     0.000 C
ATOM     83  C2  SGN B   5      22.122  86.056  69.6520  0.00  0.00     0.000 C
ATOM     84  C3  SGN B   5      21.304  85.287  68.6060  0.00  0.00     0.000 C
ATOM     85  C4  SGN B   5      21.663  83.813  68.6750  0.00  0.00     0.000 C
ATOM     86  C5  SGN B   5      21.367  83.313  70.0870  0.00  0.00     0.000 C
ATOM     87  O5  SGN B   5      22.175  84.057  71.0190  0.00  0.00     0.000 O
ATOM     88   O  SGN B   5      21.558  85.809  67.3200  0.00  0.00     0.000 O
ATOM     90  HD  SGN B   5      20.855  85.973  67.7990  0.00  0.00     0.000 HD
BRANCH 83 92
ATOM     90   N  SGN B   5      23.066  86.976  70.3170  0.00  0.00     0.000 N
ATOM     92  HD  SGN B   5      23.855  86.623  70.3740  0.00  0.00     0.000 HD
ATOM     92   S  SGN B   5      23.042  88.515  69.8910  0.00  0.00     0.000 S
ATOM     93   O  SGN B   5      24.057  89.123  70.6970  0.00  0.00     0.000 OA
ATOM     94   O  SGN B   5      23.157  88.525  68.4730  0.00  0.00     0.000 OA
ATOM     95   O  SGN B   5      21.645  88.987  70.2330  0.00  0.00     0.000 OA
ENDBRANCH 83 92
BRANCH 86 96
ATOM     96   C  SGN B   5      21.668  81.844  70.3010  0.00  0.00     0.000 C
ATOM     97   O  SGN B   5      22.970  81.521  69.8070  0.00  0.00     0.000 O
ATOM     98   S  SGN B   5      23.933  80.731  70.8180  0.00  0.00     0.000 S
ATOM     99   O  SGN B   5      25.055  80.382  69.9800  0.00  0.00     0.000 OA
ATOM    100   O  SGN B   5      24.243  81.612  71.8860  0.00  0.00     0.000 OA
ATOM    101   O  SGN B   5      23.164  79.603  71.2320  0.00  0.00     0.000 OA
ENDBRANCH 86 96
BRANCH 82 102
ATOM    102  O4  IDS B   6      20.625  85.658  71.5030  0.00  0.00     0.000 O
BRANCH 102 106
ATOM    103  C1  IDS B   6      18.033  86.913  73.7310  0.00  0.00     0.000 C
ATOM    104  C2  IDS B   6      19.052  87.870  73.0930  0.00  0.00     0.000 C
ATOM    105  C3  IDS B   6      20.498  87.420  73.1800  0.00  0.00     0.000 C
ATOM    106  C4  IDS B   6      20.664  85.932  72.9270  0.00  0.00     0.000 C
ATOM    107  C5  IDS B   6      19.567  85.157  73.6620  0.00  0.00     0.000 C
ATOM    108  O5  IDS B   6      18.261  85.592  73.2800  0.00  0.00     0.000 O
ATOM    109   O  IDS B   6      20.994  87.772  74.4600  0.00  0.00     0.000 O
ATOM    111  HD  IDS B   6      20.282  87.839  74.9490  0.00  0.00     0.000 HD
BRANCH 104 111
ATOM    111   O  IDS B   6      18.766  87.986  71.6550  0.00  0.00     0.000 O
ATOM    112   S  IDS B   6      18.053  89.321  71.1340  0.00  0.00     0.000 S
ATOM    113   O  IDS B   6      16.802  89.381  71.8750  0.00  0.00     0.000 OA
ATOM    114   O  IDS B   6      18.957  90.453  71.3670  0.00  0.00     0.000 OA
ATOM    115   O  IDS B   6      17.893  88.971  69.7390  0.00  0.00     0.000 OA
ENDBRANCH 104 111
BRANCH 107 116
ATOM    116   C  IDS B   6      19.721  83.669  73.3730  0.00  0.00     0.000 C
ATOM    117   O  IDS B   6      18.850  83.150  72.7200  0.00  0.00     0.000 OA
ATOM    118   O  IDS B   6      20.677  83.036  73.7920  0.00  0.00     0.000 OA
ENDBRANCH 107 116
BRANCH 103 119
ATOM    119  O4  SGN B   7      18.079  87.228  75.0510  0.00  0.00     0.000 O
BRANCH 119 123
ATOM    120  C1  SGN B   7      15.361  87.436  78.2220  0.00  0.00     0.000 C
ATOM    121  C2  SGN B   7      15.789  86.037  77.7410  0.00  0.00     0.000 C
ATOM    122  C3  SGN B   7      17.056  86.129  76.8800  0.00  0.00     0.000 C
ATOM    123  C4  SGN B   7      16.841  87.128  75.7550  0.00  0.00     0.000 C
ATOM    124  C5  SGN B   7      16.411  88.485  76.3370  0.00  0.00     0.000 C
ATOM    125  O5  SGN B   7      15.216  88.351  77.1380  0.00  0.00     0.000 O
ATOM    126   O  SGN B   7      17.367  84.827  76.3700  0.00  0.00     0.000 O
ATOM    128  HD  SGN B   7      16.894  85.312  76.9090  0.00  0.00     0.000 HD
BRANCH 121 130
ATOM    128   N  SGN B   7      14.685  85.414  78.4750  0.00  0.00     0.000 N
ATOM    130  HD  SGN B   7      14.665  84.761  77.9060  0.00  0.00     0.000 HD
ATOM    130   S  SGN B   7      14.886  84.090  79.3690  0.00  0.00     0.000 S
ATOM    131   O  SGN B   7      16.003  84.371  80.2050  0.00  0.00     0.000 OA
ATOM    132   O  SGN B   7      13.634  83.740  79.9370  0.00  0.00     0.000 OA
ATOM    133   O  SGN B   7      15.121  83.025  78.2440  0.00  0.00     0.000 OA
ENDBRANCH 121 130
BRANCH 124 134
ATOM    134   C  SGN B   7      16.062  89.508  75.2960  0.00  0.00     0.000 C
ATOM    135   O  SGN B   7      14.910  90.242  75.7440  0.00  0.00     0.000 O
ATOM    136   S  SGN B   7      14.475  91.468  74.8630  0.00  0.00     0.000 S
ATOM    137   O  SGN B   7      13.254  91.973  75.4440  0.00  0.00     0.000 OA
ATOM    138   O  SGN B   7      14.288  90.931  73.5340  0.00  0.00     0.000 OA
ATOM    139   O  SGN B   7      15.611  92.367  74.9950  0.00  0.00     0.000 OA
ENDBRANCH 124 134
BRANCH 120 140
ATOM    140  O4  IDS B   8      15.991  88.237  79.0890  0.00  0.00     0.000 O
BRANCH 140 144
ATOM    141  C1  IDS B   8      18.725  89.944  80.6910  0.00  0.00     0.000 C
ATOM    142  C2  IDS B   8      18.888  88.488  80.1690  0.00  0.00     0.000 C
ATOM    143  C3  IDS B   8      17.743  87.558  80.6110  0.00  0.00     0.000 C
ATOM    144  C4  IDS B   8      16.376  88.224  80.4690  0.00  0.00     0.000 C
ATOM    145  C5  IDS B   8      16.426  89.658  81.0160  0.00  0.00     0.000 C
ATOM    146  O5  IDS B   8      17.430  90.435  80.3680  0.00  0.00     0.000 O
BRANCH 142 147
ATOM    147   O  IDS B   8      18.902  88.493  78.6830  0.00  0.00     0.000 O
ATOM    148   S  IDS B   8      20.298  88.445  77.8590  0.00  0.00     0.000 S
ATOM    149   O  IDS B   8      21.360  88.789  78.7770  0.00  0.00     0.000 OA
ATOM    150   O  IDS B   8      20.406  87.087  77.3600  0.00  0.00     0.000 OA
ATOM    151   O  IDS B   8      20.154  89.430  76.8040  0.00  0.00     0.000 OA
ENDBRANCH 142 147
BRANCH 145 152
ATOM    152   C  IDS B   8      15.124  90.406  80.8130  0.00  0.00     0.000 C
ATOM    153   O  IDS B   8      15.115  91.432  80.1420  0.00  0.00     0.000 OA
ATOM    154   O  IDS B   8      14.097  89.970  81.3000  0.00  0.00     0.000 OA
ENDBRANCH 145 152
ENDBRANCH 140 144
ENDBRANCH 120 140
ENDBRANCH 119 123
ENDBRANCH 103 119
ENDBRANCH 102 106
ENDBRANCH 82 102
ENDBRANCH 81 85
ENDBRANCH 65 81
ENDBRANCH 64 68
ENDBRANCH 41 64
ENDBRANCH 40 44
ENDBRANCH 24 40
ENDBRANCH 23 27
ENDBRANCH 1 23
TORSDOF 31
ENDMDL
MODEL 69
REMARK VINA RESULT:      -1.3     73.185     81.923
ROOT
ATOM      1  C1  SGN B   1      47.039  53.518  80.2100  0.00  0.00     0.000 C
ATOM      2  C2  SGN B   1      47.585  52.933  81.5230  0.00  0.00     0.000 C
ATOM      3  C3  SGN B   1      47.668  54.015  82.6060  0.00  0.00     0.000 C
ATOM      4  C4  SGN B   1      48.506  55.190  82.1130  0.00  0.00     0.000 C
ATOM      5  C5  SGN B   1      47.996  55.626  80.7410  0.00  0.00     0.000 C
ATOM      6  O5  SGN B   1      48.001  54.499  79.8440  0.00  0.00     0.000 O
ATOM      7   O  SGN B   1      48.215  53.481  83.8060  0.00  0.00     0.000 O
ATOM      9  HD  SGN B   1      48.865  53.359  83.2460  0.00  0.00     0.000 HD
ATOM      9   O  SGN B   1      48.404  56.260  83.0340  0.00  0.00     0.000 O
ATOM     11  HD  SGN B   1      49.054  56.138  82.4750  0.00  0.00     0.000 HD
ENDROOT
BRANCH 2 13
ATOM     11   N  SGN B   1      47.808  51.507  81.2190  0.00  0.00     0.000 N
ATOM     13  HD  SGN B   1      47.053  51.886  81.0240  0.00  0.00     0.000 HD
ATOM     13   S  SGN B   1      46.604  50.441  81.1650  0.00  0.00     0.000 S
ATOM     14   O  SGN B   1      45.372  51.089  81.3940  0.00  0.00     0.000 OA
ATOM     15   O  SGN B   1      46.766  49.637  80.0010  0.00  0.00     0.000 OA
ATOM     16   O  SGN B   1      47.023  49.570  82.3890  0.00  0.00     0.000 OA
ENDBRANCH 2 13
BRANCH 5 17
ATOM     17   C  SGN B   1      48.818  56.715  80.0980  0.00  0.00     0.000 C
ATOM     18   O  SGN B   1      50.226  56.487  80.3040  0.00  0.00     0.000 O
ATOM     19   S  SGN B   1      51.085  57.760  80.7510  0.00  0.00     0.000 S
ATOM     20   O  SGN B   1      52.465  57.332  80.6600  0.00  0.00     0.000 OA
ATOM     21   O  SGN B   1      50.731  58.779  79.7910  0.00  0.00     0.000 OA
ATOM     22   O  SGN B   1      50.656  58.049  82.1020  0.00  0.00     0.000 OA
ENDBRANCH 5 17
BRANCH 1 23
ATOM     23  O4  IDS B   2      45.858  53.734  79.5630  0.00  0.00     0.000 O
BRANCH 23 27
ATOM     24  C1  IDS B   2      44.005  57.269  80.7040  0.00  0.00     0.000 C
ATOM     25  C2  IDS B   2      43.577  56.009  81.4870  0.00  0.00     0.000 C
ATOM     26  C3  IDS B   2      44.518  54.842  81.2000  0.00  0.00     0.000 C
ATOM     27  C4  IDS B   2      44.664  54.530  79.7170  0.00  0.00     0.000 C
ATOM     28  C5  IDS B   2      44.660  55.838  78.9010  0.00  0.00     0.000 C
ATOM     29  O5  IDS B   2      44.997  56.948  79.7190  0.00  0.00     0.000 O
ATOM     30   O  IDS B   2      44.021  53.671  81.8390  0.00  0.00     0.000 O
ATOM     32  HD  IDS B   2      43.373  53.295  81.4050  0.00  0.00     0.000 HD
BRANCH 25 32
ATOM     32   O  IDS B   2      43.576  56.233  82.9540  0.00  0.00     0.000 O
ATOM     33   S  IDS B   2      42.197  56.116  83.8520  0.00  0.00     0.000 S
ATOM     34   O  IDS B   2      42.532  56.615  85.1770  0.00  0.00     0.000 OA
ATOM     35   O  IDS B   2      41.147  56.914  83.2340  0.00  0.00     0.000 OA
ATOM     36   O  IDS B   2      41.872  54.709  83.8870  0.00  0.00     0.000 OA
ENDBRANCH 25 32
BRANCH 28 37
ATOM     37   C  IDS B   2      45.527  55.894  77.6260  0.00  0.00     0.000 C
ATOM     38   O  IDS B   2      45.048  55.272  76.7070  0.00  0.00     0.000 OA
ATOM     39   O  IDS B   2      46.587  56.546  77.4620  0.00  0.00     0.000 OA
ENDBRANCH 28 37
BRANCH 24 40
ATOM     40  O4  SUS B   3      43.258  58.390  80.7720  0.00  0.00     0.000 O
BRANCH 40 44
ATOM     41  C1  SUS B   3      44.396  62.421  80.6920  0.00  0.00     0.000 C
ATOM     42  C2  SUS B   3      44.539  61.622  79.3820  0.00  0.00     0.000 C
ATOM     43  C3  SUS B   3      43.659  60.375  79.4540  0.00  0.00     0.000 C
ATOM     44  C4  SUS B   3      44.025  59.587  80.7010  0.00  0.00     0.000 C
ATOM     45  C5  SUS B   3      43.756  60.445  81.9200  0.00  0.00     0.000 C
ATOM     46  O5  SUS B   3      44.607  61.606  81.8510  0.00  0.00     0.000 O
BRANCH 42 49
ATOM     47   N  SUS B   3      44.259  62.302  78.1050  0.00  0.00     0.000 N
ATOM     49  HD  SUS B   3      43.817  61.850  77.5140  0.00  0.00     0.000 HD
ATOM     49   S  SUS B   3      45.583  62.873  77.4070  0.00  0.00     0.000 S
ATOM     50   O  SUS B   3      46.503  61.826  77.1940  0.00  0.00     0.000 OA
ATOM     51   O  SUS B   3      44.916  63.293  76.0730  0.00  0.00     0.000 OA
ATOM     52   O  SUS B   3      46.035  64.004  78.1160  0.00  0.00     0.000 OA
ENDBRANCH 42 49
BRANCH 43 53
ATOM     53   O  SUS B   3      43.923  59.562  78.2510  0.00  0.00     0.000 O
ATOM     54   S  SUS B   3      42.654  59.277  77.2460  0.00  0.00     0.000 S
ATOM     55   O  SUS B   3      42.337  60.531  76.5760  0.00  0.00     0.000 OA
ATOM     56   O  SUS B   3      43.140  58.242  76.3510  0.00  0.00     0.000 OA
ATOM     57   O  SUS B   3      41.545  58.833  78.0940  0.00  0.00     0.000 OA
ENDBRANCH 43 53
BRANCH 45 58
ATOM     58   C  SUS B   3      44.002  59.692  83.2090  0.00  0.00     0.000 C
ATOM     59   S  SUS B   3      45.863  58.998  84.8350  0.00  0.00     0.000 S
ATOM     60   O  SUS B   3      45.365  59.887  83.6220  0.00  0.00     0.000 O
ATOM     61   O  SUS B   3      46.119  57.689  84.2660  0.00  0.00     0.000 OA
ATOM     62   O  SUS B   3      47.069  59.692  85.1980  0.00  0.00     0.000 OA
ATOM     63   O  SUS B   3      44.819  59.049  85.7970  0.00  0.00     0.000 OA
ENDBRANCH 45 58
BRANCH 41 64
ATOM     64  O4  IDS B   4      43.262  63.194  80.7490  0.00  0.00     0.000 O
BRANCH 64 68
ATOM     65  C1  IDS B   4      41.444  66.349  80.6510  0.00  0.00     0.000 C
ATOM     66  C2  IDS B   4      42.698  66.154  79.7910  0.00  0.00     0.000 C
ATOM     67  C3  IDS B   4      43.876  65.539  80.5280  0.00  0.00     0.000 C
ATOM     68  C4  IDS B   4      43.464  64.427  81.4740  0.00  0.00     0.000 C
ATOM     69  C5  IDS B   4      42.222  64.892  82.2460  0.00  0.00     0.000 C
ATOM     70  O5  IDS B   4      41.158  65.136  81.3230  0.00  0.00     0.000 O
ATOM     71   O  IDS B   4      44.503  66.576  81.2550  0.00  0.00     0.000 O
ATOM     73  HD  IDS B   4      43.987  66.243  80.6450  0.00  0.00     0.000 HD
BRANCH 66 73
ATOM     73   O  IDS B   4      42.385  65.217  78.7030  0.00  0.00     0.000 O
ATOM     74   S  IDS B   4      42.340  65.795  77.1930  0.00  0.00     0.000 S
ATOM     75   O  IDS B   4      41.376  66.875  77.1970  0.00  0.00     0.000 OA
ATOM     76   O  IDS B   4      41.921  64.637  76.4450  0.00  0.00     0.000 OA
ATOM     77   O  IDS B   4      43.686  66.232  76.9070  0.00  0.00     0.000 OA
ENDBRANCH 66 73
BRANCH 69 78
ATOM     78   C  IDS B   4      41.814  63.976  83.3920  0.00  0.00     0.000 C
ATOM     79   O  IDS B   4      41.779  64.436  84.5320  0.00  0.00     0.000 OA
ATOM     80   O  IDS B   4      41.427  62.824  83.1250  0.00  0.00     0.000 OA
ENDBRANCH 69 78
BRANCH 65 81
ATOM     81  O4  SGN B   5      41.594  67.459  81.4260  0.00  0.00     0.000 O
BRANCH 81 85
ATOM     82  C1  SGN B   5      39.545  70.729  83.0840  0.00  0.00     0.000 C
ATOM     83  C2  SGN B   5      39.325  69.360  83.7440  0.00  0.00     0.000 C
ATOM     84  C3  SGN B   5      40.459  68.407  83.3420  0.00  0.00     0.000 C
ATOM     85  C4  SGN B   5      40.537  68.334  81.8270  0.00  0.00     0.000 C
ATOM     86  C5  SGN B   5      40.780  69.742  81.2910  0.00  0.00     0.000 C
ATOM     87  O5  SGN B   5      39.678  70.582  81.6830  0.00  0.00     0.000 O
ATOM     88   O  SGN B   5      40.233  67.131  83.8980  0.00  0.00     0.000 O
ATOM     90  HD  SGN B   5      40.790  67.720  84.2030  0.00  0.00     0.000 HD
BRANCH 83 92
ATOM     90   N  SGN B   5      38.078  69.927  84.2930  0.00  0.00     0.000 N
ATOM     92  HD  SGN B   5      37.424  69.842  83.7310  0.00  0.00     0.000 HD
ATOM     92   S  SGN B   5      37.709  69.601  85.8140  0.00  0.00     0.000 S
ATOM     93   O  SGN B   5      36.466  70.278  86.0310  0.00  0.00     0.000 OA
ATOM     94   O  SGN B   5      37.780  68.184  85.9320  0.00  0.00     0.000 OA
ATOM     95   O  SGN B   5      38.852  70.179  86.6190  0.00  0.00     0.000 OA
ENDBRANCH 83 92
BRANCH 86 96
ATOM     96   C  SGN B   5      40.893  69.821  79.7820  0.00  0.00     0.000 C
ATOM     97   O  SGN B   5      39.816  69.116  79.1600  0.00  0.00     0.000 O
ATOM     98   S  SGN B   5      39.001  69.920  78.0370  0.00  0.00     0.000 S
ATOM     99   O  SGN B   5      38.146  68.903  77.4750  0.00  0.00     0.000 OA
ATOM    100   O  SGN B   5      38.314  70.979  78.6850  0.00  0.00     0.000 OA
ATOM    101   O  SGN B   5      40.004  70.380  77.1320  0.00  0.00     0.000 OA
ENDBRANCH 86 96
BRANCH 82 102
ATOM    102  O4  IDS B   6      40.621  71.391  83.5960  0.00  0.00     0.000 O
BRANCH 102 106
ATOM    103  C1  IDS B   6      42.428  74.057  85.2940  0.00  0.00     0.000 C
ATOM    104  C2  IDS B   6      41.266  73.330  85.9880  0.00  0.00     0.000 C
ATOM    105  C3  IDS B   6      40.015  73.168  85.1460  0.00  0.00     0.000 C
ATOM    106  C4  IDS B   6      40.321  72.806  83.7040  0.00  0.00     0.000 C
ATOM    107  C5  IDS B   6      41.492  73.652  83.1950  0.00  0.00     0.000 C
ATOM    108  O5  IDS B   6      42.654  73.500  84.0130  0.00  0.00     0.000 O
ATOM    109   O  IDS B   6      39.277  74.377  85.2170  0.00  0.00     0.000 O
ATOM    111  HD  IDS B   6      39.870  74.971  85.4290  0.00  0.00     0.000 HD
BRANCH 104 111
ATOM    111   O  IDS B   6      41.689  71.961  86.3220  0.00  0.00     0.000 O
ATOM    112   S  IDS B   6      42.047  71.635  87.8480  0.00  0.00     0.000 S
ATOM    113   O  IDS B   6      43.119  72.560  88.1780  0.00  0.00     0.000 OA
ATOM    114   O  IDS B   6      40.830  71.794  88.6530  0.00  0.00     0.000 OA
ATOM    115   O  IDS B   6      42.480  70.262  87.6980  0.00  0.00     0.000 OA
ENDBRANCH 104 111
BRANCH 107 116
ATOM    116   C  IDS B   6      41.814  73.255  81.7600  0.00  0.00     0.000 C
ATOM    117   O  IDS B   6      42.874  72.714  81.5720  0.00  0.00     0.000 OA
ATOM    118   O  IDS B   6      41.037  73.486  80.8470  0.00  0.00     0.000 OA
ENDBRANCH 107 116
BRANCH 103 119
ATOM    119  O4  SGN B   7      42.123  75.371  85.4490  0.00  0.00     0.000 O
BRANCH 119 123
ATOM    120  C1  SGN B   7      44.231  78.926  86.0870  0.00  0.00     0.000 C
ATOM    121  C2  SGN B   7      44.293  78.303  84.6800  0.00  0.00     0.000 C
ATOM    122  C3  SGN B   7      43.176  77.267  84.5010  0.00  0.00     0.000 C
ATOM    123  C4  SGN B   7      43.235  76.249  85.6280  0.00  0.00     0.000 C
ATOM    124  C5  SGN B   7      43.174  76.968  86.9850  0.00  0.00     0.000 C
ATOM    125  O5  SGN B   7      44.243  77.932  87.1100  0.00  0.00     0.000 O
ATOM    126   O  SGN B   7      43.323  76.639  83.2220  0.00  0.00     0.000 O
ATOM    128  HD  SGN B   7      43.562  77.272  83.7630  0.00  0.00     0.000 HD
BRANCH 121 130
ATOM    128   N  SGN B   7      45.425  79.160  84.3190  0.00  0.00     0.000 N
ATOM    130  HD  SGN B   7      45.707  78.563  83.7580  0.00  0.00     0.000 HD
ATOM    130   S  SGN B   7      45.503  79.932  82.9080  0.00  0.00     0.000 S
ATOM    131   O  SGN B   7      44.255  80.604  82.7820  0.00  0.00     0.000 OA
ATOM    132   O  SGN B   7      46.718  80.663  82.8660  0.00  0.00     0.000 OA
ATOM    133   O  SGN B   7      45.734  78.724  81.9380  0.00  0.00     0.000 OA
ENDBRANCH 121 130
BRANCH 124 134
ATOM    134   C  SGN B   7      43.342  76.055  88.1640  0.00  0.00     0.000 C
ATOM    135   O  SGN B   7      44.165  76.715  89.1410  0.00  0.00     0.000 O
ATOM    136   S  SGN B   7      44.336  75.984  90.5210  0.00  0.00     0.000 S
ATOM    137   O  SGN B   7      45.273  76.773  91.2850  0.00  0.00     0.000 OA
ATOM    138   O  SGN B   7      44.840  74.670  90.1930  0.00  0.00     0.000 OA
ATOM    139   O  SGN B   7      42.982  75.995  91.0510  0.00  0.00     0.000 OA
ENDBRANCH 124 134
BRANCH 120 140
ATOM    140  O4  IDS B   8      43.290  79.732  86.5900  0.00  0.00     0.000 O
BRANCH 140 144
ATOM    141  C1  IDS B   8      39.994  80.997  87.2990  0.00  0.00     0.000 C
ATOM    142  C2  IDS B   8      40.330  80.372  85.9150  0.00  0.00     0.000 C
ATOM    143  C3  IDS B   8      41.628  80.927  85.3010  0.00  0.00     0.000 C
ATOM    144  C4  IDS B   8      42.750  81.035  86.3320  0.00  0.00     0.000 C
ATOM    145  C5  IDS B   8      42.216  81.652  87.6340  0.00  0.00     0.000 C
ATOM    146  O5  IDS B   8      41.122  80.905  88.1610  0.00  0.00     0.000 O
BRANCH 142 147
ATOM    147   O  IDS B   8      40.507  78.903  86.0650  0.00  0.00     0.000 O
ATOM    148   S  IDS B   8      39.303  77.876  85.7130  0.00  0.00     0.000 S
ATOM    149   O  IDS B   8      38.078  78.640  85.6540  0.00  0.00     0.000 OA
ATOM    150   O  IDS B   8      39.659  77.286  84.4350  0.00  0.00     0.000 OA
ATOM    151   O  IDS B   8      39.291  76.915  86.7990  0.00  0.00     0.000 OA
ENDBRANCH 142 147
BRANCH 145 152
ATOM    152   C  IDS B   8      43.260  81.693  88.7310  0.00  0.00     0.000 C
ATOM    153   O  IDS B   8      44.306  82.305  88.5470  0.00  0.00     0.000 OA
ATOM    154   O  IDS B   8      43.041  81.136  89.7920  0.00  0.00     0.000 OA
ENDBRANCH 145 152
ENDBRANCH 140 144
ENDBRANCH 120 140
ENDBRANCH 119 123
ENDBRANCH 103 119
ENDBRANCH 102 106
ENDBRANCH 82 102
ENDBRANCH 81 85
ENDBRANCH 65 81
ENDBRANCH 64 68
ENDBRANCH 41 64
ENDBRANCH 40 44
ENDBRANCH 24 40
ENDBRANCH 23 27
ENDBRANCH 1 23
TORSDOF 31
ENDMDL
MODEL 70
REMARK VINA RESULT:      -1.3     65.253     71.133
ROOT
ATOM      1  C1  SGN B   1      75.912  53.968   5.6080  0.00  0.00     0.000 C
ATOM      2  C2  SGN B   1      75.381  52.847   6.5170  0.00  0.00     0.000 C
ATOM      3  C3  SGN B   1      74.597  53.431   7.6980  0.00  0.00     0.000 C
ATOM      4  C4  SGN B   1      75.462  54.426   8.4640  0.00  0.00     0.000 C
ATOM      5  C5  SGN B   1      76.069  55.423   7.4790  0.00  0.00     0.000 C
ATOM      6  O5  SGN B   1      76.783  54.710   6.4510  0.00  0.00     0.000 O
ATOM      7   O  SGN B   1      74.146  52.394   8.5600  0.00  0.00     0.000 O
ATOM      9  HD  SGN B   1      75.005  52.295   8.6010  0.00  0.00     0.000 HD
ATOM      9   O  SGN B   1      74.667  55.104   9.4190  0.00  0.00     0.000 O
ATOM     11  HD  SGN B   1      75.526  55.006   9.4600  0.00  0.00     0.000 HD
ENDROOT
BRANCH 2 13
ATOM     11   N  SGN B   1      75.839  51.606   5.8650  0.00  0.00     0.000 N
ATOM     13  HD  SGN B   1      75.434  52.219   5.4080  0.00  0.00     0.000 HD
ATOM     13   S  SGN B   1      75.106  50.995   4.5700  0.00  0.00     0.000 S
ATOM     14   O  SGN B   1      74.049  51.838   4.1670  0.00  0.00     0.000 OA
ATOM     15   O  SGN B   1      76.103  50.620   3.6230  0.00  0.00     0.000 OA
ATOM     16   O  SGN B   1      74.569  49.681   5.2170  0.00  0.00     0.000 OA
ENDBRANCH 2 13
BRANCH 5 17
ATOM     17   C  SGN B   1      77.036  56.395   8.1070  0.00  0.00     0.000 C
ATOM     18   O  SGN B   1      77.878  55.733   9.0720  0.00  0.00     0.000 O
ATOM     19   S  SGN B   1      78.078  56.491  10.4660  0.00  0.00     0.000 S
ATOM     20   O  SGN B   1      79.126  55.758  11.1440  0.00  0.00     0.000 OA
ATOM     21   O  SGN B   1      78.461  57.831  10.0870  0.00  0.00     0.000 OA
ATOM     22   O  SGN B   1      76.793  56.411  11.1260  0.00  0.00     0.000 OA
ENDBRANCH 5 17
BRANCH 1 23
ATOM     23  O4  IDS B   2      75.545  54.705   4.5210  0.00  0.00     0.000 O
BRANCH 23 27
ATOM     24  C1  IDS B   2      73.218  57.996   5.5150  0.00  0.00     0.000 C
ATOM     25  C2  IDS B   2      72.439  56.715   5.1440  0.00  0.00     0.000 C
ATOM     26  C3  IDS B   2      73.369  55.506   5.0900  0.00  0.00     0.000 C
ATOM     27  C4  IDS B   2      74.561  55.698   4.1630  0.00  0.00     0.000 C
ATOM     28  C5  IDS B   2      75.065  57.153   4.2460  0.00  0.00     0.000 C
ATOM     29  O5  IDS B   2      74.633  57.771   5.4490  0.00  0.00     0.000 O
ATOM     30   O  IDS B   2      72.641  54.375   4.6250  0.00  0.00     0.000 O
ATOM     32  HD  IDS B   2      72.533  54.368   3.7660  0.00  0.00     0.000 HD
BRANCH 25 32
ATOM     32   O  IDS B   2      71.363  56.410   6.1190  0.00  0.00     0.000 O
ATOM     33   S  IDS B   2      69.772  56.379   5.6810  0.00  0.00     0.000 S
ATOM     34   O  IDS B   2      69.014  56.275   6.9180  0.00  0.00     0.000 OA
ATOM     35   O  IDS B   2      69.446  57.600   4.9580  0.00  0.00     0.000 OA
ATOM     36   O  IDS B   2      69.615  55.197   4.8660  0.00  0.00     0.000 OA
ENDBRANCH 25 32
BRANCH 28 37
ATOM     37   C  IDS B   2      76.579  57.402   4.0890  0.00  0.00     0.000 C
ATOM     38   O  IDS B   2      77.056  57.990   5.0310  0.00  0.00     0.000 OA
ATOM     39   O  IDS B   2      77.316  57.009   3.1520  0.00  0.00     0.000 OA
ENDBRANCH 28 37
BRANCH 24 40
ATOM     40  O4  SUS B   3      72.582  59.185   5.5470  0.00  0.00     0.000 O
BRANCH 40 44
ATOM     41  C1  SUS B   3      73.164  62.508   8.0300  0.00  0.00     0.000 C
ATOM     42  C2  SUS B   3      74.263  62.202   6.9920  0.00  0.00     0.000 C
ATOM     43  C3  SUS B   3      73.686  61.306   5.8990  0.00  0.00     0.000 C
ATOM     44  C4  SUS B   3      73.084  60.068   6.5450  0.00  0.00     0.000 C
ATOM     45  C5  SUS B   3      71.962  60.493   7.4680  0.00  0.00     0.000 C
ATOM     46  O5  SUS B   3      72.523  61.321   8.5080  0.00  0.00     0.000 O
BRANCH 42 49
ATOM     47   N  SUS B   3      74.952  63.329   6.3400  0.00  0.00     0.000 N
ATOM     49  HD  SUS B   3      75.105  63.250   5.4910  0.00  0.00     0.000 HD
ATOM     49   S  SUS B   3      76.330  63.711   7.0610  0.00  0.00     0.000 S
ATOM     50   O  SUS B   3      77.183  62.589   7.0920  0.00  0.00     0.000 OA
ATOM     51   O  SUS B   3      76.811  64.733   6.0000  0.00  0.00     0.000 OA
ATOM     52   O  SUS B   3      76.055  64.356   8.2840  0.00  0.00     0.000 OA
ENDBRANCH 42 49
BRANCH 43 53
ATOM     53   O  SUS B   3      74.790  60.917   5.0000  0.00  0.00     0.000 O
ATOM     54   S  SUS B   3      74.665  61.360   3.4230  0.00  0.00     0.000 S
ATOM     55   O  SUS B   3      74.852  62.803   3.3580  0.00  0.00     0.000 OA
ATOM     56   O  SUS B   3      75.713  60.603   2.7600  0.00  0.00     0.000 OA
ATOM     57   O  SUS B   3      73.317  60.979   2.9910  0.00  0.00     0.000 OA
ENDBRANCH 43 53
BRANCH 45 58
ATOM     58   C  SUS B   3      71.245  59.306   8.0740  0.00  0.00     0.000 C
ATOM     59   S  SUS B   3      71.389  57.607   9.9920  0.00  0.00     0.000 S
ATOM     60   O  SUS B   3      71.869  58.959   9.3220  0.00  0.00     0.000 O
ATOM     61   O  SUS B   3      72.061  56.557   9.2500  0.00  0.00     0.000 OA
ATOM     62   O  SUS B   3      71.910  57.768  11.3230  0.00  0.00     0.000 OA
ATOM     63   O  SUS B   3      69.973  57.613   9.8880  0.00  0.00     0.000 OA
ENDBRANCH 45 58
BRANCH 41 64
ATOM     64  O4  IDS B   4      72.296  63.499   7.6410  0.00  0.00     0.000 O
BRANCH 64 68
ATOM     65  C1  IDS B   4      70.917  66.869   7.7460  0.00  0.00     0.000 C
ATOM     66  C2  IDS B   4      72.414  66.640   7.9880  0.00  0.00     0.000 C
ATOM     67  C3  IDS B   4      72.728  65.506   8.9500  0.00  0.00     0.000 C
ATOM     68  C4  IDS B   4      71.831  64.299   8.7510  0.00  0.00     0.000 C
ATOM     69  C5  IDS B   4      70.389  64.797   8.5830  0.00  0.00     0.000 C
ATOM     70  O5  IDS B   4      70.312  65.630   7.4230  0.00  0.00     0.000 O
ATOM     71   O  IDS B   4      72.566  66.011  10.2590  0.00  0.00     0.000 O
ATOM     73  HD  IDS B   4      72.674  66.066   9.4020  0.00  0.00     0.000 HD
BRANCH 66 73
ATOM     73   O  IDS B   4      73.046  66.260   6.7170  0.00  0.00     0.000 O
ATOM     74   S  IDS B   4      74.072  67.311   6.0370  0.00  0.00     0.000 S
ATOM     75   O  IDS B   4      73.338  68.547   5.8650  0.00  0.00     0.000 OA
ATOM     76   O  IDS B   4      74.400  66.646   4.8010  0.00  0.00     0.000 OA
ATOM     77   O  IDS B   4      75.175  67.425   6.9600  0.00  0.00     0.000 OA
ENDBRANCH 66 73
BRANCH 69 78
ATOM     78   C  IDS B   4      69.338  63.696   8.5920  0.00  0.00     0.000 C
ATOM     79   O  IDS B   4      68.409  63.759   7.7870  0.00  0.00     0.000 OA
ATOM     80   O  IDS B   4      69.508  62.716   9.3400  0.00  0.00     0.000 OA
ENDBRANCH 69 78
BRANCH 65 81
ATOM     81  O4  SGN B   5      70.388  67.556   8.7960  0.00  0.00     0.000 O
BRANCH 81 85
ATOM     82  C1  SGN B   5      67.573  70.491   9.8440  0.00  0.00     0.000 C
ATOM     83  C2  SGN B   5      67.031  69.096   9.4980  0.00  0.00     0.000 C
ATOM     84  C3  SGN B   5      68.163  68.065   9.6000  0.00  0.00     0.000 C
ATOM     85  C4  SGN B   5      69.315  68.496   8.7100  0.00  0.00     0.000 C
ATOM     86  C5  SGN B   5      69.781  69.878   9.1630  0.00  0.00     0.000 C
ATOM     87  O5  SGN B   5      68.685  70.802   9.0270  0.00  0.00     0.000 O
ATOM     88   O  SGN B   5      67.686  66.791   9.2280  0.00  0.00     0.000 O
ATOM     90  HD  SGN B   5      67.813  67.062  10.0410  0.00  0.00     0.000 HD
BRANCH 83 92
ATOM     90   N  SGN B   5      65.802  69.827   9.8660  0.00  0.00     0.000 N
ATOM     92  HD  SGN B   5      65.803  70.625   9.5290  0.00  0.00     0.000 HD
ATOM     92   S  SGN B   5      64.409  69.051   9.7650  0.00  0.00     0.000 S
ATOM     93   O  SGN B   5      63.434  70.017  10.1740  0.00  0.00     0.000 OA
ATOM     94   O  SGN B   5      64.364  68.506   8.4510  0.00  0.00     0.000 OA
ATOM     95   O  SGN B   5      64.543  67.893  10.7290  0.00  0.00     0.000 OA
ENDBRANCH 83 92
BRANCH 86 96
ATOM     96   C  SGN B   5      70.943  70.433   8.3660  0.00  0.00     0.000 C
ATOM     97   O  SGN B   5      70.693  70.312   6.9640  0.00  0.00     0.000 O
ATOM     98   S  SGN B   5      70.893  71.644   6.0930  0.00  0.00     0.000 S
ATOM     99   O  SGN B   5      70.773  71.160   4.7390  0.00  0.00     0.000 OA
ATOM    100   O  SGN B   5      69.885  72.563   6.4840  0.00  0.00     0.000 OA
ATOM    101   O  SGN B   5      72.208  72.088   6.4210  0.00  0.00     0.000 OA
ENDBRANCH 86 96
BRANCH 82 102
ATOM    102  O4  IDS B   6      67.904  70.613  11.1610  0.00  0.00     0.000 O
BRANCH 102 106
ATOM    103  C1  IDS B   6      67.409  72.474  14.2520  0.00  0.00     0.000 C
ATOM    104  C2  IDS B   6      66.345  72.494  13.1430  0.00  0.00     0.000 C
ATOM    105  C3  IDS B   6      66.877  72.743  11.7450  0.00  0.00     0.000 C
ATOM    106  C4  IDS B   6      68.175  72.003  11.4720  0.00  0.00     0.000 C
ATOM    107  C5  IDS B   6      69.102  72.119  12.6860  0.00  0.00     0.000 C
ATOM    108  O5  IDS B   6      68.483  71.632  13.8770  0.00  0.00     0.000 O
ATOM    109   O  IDS B   6      67.050  74.141  11.5810  0.00  0.00     0.000 O
ATOM    111  HD  IDS B   6      67.127  74.438  12.3910  0.00  0.00     0.000 HD
BRANCH 104 111
ATOM    111   O  IDS B   6      65.692  71.177  13.0810  0.00  0.00     0.000 O
ATOM    112   S  IDS B   6      64.201  71.048  13.6510  0.00  0.00     0.000 S
ATOM    113   O  IDS B   6      64.303  71.465  15.0410  0.00  0.00     0.000 OA
ATOM    114   O  IDS B   6      63.315  71.878  12.8260  0.00  0.00     0.000 OA
ATOM    115   O  IDS B   6      64.007  69.625  13.4780  0.00  0.00     0.000 OA
ENDBRANCH 104 111
BRANCH 107 116
ATOM    116   C  IDS B   6      70.385  71.344  12.4160  0.00  0.00     0.000 C
ATOM    117   O  IDS B   6      70.515  70.293  12.9900  0.00  0.00     0.000 OA
ATOM    118   O  IDS B   6      71.242  71.777  11.6610  0.00  0.00     0.000 OA
ENDBRANCH 107 116
BRANCH 103 119
ATOM    119  O4  SGN B   7      67.605  73.787  14.5330  0.00  0.00     0.000 O
BRANCH 119 123
ATOM    120  C1  SGN B   7      68.433  76.077  17.9330  0.00  0.00     0.000 C
ATOM    121  C2  SGN B   7      69.581  75.238  17.3410  0.00  0.00     0.000 C
ATOM    122  C3  SGN B   7      69.243  74.796  15.9120  0.00  0.00     0.000 C
ATOM    123  C4  SGN B   7      67.896  74.092  15.8970  0.00  0.00     0.000 C
ATOM    124  C5  SGN B   7      66.823  75.006  16.5120  0.00  0.00     0.000 C
ATOM    125  O5  SGN B   7      67.182  75.396  17.8560  0.00  0.00     0.000 O
ATOM    126   O  SGN B   7      70.284  73.939  15.4300  0.00  0.00     0.000 O
ATOM    128  HD  SGN B   7      70.006  74.488  16.0390  0.00  0.00     0.000 HD
BRANCH 121 130
ATOM    128   N  SGN B   7      70.374  75.418  18.5600  0.00  0.00     0.000 N
ATOM    130  HD  SGN B   7      70.773  74.662  18.4210  0.00  0.00     0.000 HD
ATOM    130   S  SGN B   7      71.942  75.787  18.5180  0.00  0.00     0.000 S
ATOM    131   O  SGN B   7      72.039  76.901  17.6380  0.00  0.00     0.000 OA
ATOM    132   O  SGN B   7      72.413  75.883  19.8520  0.00  0.00     0.000 OA
ATOM    133   O  SGN B   7      72.533  74.437  17.9860  0.00  0.00     0.000 OA
ENDBRANCH 121 130
BRANCH 124 134
ATOM    134   C  SGN B   7      65.477  74.356  16.6480  0.00  0.00     0.000 C
ATOM    135   O  SGN B   7      64.908  74.741  17.9110  0.00  0.00     0.000 O
ATOM    136   S  SGN B   7      63.429  74.287  18.1800  0.00  0.00     0.000 S
ATOM    137   O  SGN B   7      63.118  74.693  19.5300  0.00  0.00     0.000 OA
ATOM    138   O  SGN B   7      63.437  72.851  18.0100  0.00  0.00     0.000 OA
ATOM    139   O  SGN B   7      62.688  75.010  17.1580  0.00  0.00     0.000 OA
ENDBRANCH 124 134
BRANCH 120 140
ATOM    140  O4  IDS B   8      68.030  77.297  17.5630  0.00  0.00     0.000 O
BRANCH 140 144
ATOM    141  C1  IDS B   8      67.153  80.008  15.3610  0.00  0.00     0.000 C
ATOM    142  C2  IDS B   8      68.330  79.049  15.0200  0.00  0.00     0.000 C
ATOM    143  C3  IDS B   8      69.299  78.840  16.1990  0.00  0.00     0.000 C
ATOM    144  C4  IDS B   8      68.558  78.628  17.5180  0.00  0.00     0.000 C
ATOM    145  C5  IDS B   8      67.422  79.653  17.6580  0.00  0.00     0.000 C
ATOM    146  O5  IDS B   8      66.515  79.586  16.5600  0.00  0.00     0.000 O
BRANCH 142 147
ATOM    147   O  IDS B   8      67.790  77.714  14.6520  0.00  0.00     0.000 O
ATOM    148   S  IDS B   8      67.608  77.285  13.0980  0.00  0.00     0.000 S
ATOM    149   O  IDS B   8      67.671  78.489  12.3010  0.00  0.00     0.000 OA
ATOM    150   O  IDS B   8      68.699  76.369  12.8190  0.00  0.00     0.000 OA
ATOM    151   O  IDS B   8      66.304  76.655  13.0260  0.00  0.00     0.000 OA
ENDBRANCH 142 147
BRANCH 145 152
ATOM    152   C  IDS B   8      66.587  79.431  18.9030  0.00  0.00     0.000 C
ATOM    153   O  IDS B   8      65.389  79.195  18.7930  0.00  0.00     0.000 OA
ATOM    154   O  IDS B   8      67.117  79.469  19.9980  0.00  0.00     0.000 OA
ENDBRANCH 145 152
ENDBRANCH 140 144
ENDBRANCH 120 140
ENDBRANCH 119 123
ENDBRANCH 103 119
ENDBRANCH 102 106
ENDBRANCH 82 102
ENDBRANCH 81 85
ENDBRANCH 65 81
ENDBRANCH 64 68
ENDBRANCH 41 64
ENDBRANCH 40 44
ENDBRANCH 24 40
ENDBRANCH 23 27
ENDBRANCH 1 23
TORSDOF 31
ENDMDL
MODEL 71
REMARK VINA RESULT:      -1.3     72.035     79.395
ROOT
ATOM      1  C1  SGN B   1      67.266  70.826  76.7580  0.00  0.00     0.000 C
ATOM      2  C2  SGN B   1      68.192  70.366  77.8960  0.00  0.00     0.000 C
ATOM      3  C3  SGN B   1      67.566  69.200  78.6680  0.00  0.00     0.000 C
ATOM      4  C4  SGN B   1      66.183  69.590  79.1800  0.00  0.00     0.000 C
ATOM      5  C5  SGN B   1      65.368  70.169  78.0260  0.00  0.00     0.000 C
ATOM      6  O5  SGN B   1      66.090  71.263  77.4270  0.00  0.00     0.000 O
ATOM      7   O  SGN B   1      68.405  68.806  79.7470  0.00  0.00     0.000 O
ATOM      9  HD  SGN B   1      68.223  69.627  79.9560  0.00  0.00     0.000 HD
ATOM      9   O  SGN B   1      65.537  68.446  79.7090  0.00  0.00     0.000 O
ATOM     11  HD  SGN B   1      65.356  69.267  79.9170  0.00  0.00     0.000 HD
ENDROOT
BRANCH 2 13
ATOM     11   N  SGN B   1      69.368  71.250  77.7850  0.00  0.00     0.000 N
ATOM     13  HD  SGN B   1      69.060  70.838  77.0880  0.00  0.00     0.000 HD
ATOM     13   S  SGN B   1      70.510  71.025  76.6740  0.00  0.00     0.000 S
ATOM     14   O  SGN B   1      70.174  69.933  75.8460  0.00  0.00     0.000 OA
ATOM     15   O  SGN B   1      70.816  72.284  76.0820  0.00  0.00     0.000 OA
ATOM     16   O  SGN B   1      71.687  70.669  77.6330  0.00  0.00     0.000 OA
ENDBRANCH 2 13
BRANCH 5 17
ATOM     17   C  SGN B   1      64.014  70.694  78.4330  0.00  0.00     0.000 C
ATOM     18   O  SGN B   1      64.092  71.402  79.6860  0.00  0.00     0.000 O
ATOM     19   S  SGN B   1      62.949  71.066  80.7540  0.00  0.00     0.000 S
ATOM     20   O  SGN B   1      63.110  72.054  81.7990  0.00  0.00     0.000 OA
ATOM     21   O  SGN B   1      61.719  71.206  80.0100  0.00  0.00     0.000 OA
ATOM     22   O  SGN B   1      63.224  69.714  81.1870  0.00  0.00     0.000 OA
ENDBRANCH 5 17
BRANCH 1 23
ATOM     23  O4  IDS B   2      67.011  70.578  75.4420  0.00  0.00     0.000 O
BRANCH 23 27
ATOM     24  C1  IDS B   2      64.422  67.384  74.8680  0.00  0.00     0.000 C
ATOM     25  C2  IDS B   2      65.926  67.035  74.8490  0.00  0.00     0.000 C
ATOM     26  C3  IDS B   2      66.765  68.204  75.3600  0.00  0.00     0.000 C
ATOM     27  C4  IDS B   2      66.505  69.508  74.6170  0.00  0.00     0.000 C
ATOM     28  C5  IDS B   2      65.008  69.625  74.2670  0.00  0.00     0.000 C
ATOM     29  O5  IDS B   2      64.224  68.785  75.1000  0.00  0.00     0.000 O
ATOM     30   O  IDS B   2      68.144  67.891  75.2100  0.00  0.00     0.000 O
ATOM     32  HD  IDS B   2      68.433  67.999  74.4000  0.00  0.00     0.000 HD
BRANCH 25 32
ATOM     32   O  IDS B   2      66.240  65.856  75.6940  0.00  0.00     0.000 O
ATOM     33   S  IDS B   2      66.868  64.470  75.0570  0.00  0.00     0.000 S
ATOM     34   O  IDS B   2      66.829  63.480  76.1220  0.00  0.00     0.000 OA
ATOM     35   O  IDS B   2      66.066  64.055  73.9150  0.00  0.00     0.000 OA
ATOM     36   O  IDS B   2      68.227  64.792  74.6870  0.00  0.00     0.000 OA
ENDBRANCH 25 32
BRANCH 28 37
ATOM     37   C  IDS B   2      64.377  71.033  74.2660  0.00  0.00     0.000 C
ATOM     38   O  IDS B   2      64.694  71.687  73.3000  0.00  0.00     0.000 OA
ATOM     39   O  IDS B   2      63.561  71.496  75.1010  0.00  0.00     0.000 OA
ENDBRANCH 28 37
BRANCH 24 40
ATOM     40  O4  SUS B   3      63.520  66.502  74.3890  0.00  0.00     0.000 O
BRANCH 40 44
ATOM     41  C1  SUS B   3      59.604  65.681  75.6270  0.00  0.00     0.000 C
ATOM     42  C2  SUS B   3      59.855  67.036  74.9370  0.00  0.00     0.000 C
ATOM     43  C3  SUS B   3      61.161  66.964  74.1480  0.00  0.00     0.000 C
ATOM     44  C4  SUS B   3      62.278  66.530  75.0830  0.00  0.00     0.000 C
ATOM     45  C5  SUS B   3      61.958  65.151  75.6220  0.00  0.00     0.000 C
ATOM     46  O5  SUS B   3      60.736  65.238  76.3830  0.00  0.00     0.000 O
BRANCH 42 49
ATOM     47   N  SUS B   3      58.815  67.580  74.0470  0.00  0.00     0.000 N
ATOM     49  HD  SUS B   3      59.088  67.946  73.3110  0.00  0.00     0.000 HD
ATOM     49   S  SUS B   3      57.846  68.617  74.7910  0.00  0.00     0.000 S
ATOM     50   O  SUS B   3      58.603  69.674  75.3360  0.00  0.00     0.000 OA
ATOM     51   O  SUS B   3      57.082  69.087  73.5260  0.00  0.00     0.000 OA
ATOM     52   O  SUS B   3      56.987  67.914  75.6590  0.00  0.00     0.000 OA
ENDBRANCH 42 49
BRANCH 43 53
ATOM     53   O  SUS B   3      61.446  68.311  73.6160  0.00  0.00     0.000 O
ATOM     54   S  SUS B   3      61.538  68.469  71.9830  0.00  0.00     0.000 S
ATOM     55   O  SUS B   3      60.189  68.325  71.4530  0.00  0.00     0.000 OA
ATOM     56   O  SUS B   3      62.106  69.791  71.7880  0.00  0.00     0.000 OA
ATOM     57   O  SUS B   3      62.412  67.390  71.5110  0.00  0.00     0.000 OA
ENDBRANCH 43 53
BRANCH 45 58
ATOM     58   C  SUS B   3      63.075  64.607  76.4860  0.00  0.00     0.000 C
ATOM     59   S  SUS B   3      64.019  64.679  78.8710  0.00  0.00     0.000 S
ATOM     60   O  SUS B   3      62.841  64.977  77.8550  0.00  0.00     0.000 O
ATOM     61   O  SUS B   3      64.989  65.734  78.6480  0.00  0.00     0.000 OA
ATOM     62   O  SUS B   3      63.331  64.813  80.1260  0.00  0.00     0.000 OA
ATOM     63   O  SUS B   3      64.466  63.367  78.5600  0.00  0.00     0.000 OA
ENDBRANCH 45 58
BRANCH 41 64
ATOM     64  O4  IDS B   4      59.076  64.725  74.7940  0.00  0.00     0.000 O
BRANCH 64 68
ATOM     65  C1  IDS B   4      56.394  62.616  73.5170  0.00  0.00     0.000 C
ATOM     66  C2  IDS B   4      56.085  64.022  74.0460  0.00  0.00     0.000 C
ATOM     67  C3  IDS B   4      56.742  64.350  75.3760  0.00  0.00     0.000 C
ATOM     68  C4  IDS B   4      58.165  63.834  75.4750  0.00  0.00     0.000 C
ATOM     69  C5  IDS B   4      58.191  62.400  74.9290  0.00  0.00     0.000 C
ATOM     70  O5  IDS B   4      57.794  62.411  73.5560  0.00  0.00     0.000 O
ATOM     71   O  IDS B   4      55.951  63.765  76.3910  0.00  0.00     0.000 O
ATOM     73  HD  IDS B   4      56.117  64.061  75.5940  0.00  0.00     0.000 HD
BRANCH 66 73
ATOM     73   O  IDS B   4      56.610  65.011  73.0960  0.00  0.00     0.000 O
ATOM     74   S  IDS B   4      55.547  65.896  72.2570  0.00  0.00     0.000 S
ATOM     75   O  IDS B   4      54.693  64.958  71.5600  0.00  0.00     0.000 OA
ATOM     76   O  IDS B   4      56.413  66.657  71.3910  0.00  0.00     0.000 OA
ATOM     77   O  IDS B   4      54.845  66.688  73.2390  0.00  0.00     0.000 OA
ENDBRANCH 66 73
BRANCH 69 78
ATOM     78   C  IDS B   4      59.503  61.663  75.1610  0.00  0.00     0.000 C
ATOM     79   O  IDS B   4      59.489  60.621  75.8160  0.00  0.00     0.000 OA
ATOM     80   O  IDS B   4      60.529  62.079  74.5920  0.00  0.00     0.000 OA
ENDBRANCH 69 78
BRANCH 65 81
ATOM     81  O4  SGN B   5      55.622  61.705  74.1730  0.00  0.00     0.000 O
BRANCH 81 85
ATOM     82  C1  SGN B   5      53.490  58.117  73.7060  0.00  0.00     0.000 C
ATOM     83  C2  SGN B   5      55.021  58.014  73.7840  0.00  0.00     0.000 C
ATOM     84  C3  SGN B   5      55.590  59.296  74.4060  0.00  0.00     0.000 C
ATOM     85  C4  SGN B   5      55.113  60.496  73.6070  0.00  0.00     0.000 C
ATOM     86  C5  SGN B   5      53.586  60.504  73.6200  0.00  0.00     0.000 C
ATOM     87  O5  SGN B   5      53.112  59.289  73.0090  0.00  0.00     0.000 O
ATOM     88   O  SGN B   5      56.999  59.233  74.4290  0.00  0.00     0.000 O
ATOM     90  HD  SGN B   5      56.479  59.094  75.1080  0.00  0.00     0.000 HD
BRANCH 83 92
ATOM     90   N  SGN B   5      54.617  56.598  73.6860  0.00  0.00     0.000 N
ATOM     92  HD  SGN B   5      53.990  56.493  73.0990  0.00  0.00     0.000 HD
ATOM     92   S  SGN B   5      55.768  55.489  73.6510  0.00  0.00     0.000 S
ATOM     93   O  SGN B   5      55.062  54.248  73.5480  0.00  0.00     0.000 OA
ATOM     94   O  SGN B   5      56.659  55.891  72.6160  0.00  0.00     0.000 OA
ATOM     95   O  SGN B   5      56.500  55.653  74.9650  0.00  0.00     0.000 OA
ENDBRANCH 83 92
BRANCH 86 96
ATOM     96   C  SGN B   5      52.965  61.661  72.8650  0.00  0.00     0.000 C
ATOM     97   O  SGN B   5      53.557  61.792  71.5710  0.00  0.00     0.000 O
ATOM     98   S  SGN B   5      52.539  61.879  70.3340  0.00  0.00     0.000 S
ATOM     99   O  SGN B   5      53.409  62.205  69.2290  0.00  0.00     0.000 OA
ATOM    100   O  SGN B   5      51.891  60.621  70.2270  0.00  0.00     0.000 OA
ATOM    101   O  SGN B   5      51.647  62.936  70.6830  0.00  0.00     0.000 OA
ENDBRANCH 86 96
BRANCH 82 102
ATOM    102  O4  IDS B   6      52.898  58.083  74.9330  0.00  0.00     0.000 O
BRANCH 102 106
ATOM    103  C1  IDS B   6      50.451  56.457  77.0830  0.00  0.00     0.000 C
ATOM    104  C2  IDS B   6      51.070  55.709  75.8910  0.00  0.00     0.000 C
ATOM    105  C3  IDS B   6      51.093  56.485  74.5890  0.00  0.00     0.000 C
ATOM    106  C4  IDS B   6      51.463  57.945  74.7820  0.00  0.00     0.000 C
ATOM    107  C5  IDS B   6      50.730  58.507  76.0040  0.00  0.00     0.000 C
ATOM    108  O5  IDS B   6      51.009  57.753  77.1850  0.00  0.00     0.000 O
ATOM    109   O  IDS B   6      49.818  56.364  73.9800  0.00  0.00     0.000 O
ATOM    111  HD  IDS B   6      49.289  56.177  74.6400  0.00  0.00     0.000 HD
BRANCH 104 111
ATOM    111   O  IDS B   6      52.479  55.412  76.1920  0.00  0.00     0.000 O
ATOM    112   S  IDS B   6      52.874  53.897  76.5260  0.00  0.00     0.000 S
ATOM    113   O  IDS B   6      52.057  53.552  77.6800  0.00  0.00     0.000 OA
ATOM    114   O  IDS B   6      52.627  53.078  75.3340  0.00  0.00     0.000 OA
ATOM    115   O  IDS B   6      54.275  54.083  76.8340  0.00  0.00     0.000 OA
ENDBRANCH 104 111
BRANCH 107 116
ATOM    116   C  IDS B   6      51.135  59.960  76.2110  0.00  0.00     0.000 C
ATOM    117   O  IDS B   6      50.651  60.769  75.4600  0.00  0.00     0.000 OA
ATOM    118   O  IDS B   6      51.918  60.283  77.0890  0.00  0.00     0.000 OA
ENDBRANCH 107 116
BRANCH 103 119
ATOM    119  O4  SGN B   7      49.116  56.273  76.9190  0.00  0.00     0.000 O
BRANCH 119 123
ATOM    120  C1  SGN B   7      45.798  55.723  79.4050  0.00  0.00     0.000 C
ATOM    121  C2  SGN B   7      46.391  57.141  79.3100  0.00  0.00     0.000 C
ATOM    122  C3  SGN B   7      47.310  57.260  78.0880  0.00  0.00     0.000 C
ATOM    123  C4  SGN B   7      48.355  56.157  78.1220  0.00  0.00     0.000 C
ATOM    124  C5  SGN B   7      47.665  54.786  78.2230  0.00  0.00     0.000 C
ATOM    125  O5  SGN B   7      46.812  54.720  79.3880  0.00  0.00     0.000 O
ATOM    126   O  SGN B   7      47.919  58.556  78.0860  0.00  0.00     0.000 O
ATOM    128  HD  SGN B   7      47.325  58.023  78.4220  0.00  0.00     0.000 HD
BRANCH 121 130
ATOM    128   N  SGN B   7      45.636  57.563  80.4920  0.00  0.00     0.000 N
ATOM    130  HD  SGN B   7      46.245  58.149  80.6820  0.00  0.00     0.000 HD
ATOM    130   S  SGN B   7      44.846  58.965  80.5530  0.00  0.00     0.000 S
ATOM    131   O  SGN B   7      44.061  59.002  79.3670  0.00  0.00     0.000 OA
ATOM    132   O  SGN B   7      44.229  59.076  81.8250  0.00  0.00     0.000 OA
ATOM    133   O  SGN B   7      46.052  59.964  80.6100  0.00  0.00     0.000 OA
ENDBRANCH 121 130
BRANCH 124 134
ATOM    134   C  SGN B   7      48.617  53.637  78.3800  0.00  0.00     0.000 C
ATOM    135   O  SGN B   7      48.070  52.717  79.3390  0.00  0.00     0.000 O
ATOM    136   S  SGN B   7      48.846  51.365  79.5330  0.00  0.00     0.000 S
ATOM    137   O  SGN B   7      48.178  50.664  80.6040  0.00  0.00     0.000 OA
ATOM    138   O  SGN B   7      50.198  51.749  79.8670  0.00  0.00     0.000 OA
ATOM    139   O  SGN B   7      48.703  50.732  78.2310  0.00  0.00     0.000 OA
ENDBRANCH 124 134
BRANCH 120 140
ATOM    140  O4  IDS B   8      44.916  55.143  78.5830  0.00  0.00     0.000 O
BRANCH 140 144
ATOM    141  C1  IDS B   8      43.354  54.197  75.4800  0.00  0.00     0.000 C
ATOM    142  C2  IDS B   8      43.974  55.612  75.6650  0.00  0.00     0.000 C
ATOM    143  C3  IDS B   8      43.532  56.298  76.9700  0.00  0.00     0.000 C
ATOM    144  C4  IDS B   8      43.561  55.340  78.1600  0.00  0.00     0.000 C
ATOM    145  C5  IDS B   8      42.929  53.995  77.7720  0.00  0.00     0.000 C
ATOM    146  O5  IDS B   8      43.579  53.413  76.6450  0.00  0.00     0.000 O
BRANCH 142 147
ATOM    147   O  IDS B   8      45.456  55.502  75.7050  0.00  0.00     0.000 O
ATOM    148   S  IDS B   8      46.352  55.796  74.3850  0.00  0.00     0.000 S
ATOM    149   O  IDS B   8      45.471  55.760  73.2400  0.00  0.00     0.000 OA
ATOM    150   O  IDS B   8      46.941  57.105  74.6000  0.00  0.00     0.000 OA
ATOM    151   O  IDS B   8      47.335  54.729  74.3460  0.00  0.00     0.000 OA
ENDBRANCH 142 147
BRANCH 145 152
ATOM    152   C  IDS B   8      43.017  52.967  78.8820  0.00  0.00     0.000 C
ATOM    153   O  IDS B   8      43.621  51.918  78.6870  0.00  0.00     0.000 OA
ATOM    154   O  IDS B   8      42.505  53.202  79.9610  0.00  0.00     0.000 OA
ENDBRANCH 145 152
ENDBRANCH 140 144
ENDBRANCH 120 140
ENDBRANCH 119 123
ENDBRANCH 103 119
ENDBRANCH 102 106
ENDBRANCH 82 102
ENDBRANCH 81 85
ENDBRANCH 65 81
ENDBRANCH 64 68
ENDBRANCH 41 64
ENDBRANCH 40 44
ENDBRANCH 24 40
ENDBRANCH 23 27
ENDBRANCH 1 23
TORSDOF 31
ENDMDL
MODEL 72
REMARK VINA RESULT:      -1.3     59.664     69.100
ROOT
ATOM      1  C1  SGN B   1      16.084  58.307  64.1760  0.00  0.00     0.000 C
ATOM      2  C2  SGN B   1      15.810  57.763  62.7650  0.00  0.00     0.000 C
ATOM      3  C3  SGN B   1      16.040  58.851  61.7100  0.00  0.00     0.000 C
ATOM      4  C4  SGN B   1      15.190  60.077  62.0240  0.00  0.00     0.000 C
ATOM      5  C5  SGN B   1      15.406  60.475  63.4820  0.00  0.00     0.000 C
ATOM      6  O5  SGN B   1      15.129  59.348  64.3350  0.00  0.00     0.000 O
ATOM      7   O  SGN B   1      15.743  58.357  60.4090  0.00  0.00     0.000 O
ATOM      9  HD  SGN B   1      14.978  58.277  60.8070  0.00  0.00     0.000 HD
ATOM      9   O  SGN B   1      15.563  61.140  61.1670  0.00  0.00     0.000 O
ATOM     11  HD  SGN B   1      14.798  61.061  61.5640  0.00  0.00     0.000 HD
ENDROOT
BRANCH 2 13
ATOM     11   N  SGN B   1      15.431  56.360  63.0190  0.00  0.00     0.000 N
ATOM     13  HD  SGN B   1      16.163  56.686  63.3490  0.00  0.00     0.000 HD
ATOM     13   S  SGN B   1      16.524  55.211  63.2890  0.00  0.00     0.000 S
ATOM     14   O  SGN B   1      17.821  55.765  63.2920  0.00  0.00     0.000 OA
ATOM     15   O  SGN B   1      16.093  54.432  64.4010  0.00  0.00     0.000 OA
ATOM     16   O  SGN B   1      16.274  54.359  62.0060  0.00  0.00     0.000 OA
ENDBRANCH 2 13
BRANCH 5 17
ATOM     17   C  SGN B   1      14.532  61.615  63.9440  0.00  0.00     0.000 C
ATOM     18   O  SGN B   1      13.194  61.479  63.4260  0.00  0.00     0.000 O
ATOM     19   S  SGN B   1      12.538  62.806  62.8210  0.00  0.00     0.000 S
ATOM     20   O  SGN B   1      11.149  62.469  62.5960  0.00  0.00     0.000 OA
ATOM     21   O  SGN B   1      12.734  63.798  63.8520  0.00  0.00     0.000 OA
ATOM     22   O  SGN B   1      13.275  63.070  61.6040  0.00  0.00     0.000 OA
ENDBRANCH 5 17
BRANCH 1 23
ATOM     23  O4  IDS B   2      17.101  58.442  65.0740  0.00  0.00     0.000 O
BRANCH 23 27
ATOM     24  C1  IDS B   2      19.394  61.839  64.4130  0.00  0.00     0.000 C
ATOM     25  C2  IDS B   2      19.907  60.546  63.7410  0.00  0.00     0.000 C
ATOM     26  C3  IDS B   2      18.851  59.446  63.7960  0.00  0.00     0.000 C
ATOM     27  C4  IDS B   2      18.348  59.157  65.2040  0.00  0.00     0.000 C
ATOM     28  C5  IDS B   2      18.249  60.470  66.0080  0.00  0.00     0.000 C
ATOM     29  O5  IDS B   2      18.183  61.592  65.1410  0.00  0.00     0.000 O
ATOM     30   O  IDS B   2      19.404  58.240  63.2820  0.00  0.00     0.000 O
ATOM     32  HD  IDS B   2      19.909  57.826  63.8510  0.00  0.00     0.000 HD
BRANCH 25 32
ATOM     32   O  IDS B   2      20.261  60.757  62.3160  0.00  0.00     0.000 O
ATOM     33   S  IDS B   2      21.799  60.542  61.7580  0.00  0.00     0.000 S
ATOM     34   O  IDS B   2      21.810  61.049  60.3950  0.00  0.00     0.000 OA
ATOM     35   O  IDS B   2      22.728  61.274  62.6060  0.00  0.00     0.000 OA
ATOM     36   O  IDS B   2      22.029  59.116  61.7900  0.00  0.00     0.000 OA
ENDBRANCH 25 32
BRANCH 28 37
ATOM     37   C  IDS B   2      17.118  60.594  67.0490  0.00  0.00     0.000 C
ATOM     38   O  IDS B   2      16.408  61.553  66.8560  0.00  0.00     0.000 OA
ATOM     39   O  IDS B   2      16.856  59.793  67.9790  0.00  0.00     0.000 OA
ENDBRANCH 28 37
BRANCH 24 40
ATOM     40  O4  SUS B   3      20.209  62.908  64.5250  0.00  0.00     0.000 O
BRANCH 40 44
ATOM     41  C1  SUS B   3      19.350  67.005  64.3690  0.00  0.00     0.000 C
ATOM     42  C2  SUS B   3      18.855  66.228  65.6050  0.00  0.00     0.000 C
ATOM     43  C3  SUS B   3      19.644  64.926  65.7300  0.00  0.00     0.000 C
ATOM     44  C4  SUS B   3      19.526  64.153  64.4250  0.00  0.00     0.000 C
ATOM     45  C5  SUS B   3      20.126  64.982  63.3080  0.00  0.00     0.000 C
ATOM     46  O5  SUS B   3      19.359  66.197  63.1870  0.00  0.00     0.000 O
BRANCH 42 49
ATOM     47   N  SUS B   3      18.872  66.891  66.9210  0.00  0.00     0.000 N
ATOM     49  HD  SUS B   3      19.128  66.409  67.5930  0.00  0.00     0.000 HD
ATOM     49   S  SUS B   3      17.466  67.560  67.2940  0.00  0.00     0.000 S
ATOM     50   O  SUS B   3      16.448  66.585  67.2680  0.00  0.00     0.000 OA
ATOM     51   O  SUS B   3      17.827  67.935  68.7540  0.00  0.00     0.000 OA
ATOM     52   O  SUS B   3      17.279  68.719  66.5140  0.00  0.00     0.000 OA
ENDBRANCH 42 49
BRANCH 43 53
ATOM     53   O  SUS B   3      19.056  64.142  66.8330  0.00  0.00     0.000 O
ATOM     54   S  SUS B   3      20.037  63.779  68.1010  0.00  0.00     0.000 S
ATOM     55   O  SUS B   3      20.275  65.014  68.8350  0.00  0.00     0.000 OA
ATOM     56   O  SUS B   3      19.290  62.786  68.8510  0.00  0.00     0.000 OA
ATOM     57   O  SUS B   3      21.280  63.255  67.5270  0.00  0.00     0.000 OA
ENDBRANCH 43 53
BRANCH 45 58
ATOM     58   C  SUS B   3      20.136  64.236  61.9920  0.00  0.00     0.000 C
ATOM     59   S  SUS B   3      18.661  63.653  59.9740  0.00  0.00     0.000 S
ATOM     60   O  SUS B   3      18.922  64.517  61.2760  0.00  0.00     0.000 O
ATOM     61   O  SUS B   3      18.194  62.368  60.4590  0.00  0.00     0.000 OA
ATOM     62   O  SUS B   3      17.620  64.422  59.3470  0.00  0.00     0.000 OA
ATOM     63   O  SUS B   3      19.900  63.628  59.2810  0.00  0.00     0.000 OA
ENDBRANCH 45 58
BRANCH 41 64
ATOM     64  O4  IDS B   4      20.514  67.702  64.5830  0.00  0.00     0.000 O
BRANCH 64 68
ATOM     65  C1  IDS B   4      22.424  70.748  65.1690  0.00  0.00     0.000 C
ATOM     66  C2  IDS B   4      20.991  70.621  65.7000  0.00  0.00     0.000 C
ATOM     67  C3  IDS B   4      19.993  70.078  64.6910  0.00  0.00     0.000 C
ATOM     68  C4  IDS B   4      20.559  68.948  63.8520  0.00  0.00     0.000 C
ATOM     69  C5  IDS B   4      21.974  69.344  63.4090  0.00  0.00     0.000 C
ATOM     70  O5  IDS B   4      22.796  69.523  64.5640  0.00  0.00     0.000 O
ATOM     71   O  IDS B   4      19.617  71.152  63.8540  0.00  0.00     0.000 O
ATOM     73  HD  IDS B   4      19.952  70.787  64.5640  0.00  0.00     0.000 HD
BRANCH 66 73
ATOM     73   O  IDS B   4      20.982  69.663  66.8140  0.00  0.00     0.000 O
ATOM     74   S  IDS B   4      20.746  70.238  68.3080  0.00  0.00     0.000 S
ATOM     75   O  IDS B   4      21.773  71.233  68.5300  0.00  0.00     0.000 OA
ATOM     76   O  IDS B   4      20.896  69.050  69.1100  0.00  0.00     0.000 OA
ATOM     77   O  IDS B   4      19.411  70.787  68.3030  0.00  0.00     0.000 OA
ENDBRANCH 66 73
BRANCH 69 78
ATOM     78   C  IDS B   4      22.595  68.412  62.3780  0.00  0.00     0.000 C
ATOM     79   O  IDS B   4      22.725  67.221  62.6600  0.00  0.00     0.000 OA
ATOM     80   O  IDS B   4      22.853  68.861  61.2460  0.00  0.00     0.000 OA
ENDBRANCH 69 78
BRANCH 65 81
ATOM     81  O4  SGN B   5      22.525  71.868  64.4000  0.00  0.00     0.000 O
BRANCH 81 85
ATOM     82  C1  SGN B   5      25.096  75.010  63.3280  0.00  0.00     0.000 C
ATOM     83  C2  SGN B   5      25.362  73.641  62.6840  0.00  0.00     0.000 C
ATOM     84  C3  SGN B   5      24.106  72.766  62.8040  0.00  0.00     0.000 C
ATOM     85  C4  SGN B   5      23.700  72.671  64.2640  0.00  0.00     0.000 C
ATOM     86  C5  SGN B   5      23.442  74.083  64.7830  0.00  0.00     0.000 C
ATOM     87  O5  SGN B   5      24.656  74.848  64.6630  0.00  0.00     0.000 O
ATOM     88   O  SGN B   5      24.361  71.487  62.2660  0.00  0.00     0.000 O
ATOM     90  HD  SGN B   5      23.923  72.121  61.8690  0.00  0.00     0.000 HD
BRANCH 83 92
ATOM     90   N  SGN B   5      26.752  74.078  62.4520  0.00  0.00     0.000 N
ATOM     92  HD  SGN B   5      27.258  73.877  63.1260  0.00  0.00     0.000 HD
ATOM     92   S  SGN B   5      27.397  73.802  61.0160  0.00  0.00     0.000 S
ATOM     93   O  SGN B   5      28.725  74.328  61.1170  0.00  0.00     0.000 OA
ATOM     94   O  SGN B   5      27.196  72.416  60.7640  0.00  0.00     0.000 OA
ATOM     95   O  SGN B   5      26.523  74.569  60.0480  0.00  0.00     0.000 OA
ENDBRANCH 83 92
BRANCH 86 96
ATOM     96   C  SGN B   5      23.013  74.142  66.2350  0.00  0.00     0.000 C
ATOM     97   O  SGN B   5      23.910  73.389  67.0540  0.00  0.00     0.000 O
ATOM     98   S  SGN B   5      24.492  74.146  68.3430  0.00  0.00     0.000 S
ATOM     99   O  SGN B   5      25.174  73.089  69.0510  0.00  0.00     0.000 OA
ATOM    100   O  SGN B   5      25.334  75.189  67.8810  0.00  0.00     0.000 OA
ATOM    101   O  SGN B   5      23.334  74.626  69.0250  0.00  0.00     0.000 OA
ENDBRANCH 86 96
BRANCH 82 102
ATOM    102  O4  IDS B   6      24.202  75.758  62.6210  0.00  0.00     0.000 O
BRANCH 102 106
ATOM    103  C1  IDS B   6      23.002  78.580  60.6580  0.00  0.00     0.000 C
ATOM    104  C2  IDS B   6      24.244  77.789  60.2190  0.00  0.00     0.000 C
ATOM    105  C3  IDS B   6      25.257  77.523  61.3160  0.00  0.00     0.000 C
ATOM    106  C4  IDS B   6      24.607  77.151  62.6370  0.00  0.00     0.000 C
ATOM    107  C5  IDS B   6      23.405  78.064  62.8980  0.00  0.00     0.000 C
ATOM    108  O5  IDS B   6      22.455  78.011  61.8330  0.00  0.00     0.000 O
ATOM    109   O  IDS B   6      26.065  78.679  61.4610  0.00  0.00     0.000 O
ATOM    111  HD  IDS B   6      25.575  79.318  61.1420  0.00  0.00     0.000 HD
BRANCH 104 111
ATOM    111   O  IDS B   6      23.825  76.461  59.7470  0.00  0.00     0.000 O
ATOM    112   S  IDS B   6      23.790  76.200  58.1680  0.00  0.00     0.000 S
ATOM    113   O  IDS B   6      22.871  77.202  57.6510  0.00  0.00     0.000 OA
ATOM    114   O  IDS B   6      25.160  76.300  57.6510  0.00  0.00     0.000 OA
ATOM    115   O  IDS B   6      23.256  74.855  58.1660  0.00  0.00     0.000 OA
ENDBRANCH 104 111
BRANCH 107 116
ATOM    116   C  IDS B   6      22.739  77.659  64.2060  0.00  0.00     0.000 C
ATOM    117   O  IDS B   6      21.627  77.202  64.1290  0.00  0.00     0.000 OA
ATOM    118   O  IDS B   6      23.305  77.802  65.2790  0.00  0.00     0.000 OA
ENDBRANCH 107 116
BRANCH 103 119
ATOM    119  O4  SGN B   7      23.415  79.873  60.6260  0.00  0.00     0.000 O
BRANCH 119 123
ATOM    120  C1  SGN B   7      21.742  83.571  59.6180  0.00  0.00     0.000 C
ATOM    121  C2  SGN B   7      21.366  82.966  60.9840  0.00  0.00     0.000 C
ATOM    122  C3  SGN B   7      22.346  81.850  61.3660  0.00  0.00     0.000 C
ATOM    123  C4  SGN B   7      22.427  80.830  60.2430  0.00  0.00     0.000 C
ATOM    124  C5  SGN B   7      22.801  81.531  58.9270  0.00  0.00     0.000 C
ATOM    125  O5  SGN B   7      21.851  82.572  58.6050  0.00  0.00     0.000 O
ATOM    126   O  SGN B   7      21.910  81.245  62.5890  0.00  0.00     0.000 O
ATOM    128  HD  SGN B   7      21.827  81.890  62.0170  0.00  0.00     0.000 HD
BRANCH 121 130
ATOM    128   N  SGN B   7      20.179  83.802  61.1790  0.00  0.00     0.000 N
ATOM    130  HD  SGN B   7      19.876  83.247  61.7700  0.00  0.00     0.000 HD
ATOM    130   S  SGN B   7      19.965  84.696  62.5010  0.00  0.00     0.000 S
ATOM    131   O  SGN B   7      21.175  85.428  62.6560  0.00  0.00     0.000 OA
ATOM    132   O  SGN B   7      18.725  85.375  62.3850  0.00  0.00     0.000 OA
ATOM    133   O  SGN B   7      19.702  83.571  63.5600  0.00  0.00     0.000 OA
ENDBRANCH 121 130
BRANCH 124 134
ATOM    134   C  SGN B   7      22.793  80.623  57.7320  0.00  0.00     0.000 C
ATOM    135   O  SGN B   7      23.406  81.313  56.6290  0.00  0.00     0.000 O
ATOM    136   S  SGN B   7      23.635  80.475  55.3200  0.00  0.00     0.000 S
ATOM    137   O  SGN B   7      24.156  81.394  54.3360  0.00  0.00     0.000 OA
ATOM    138   O  SGN B   7      22.332  79.955  54.9710  0.00  0.00     0.000 OA
ATOM    139   O  SGN B   7      24.589  79.468  55.7550  0.00  0.00     0.000 OA
ENDBRANCH 124 134
BRANCH 120 140
ATOM    140  O4  IDS B   8      22.821  84.299  59.3100  0.00  0.00     0.000 O
BRANCH 140 144
ATOM    141  C1  IDS B   8      26.275  85.312  59.2460  0.00  0.00     0.000 C
ATOM    142  C2  IDS B   8      25.638  84.724  60.5370  0.00  0.00     0.000 C
ATOM    143  C3  IDS B   8      24.292  85.379  60.8980  0.00  0.00     0.000 C
ATOM    144  C4  IDS B   8      23.396  85.560  59.6730  0.00  0.00     0.000 C
ATOM    145  C5  IDS B   8      24.212  86.126  58.5000  0.00  0.00     0.000 C
ATOM    146  O5  IDS B   8      25.327  85.296  58.1850  0.00  0.00     0.000 O
BRANCH 142 147
ATOM    147   O  IDS B   8      25.384  83.272  60.3470  0.00  0.00     0.000 O
ATOM    148   S  IDS B   8      26.407  82.160  60.9380  0.00  0.00     0.000 S
ATOM    149   O  IDS B   8      27.648  82.830  61.2540  0.00  0.00     0.000 OA
ATOM    150   O  IDS B   8      25.750  81.614  62.1110  0.00  0.00     0.000 OA
ATOM    151   O  IDS B   8      26.571  81.188  59.8740  0.00  0.00     0.000 OA
ENDBRANCH 142 147
BRANCH 145 152
ATOM    152   C  IDS B   8      23.400  86.236  57.2250  0.00  0.00     0.000 C
ATOM    153   O  IDS B   8      22.390  86.930  57.2100  0.00  0.00     0.000 OA
ATOM    154   O  IDS B   8      23.771  85.650  56.2240  0.00  0.00     0.000 OA
ENDBRANCH 145 152
ENDBRANCH 140 144
ENDBRANCH 120 140
ENDBRANCH 119 123
ENDBRANCH 103 119
ENDBRANCH 102 106
ENDBRANCH 82 102
ENDBRANCH 81 85
ENDBRANCH 65 81
ENDBRANCH 64 68
ENDBRANCH 41 64
ENDBRANCH 40 44
ENDBRANCH 24 40
ENDBRANCH 23 27
ENDBRANCH 1 23
TORSDOF 31
ENDMDL
MODEL 73
REMARK VINA RESULT:      -1.2     72.556     80.254
ROOT
ATOM      1  C1  SGN B   1      74.040  58.492  85.7070  0.00  0.00     0.000 C
ATOM      2  C2  SGN B   1      75.283  57.587  85.6700  0.00  0.00     0.000 C
ATOM      3  C3  SGN B   1      74.996  56.303  84.8830  0.00  0.00     0.000 C
ATOM      4  C4  SGN B   1      73.785  55.586  85.4690  0.00  0.00     0.000 C
ATOM      5  C5  SGN B   1      72.634  56.580  85.6070  0.00  0.00     0.000 C
ATOM      6  O5  SGN B   1      73.067  57.711  86.3880  0.00  0.00     0.000 O
ATOM      7   O  SGN B   1      76.134  55.449  84.8890  0.00  0.00     0.000 O
ATOM      9  HD  SGN B   1      75.950  55.504  85.7340  0.00  0.00     0.000 HD
ATOM      9   O  SGN B   1      73.410  54.521  84.6140  0.00  0.00     0.000 O
ATOM     11  HD  SGN B   1      73.227  54.576  85.4590  0.00  0.00     0.000 HD
ENDROOT
BRANCH 2 13
ATOM     11   N  SGN B   1      76.277  58.365  86.4330  0.00  0.00     0.000 N
ATOM     13  HD  SGN B   1      75.845  58.727  85.7750  0.00  0.00     0.000 HD
ATOM     13   S  SGN B   1      77.102  59.581  85.7770  0.00  0.00     0.000 S
ATOM     14   O  SGN B   1      76.687  59.788  84.4450  0.00  0.00     0.000 OA
ATOM     15   O  SGN B   1      77.094  60.674  86.6910  0.00  0.00     0.000 OA
ATOM     16   O  SGN B   1      78.524  58.943  85.8360  0.00  0.00     0.000 OA
ENDBRANCH 2 13
BRANCH 5 17
ATOM     17   C  SGN B   1      71.409  56.012  86.2800  0.00  0.00     0.000 C
ATOM     18   O  SGN B   1      70.755  55.049  85.4290  0.00  0.00     0.000 O
ATOM     19   S  SGN B   1      69.165  55.174  85.3210  0.00  0.00     0.000 S
ATOM     20   O  SGN B   1      68.741  53.980  84.6210  0.00  0.00     0.000 OA
ATOM     21   O  SGN B   1      68.721  55.227  86.6950  0.00  0.00     0.000 OA
ATOM     22   O  SGN B   1      68.931  56.394  84.5800  0.00  0.00     0.000 OA
ENDBRANCH 5 17
BRANCH 1 23
ATOM     23  O4  IDS B   2      73.448  59.497  85.0020  0.00  0.00     0.000 O
BRANCH 23 27
ATOM     24  C1  IDS B   2      71.144  58.158  81.8190  0.00  0.00     0.000 C
ATOM     25  C2  IDS B   2      72.622  58.465  81.4900  0.00  0.00     0.000 C
ATOM     26  C3  IDS B   2      73.436  58.657  82.7670  0.00  0.00     0.000 C
ATOM     27  C4  IDS B   2      72.862  59.713  83.7010  0.00  0.00     0.000 C
ATOM     28  C5  IDS B   2      71.321  59.655  83.6780  0.00  0.00     0.000 C
ATOM     29  O5  IDS B   2      70.868  58.395  83.2060  0.00  0.00     0.000 O
ATOM     30   O  IDS B   2      74.757  59.059  82.4230  0.00  0.00     0.000 O
ATOM     32  HD  IDS B   2      74.817  59.900  82.2230  0.00  0.00     0.000 HD
BRANCH 25 32
ATOM     32   O  IDS B   2      73.260  57.377  80.7100  0.00  0.00     0.000 O
ATOM     33   S  IDS B   2      73.854  57.626  79.1910  0.00  0.00     0.000 S
ATOM     34   O  IDS B   2      74.188  56.312  78.6650  0.00  0.00     0.000 OA
ATOM     35   O  IDS B   2      72.840  58.282  78.3770  0.00  0.00     0.000 OA
ATOM     36   O  IDS B   2      75.035  58.441  79.3620  0.00  0.00     0.000 OA
ENDBRANCH 25 32
BRANCH 28 37
ATOM     37   C  IDS B   2      70.568  59.984  84.9830  0.00  0.00     0.000 C
ATOM     38   O  IDS B   2      70.422  61.172  85.1520  0.00  0.00     0.000 OA
ATOM     39   O  IDS B   2      70.072  59.166  85.7960  0.00  0.00     0.000 OA
ENDBRANCH 28 37
BRANCH 24 40
ATOM     40  O4  SUS B   3      70.246  58.022  80.8210  0.00  0.00     0.000 O
BRANCH 40 44
ATOM     41  C1  SUS B   3      66.898  55.525  80.5000  0.00  0.00     0.000 C
ATOM     42  C2  SUS B   3      66.816  56.689  81.5080  0.00  0.00     0.000 C
ATOM     43  C3  SUS B   3      67.870  57.736  81.1550  0.00  0.00     0.000 C
ATOM     44  C4  SUS B   3      69.232  57.063  81.0980  0.00  0.00     0.000 C
ATOM     45  C5  SUS B   3      69.212  56.006  80.0130  0.00  0.00     0.000 C
ATOM     46  O5  SUS B   3      68.229  55.013  80.3700  0.00  0.00     0.000 O
BRANCH 42 49
ATOM     47   N  SUS B   3      65.541  57.401  81.7020  0.00  0.00     0.000 N
ATOM     49  HD  SUS B   3      65.589  58.261  81.7990  0.00  0.00     0.000 HD
ATOM     49   S  SUS B   3      64.683  56.810  82.9190  0.00  0.00     0.000 S
ATOM     50   O  SUS B   3      65.438  56.859  84.1080  0.00  0.00     0.000 OA
ATOM     51   O  SUS B   3      63.591  57.911  82.9190  0.00  0.00     0.000 OA
ATOM     52   O  SUS B   3      64.136  55.567  82.5440  0.00  0.00     0.000 OA
ENDBRANCH 42 49
BRANCH 43 53
ATOM     53   O  SUS B   3      67.862  58.765  82.2140  0.00  0.00     0.000 O
ATOM     54   S  SUS B   3      67.511  60.305  81.7600  0.00  0.00     0.000 S
ATOM     55   O  SUS B   3      66.095  60.349  81.4250  0.00  0.00     0.000 OA
ATOM     56   O  SUS B   3      67.864  61.103  82.9200  0.00  0.00     0.000 OA
ATOM     57   O  SUS B   3      68.343  60.592  80.5870  0.00  0.00     0.000 OA
ENDBRANCH 43 53
BRANCH 45 58
ATOM     58   C  SUS B   3      70.567  55.358  79.8280  0.00  0.00     0.000 C
ATOM     59   S  SUS B   3      72.080  53.507  80.7600  0.00  0.00     0.000 S
ATOM     60   O  SUS B   3      70.654  54.190  80.6610  0.00  0.00     0.000 O
ATOM     61   O  SUS B   3      72.836  54.338  81.6770  0.00  0.00     0.000 OA
ATOM     62   O  SUS B   3      71.727  52.233  81.3270  0.00  0.00     0.000 OA
ATOM     63   O  SUS B   3      72.574  53.464  79.4290  0.00  0.00     0.000 OA
ENDBRANCH 45 58
BRANCH 41 64
ATOM     64  O4  IDS B   4      66.276  55.785  79.3040  0.00  0.00     0.000 O
BRANCH 64 68
ATOM     65  C1  IDS B   4      63.561  55.423  76.9010  0.00  0.00     0.000 C
ATOM     66  C2  IDS B   4      63.276  55.343  78.4070  0.00  0.00     0.000 C
ATOM     67  C3  IDS B   4      64.238  54.458  79.1810  0.00  0.00     0.000 C
ATOM     68  C4  IDS B   4      65.676  54.606  78.7220  0.00  0.00     0.000 C
ATOM     69  C5  IDS B   4      65.689  54.609  77.1870  0.00  0.00     0.000 C
ATOM     70  O5  IDS B   4      64.932  55.725  76.7120  0.00  0.00     0.000 O
ATOM     71   O  IDS B   4      63.815  53.122  79.0030  0.00  0.00     0.000 O
ATOM     73  HD  IDS B   4      63.727  53.984  78.9940  0.00  0.00     0.000 HD
BRANCH 66 73
ATOM     73   O  IDS B   4      63.424  56.685  78.9880  0.00  0.00     0.000 O
ATOM     74   S  IDS B   4      62.089  57.438  79.5050  0.00  0.00     0.000 S
ATOM     75   O  IDS B   4      61.186  57.495  78.3760  0.00  0.00     0.000 OA
ATOM     76   O  IDS B   4      62.610  58.721  79.9060  0.00  0.00     0.000 OA
ATOM     77   O  IDS B   4      61.590  56.633  80.5950  0.00  0.00     0.000 OA
ENDBRANCH 66 73
BRANCH 69 78
ATOM     78   C  IDS B   4      67.078  54.530  76.5690  0.00  0.00     0.000 C
ATOM     79   O  IDS B   4      67.260  55.026  75.4580  0.00  0.00     0.000 OA
ATOM     80   O  IDS B   4      68.008  54.062  77.2520  0.00  0.00     0.000 OA
ENDBRANCH 69 78
BRANCH 65 81
ATOM     81  O4  SGN B   5      63.089  54.301  76.2910  0.00  0.00     0.000 O
BRANCH 81 85
ATOM     82  C1  SGN B   5      61.280  52.856  72.7870  0.00  0.00     0.000 C
ATOM     83  C2  SGN B   5      62.734  53.339  72.6730  0.00  0.00     0.000 C
ATOM     84  C3  SGN B   5      63.371  53.383  74.0690  0.00  0.00     0.000 C
ATOM     85  C4  SGN B   5      62.522  54.252  74.9800  0.00  0.00     0.000 C
ATOM     86  C5  SGN B   5      61.115  53.662  75.0310  0.00  0.00     0.000 C
ATOM     87  O5  SGN B   5      60.564  53.665  73.7000  0.00  0.00     0.000 O
ATOM     88   O  SGN B   5      64.688  53.881  73.9800  0.00  0.00     0.000 O
ATOM     90  HD  SGN B   5      64.471  53.047  74.0670  0.00  0.00     0.000 HD
BRANCH 83 92
ATOM     90   N  SGN B   5      62.487  53.509  71.2280  0.00  0.00     0.000 N
ATOM     92  HD  SGN B   5      62.164  54.294  71.0590  0.00  0.00     0.000 HD
ATOM     92   S  SGN B   5      63.611  53.006  70.2100  0.00  0.00     0.000 S
ATOM     93   O  SGN B   5      63.081  53.314  68.9160  0.00  0.00     0.000 OA
ATOM     94   O  SGN B   5      64.824  53.609  70.6450  0.00  0.00     0.000 OA
ATOM     95   O  SGN B   5      63.728  51.520  70.4690  0.00  0.00     0.000 OA
ENDBRANCH 83 92
BRANCH 86 96
ATOM     96   C  SGN B   5      60.153  54.425  75.9190  0.00  0.00     0.000 C
ATOM     97   O  SGN B   5      60.222  55.826  75.6460  0.00  0.00     0.000 O
ATOM     98   S  SGN B   5      58.824  56.563  75.3750  0.00  0.00     0.000 S
ATOM     99   O  SGN B   5      59.199  57.956  75.3410  0.00  0.00     0.000 OA
ATOM    100   O  SGN B   5      58.306  56.058  74.1540  0.00  0.00     0.000 OA
ATOM    101   O  SGN B   5      58.019  56.221  76.5030  0.00  0.00     0.000 OA
ENDBRANCH 86 96
BRANCH 82 102
ATOM    102  O4  IDS B   6      61.191  51.543  73.1440  0.00  0.00     0.000 O
BRANCH 102 106
ATOM    103  C1  IDS B   6      60.328  48.023  72.8010  0.00  0.00     0.000 C
ATOM    104  C2  IDS B   6      61.187  48.728  71.7400  0.00  0.00     0.000 C
ATOM    105  C3  IDS B   6      60.661  50.072  71.2760  0.00  0.00     0.000 C
ATOM    106  C4  IDS B   6      60.108  50.910  72.4160  0.00  0.00     0.000 C
ATOM    107  C5  IDS B   6      59.269  50.029  73.3460  0.00  0.00     0.000 C
ATOM    108  O5  IDS B   6      60.017  48.921  73.8490  0.00  0.00     0.000 O
ATOM    109   O  IDS B   6      59.666  49.841  70.2920  0.00  0.00     0.000 O
ATOM    111  HD  IDS B   6      59.396  49.035  70.4550  0.00  0.00     0.000 HD
BRANCH 104 111
ATOM    111   O  IDS B   6      62.516  49.006  72.3070  0.00  0.00     0.000 O
ATOM    112   S  IDS B   6      63.732  48.058  71.8740  0.00  0.00     0.000 S
ATOM    113   O  IDS B   6      63.314  46.722  72.2700  0.00  0.00     0.000 OA
ATOM    114   O  IDS B   6      63.963  48.227  70.4350  0.00  0.00     0.000 OA
ATOM    115   O  IDS B   6      64.773  48.619  72.7080  0.00  0.00     0.000 OA
ENDBRANCH 104 111
BRANCH 107 116
ATOM    116   C  IDS B   6      58.749  50.870  74.5040  0.00  0.00     0.000 C
ATOM    117   O  IDS B   6      57.934  51.717  74.2360  0.00  0.00     0.000 OA
ATOM    118   O  IDS B   6      59.149  50.698  75.6450  0.00  0.00     0.000 OA
ENDBRANCH 107 116
BRANCH 103 119
ATOM    119  O4  SGN B   7      59.352  47.419  72.0750  0.00  0.00     0.000 O
BRANCH 119 123
ATOM    120  C1  SGN B   7      57.146  43.874  72.3030  0.00  0.00     0.000 C
ATOM    121  C2  SGN B   7      56.799  44.995  73.3000  0.00  0.00     0.000 C
ATOM    122  C3  SGN B   7      57.393  46.331  72.8350  0.00  0.00     0.000 C
ATOM    123  C4  SGN B   7      58.884  46.170  72.5840  0.00  0.00     0.000 C
ATOM    124  C5  SGN B   7      59.125  45.027  71.5850  0.00  0.00     0.000 C
ATOM    125  O5  SGN B   7      58.550  43.790  72.0630  0.00  0.00     0.000 O
ATOM    126   O  SGN B   7      57.137  47.327  73.8320  0.00  0.00     0.000 O
ATOM    128  HD  SGN B   7      56.986  46.527  73.5350  0.00  0.00     0.000 HD
BRANCH 121 130
ATOM    128   N  SGN B   7      56.100  44.162  74.2810  0.00  0.00     0.000 N
ATOM    130  HD  SGN B   7      56.148  44.798  74.8670  0.00  0.00     0.000 HD
ATOM    130   S  SGN B   7      54.572  44.437  74.7100  0.00  0.00     0.000 S
ATOM    131   O  SGN B   7      53.856  44.548  73.4850  0.00  0.00     0.000 OA
ATOM    132   O  SGN B   7      54.197  43.467  75.6750  0.00  0.00     0.000 OA
ATOM    133   O  SGN B   7      54.744  45.762  75.5270  0.00  0.00     0.000 OA
ENDBRANCH 121 130
BRANCH 124 134
ATOM    134   C  SGN B   7      60.574  44.714  71.3590  0.00  0.00     0.000 C
ATOM    135   O  SGN B   7      60.736  43.285  71.3350  0.00  0.00     0.000 O
ATOM    136   S  SGN B   7      62.162  42.748  70.9560  0.00  0.00     0.000 S
ATOM    137   O  SGN B   7      62.108  41.313  71.0990  0.00  0.00     0.000 OA
ATOM    138   O  SGN B   7      63.064  43.375  71.8960  0.00  0.00     0.000 OA
ATOM    139   O  SGN B   7      62.313  43.201  69.5820  0.00  0.00     0.000 OA
ENDBRANCH 124 134
BRANCH 120 140
ATOM    140  O4  IDS B   8      56.710  43.725  71.0470  0.00  0.00     0.000 O
BRANCH 140 144
ATOM    141  C1  IDS B   8      55.786  44.640  67.6900  0.00  0.00     0.000 C
ATOM    142  C2  IDS B   8      55.484  45.585  68.8880  0.00  0.00     0.000 C
ATOM    143  C3  IDS B   8      54.812  44.863  70.0710  0.00  0.00     0.000 C
ATOM    144  C4  IDS B   8      55.467  43.515  70.3660  0.00  0.00     0.000 C
ATOM    145  C5  IDS B   8      55.705  42.744  69.0580  0.00  0.00     0.000 C
ATOM    146  O5  IDS B   8      56.497  43.495  68.1410  0.00  0.00     0.000 O
BRANCH 142 147
ATOM    147   O  IDS B   8      56.755  46.168  69.3930  0.00  0.00     0.000 O
ATOM    148   S  IDS B   8      57.221  47.659  68.9580  0.00  0.00     0.000 S
ATOM    149   O  IDS B   8      56.445  48.041  67.8000  0.00  0.00     0.000 OA
ATOM    150   O  IDS B   8      56.958  48.499  70.1120  0.00  0.00     0.000 OA
ATOM    151   O  IDS B   8      58.634  47.542  68.6490  0.00  0.00     0.000 OA
ENDBRANCH 142 147
BRANCH 145 152
ATOM    152   C  IDS B   8      56.444  41.439  69.2770  0.00  0.00     0.000 C
ATOM    153   O  IDS B   8      55.961  40.588  70.0140  0.00  0.00     0.000 OA
ATOM    154   O  IDS B   8      57.499  41.241  68.7010  0.00  0.00     0.000 OA
ENDBRANCH 145 152
ENDBRANCH 140 144
ENDBRANCH 120 140
ENDBRANCH 119 123
ENDBRANCH 103 119
ENDBRANCH 102 106
ENDBRANCH 82 102
ENDBRANCH 81 85
ENDBRANCH 65 81
ENDBRANCH 64 68
ENDBRANCH 41 64
ENDBRANCH 40 44
ENDBRANCH 24 40
ENDBRANCH 23 27
ENDBRANCH 1 23
TORSDOF 31
ENDMDL
MODEL 74
REMARK VINA RESULT:      -1.2     86.209     93.391
ROOT
ATOM      1  C1  SGN B   1      58.945  66.332  91.4130  0.00  0.00     0.000 C
ATOM      2  C2  SGN B   1      59.369  64.874  91.1690  0.00  0.00     0.000 C
ATOM      3  C3  SGN B   1      59.938  64.703  89.7560  0.00  0.00     0.000 C
ATOM      4  C4  SGN B   1      58.928  65.184  88.7200  0.00  0.00     0.000 C
ATOM      5  C5  SGN B   1      58.445  66.581  89.1040  0.00  0.00     0.000 C
ATOM      6  O5  SGN B   1      57.926  66.559  90.4480  0.00  0.00     0.000 O
ATOM      7   O  SGN B   1      60.288  63.345  89.5190  0.00  0.00     0.000 O
ATOM      9  HD  SGN B   1      59.437  63.284  89.6670  0.00  0.00     0.000 HD
ATOM      9   O  SGN B   1      59.540  65.213  87.4440  0.00  0.00     0.000 O
ATOM     11  HD  SGN B   1      58.689  65.152  87.5920  0.00  0.00     0.000 HD
ENDROOT
BRANCH 2 13
ATOM     11   N  SGN B   1      59.048  64.218  92.4510  0.00  0.00     0.000 N
ATOM     13  HD  SGN B   1      59.527  64.939  92.4340  0.00  0.00     0.000 HD
ATOM     13   S  SGN B   1      60.012  64.322  93.7350  0.00  0.00     0.000 S
ATOM     14   O  SGN B   1      61.119  65.147  93.4450  0.00  0.00     0.000 OA
ATOM     15   O  SGN B   1      59.210  64.604  94.8780  0.00  0.00     0.000 OA
ATOM     16   O  SGN B   1      60.429  62.822  93.8230  0.00  0.00     0.000 OA
ENDBRANCH 2 13
BRANCH 5 17
ATOM     17   C  SGN B   1      57.357  67.123  88.2110  0.00  0.00     0.000 C
ATOM     18   O  SGN B   1      56.402  66.094  87.8830  0.00  0.00     0.000 O
ATOM     19   S  SGN B   1      55.961  66.009  86.3480  0.00  0.00     0.000 S
ATOM     20   O  SGN B   1      54.850  65.082  86.3270  0.00  0.00     0.000 OA
ATOM     21   O  SGN B   1      55.591  67.365  86.0120  0.00  0.00     0.000 OA
ATOM     22   O  SGN B   1      57.131  65.528  85.6460  0.00  0.00     0.000 OA
ENDBRANCH 5 17
BRANCH 1 23
ATOM     23  O4  IDS B   2      59.448  67.513  91.8730  0.00  0.00     0.000 O
BRANCH 23 27
ATOM     24  C1  IDS B   2      61.483  69.643  88.9490  0.00  0.00     0.000 C
ATOM     25  C2  IDS B   2      62.354  68.718  89.8280  0.00  0.00     0.000 C
ATOM     26  C3  IDS B   2      61.485  67.773  90.6540  0.00  0.00     0.000 C
ATOM     27  C4  IDS B   2      60.440  68.491  91.4980  0.00  0.00     0.000 C
ATOM     28  C5  IDS B   2      59.881  69.702  90.7250  0.00  0.00     0.000 C
ATOM     29  O5  IDS B   2      60.104  69.562  89.3300  0.00  0.00     0.000 O
ATOM     30   O  IDS B   2      62.313  67.028  91.5380  0.00  0.00     0.000 O
ATOM     32  HD  IDS B   2      62.550  67.474  92.2420  0.00  0.00     0.000 HD
BRANCH 25 32
ATOM     32   O  IDS B   2      63.279  67.885  89.0210  0.00  0.00     0.000 O
ATOM     33   S  IDS B   2      64.918  68.007  89.1720  0.00  0.00     0.000 S
ATOM     34   O  IDS B   2      65.484  67.222  88.0860  0.00  0.00     0.000 OA
ATOM     35   O  IDS B   2      65.310  69.406  89.0770  0.00  0.00     0.000 OA
ATOM     36   O  IDS B   2      65.235  67.432  90.4580  0.00  0.00     0.000 OA
ENDBRANCH 25 32
BRANCH 28 37
ATOM     37   C  IDS B   2      58.400  70.075  90.9440  0.00  0.00     0.000 C
ATOM     38   O  IDS B   2      57.770  70.115  89.9140  0.00  0.00     0.000 OA
ATOM     39   O  IDS B   2      57.823  70.263  92.0440  0.00  0.00     0.000 OA
ENDBRANCH 28 37
BRANCH 24 40
ATOM     40  O4  SUS B   3      62.066  70.597  88.1940  0.00  0.00     0.000 O
BRANCH 40 44
ATOM     41  C1  SUS B   3      60.995  72.121  84.4420  0.00  0.00     0.000 C
ATOM     42  C2  SUS B   3      60.083  72.477  85.6340  0.00  0.00     0.000 C
ATOM     43  C3  SUS B   3      60.853  72.266  86.9360  0.00  0.00     0.000 C
ATOM     44  C4  SUS B   3      61.385  70.842  86.9680  0.00  0.00     0.000 C
ATOM     45  C5  SUS B   3      62.335  70.648  85.8040  0.00  0.00     0.000 C
ATOM     46  O5  SUS B   3      61.591  70.827  84.5820  0.00  0.00     0.000 O
BRANCH 42 49
ATOM     47   N  SUS B   3      59.571  73.815  85.2920  0.00  0.00     0.000 N
ATOM     49  HD  SUS B   3      59.778  74.458  85.8340  0.00  0.00     0.000 HD
ATOM     49   S  SUS B   3      57.983  73.833  85.0820  0.00  0.00     0.000 S
ATOM     50   O  SUS B   3      57.339  73.362  86.2440  0.00  0.00     0.000 OA
ATOM     51   O  SUS B   3      57.836  75.372  84.9610  0.00  0.00     0.000 OA
ATOM     52   O  SUS B   3      57.667  73.206  83.8600  0.00  0.00     0.000 OA
ENDBRANCH 42 49
BRANCH 43 53
ATOM     53   O  SUS B   3      59.917  72.478  88.0570  0.00  0.00     0.000 O
ATOM     54   S  SUS B   3      60.130  73.829  88.9680  0.00  0.00     0.000 S
ATOM     55   O  SUS B   3      59.733  74.970  88.1550  0.00  0.00     0.000 OA
ATOM     56   O  SUS B   3      59.282  73.610  90.1260  0.00  0.00     0.000 OA
ATOM     57   O  SUS B   3      61.557  73.885  89.2990  0.00  0.00     0.000 OA
ENDBRANCH 43 53
BRANCH 45 58
ATOM     58   C  SUS B   3      62.985  69.282  85.8250  0.00  0.00     0.000 C
ATOM     59   S  SUS B   3      62.592  66.833  85.1670  0.00  0.00     0.000 S
ATOM     60   O  SUS B   3      62.179  68.359  85.0730  0.00  0.00     0.000 O
ATOM     61   O  SUS B   3      62.087  66.381  86.4500  0.00  0.00     0.000 OA
ATOM     62   O  SUS B   3      61.856  66.288  84.0570  0.00  0.00     0.000 OA
ATOM     63   O  SUS B   3      64.005  66.812  85.0280  0.00  0.00     0.000 OA
ENDBRANCH 45 58
BRANCH 41 64
ATOM     64  O4  IDS B   4      61.881  73.116  84.1080  0.00  0.00     0.000 O
BRANCH 64 68
ATOM     65  C1  IDS B   4      63.817  75.407  82.0400  0.00  0.00     0.000 C
ATOM     66  C2  IDS B   4      62.289  75.363  81.9210  0.00  0.00     0.000 C
ATOM     67  C3  IDS B   4      61.706  73.963  81.8320  0.00  0.00     0.000 C
ATOM     68  C4  IDS B   4      62.390  72.979  82.7620  0.00  0.00     0.000 C
ATOM     69  C5  IDS B   4      63.905  73.196  82.6570  0.00  0.00     0.000 C
ATOM     70  O5  IDS B   4      64.220  74.527  83.0740  0.00  0.00     0.000 O
ATOM     71   O  IDS B   4      61.849  73.533  80.4930  0.00  0.00     0.000 O
ATOM     73  HD  IDS B   4      61.820  74.114  81.1350  0.00  0.00     0.000 HD
BRANCH 66 73
ATOM     73   O  IDS B   4      61.703  75.954  83.1310  0.00  0.00     0.000 O
ATOM     74   S  IDS B   4      60.626  77.147  82.9480  0.00  0.00     0.000 S
ATOM     75   O  IDS B   4      61.284  78.178  82.1730  0.00  0.00     0.000 OA
ATOM     76   O  IDS B   4      60.361  77.520  84.3140  0.00  0.00     0.000 OA
ATOM     77   O  IDS B   4      59.502  76.551  82.2660  0.00  0.00     0.000 OA
ENDBRANCH 66 73
BRANCH 69 78
ATOM     78   C  IDS B   4      64.743  72.140  83.3640  0.00  0.00     0.000 C
ATOM     79   O  IDS B   4      65.131  72.363  84.5100  0.00  0.00     0.000 OA
ATOM     80   O  IDS B   4      64.918  71.044  82.8010  0.00  0.00     0.000 OA
ENDBRANCH 69 78
BRANCH 65 81
ATOM     81  O4  SGN B   5      64.373  75.205  80.8130  0.00  0.00     0.000 O
BRANCH 81 85
ATOM     82  C1  SGN B   5      67.570  76.318  78.3270  0.00  0.00     0.000 C
ATOM     83  C2  SGN B   5      67.880  75.329  79.4610  0.00  0.00     0.000 C
ATOM     84  C3  SGN B   5      66.575  74.687  79.9520  0.00  0.00     0.000 C
ATOM     85  C4  SGN B   5      65.602  75.779  80.3610  0.00  0.00     0.000 C
ATOM     86  C5  SGN B   5      65.356  76.678  79.1520  0.00  0.00     0.000 C
ATOM     87  O5  SGN B   5      66.608  77.265  78.7500  0.00  0.00     0.000 O
ATOM     88   O  SGN B   5      66.844  73.820  81.0320  0.00  0.00     0.000 O
ATOM     90  HD  SGN B   5      66.698  73.574  80.2150  0.00  0.00     0.000 HD
BRANCH 83 92
ATOM     90   N  SGN B   5      69.211  75.529  78.8570  0.00  0.00     0.000 N
ATOM     92  HD  SGN B   5      69.394  76.371  78.7790  0.00  0.00     0.000 HD
ATOM     92   S  SGN B   5      70.417  74.619  79.3790  0.00  0.00     0.000 S
ATOM     93   O  SGN B   5      71.547  75.054  78.6140  0.00  0.00     0.000 OA
ATOM     94   O  SGN B   5      70.419  74.756  80.7950  0.00  0.00     0.000 OA
ATOM     95   O  SGN B   5      69.994  73.201  79.0630  0.00  0.00     0.000 OA
ENDBRANCH 83 92
BRANCH 86 96
ATOM     96   C  SGN B   5      64.388  77.814  79.4100  0.00  0.00     0.000 C
ATOM     97   O  SGN B   5      65.066  79.072  79.3690  0.00  0.00     0.000 O
ATOM     98   S  SGN B   5      64.414  80.196  78.4300  0.00  0.00     0.000 S
ATOM     99   O  SGN B   5      65.186  81.371  78.7560  0.00  0.00     0.000 OA
ATOM    100   O  SGN B   5      64.543  79.757  77.0870  0.00  0.00     0.000 OA
ATOM    101   O  SGN B   5      63.056  80.274  78.8600  0.00  0.00     0.000 OA
ENDBRANCH 86 96
BRANCH 82 102
ATOM    102  O4  IDS B   6      67.154  75.696  77.1880  0.00  0.00     0.000 O
BRANCH 102 106
ATOM    103  C1  IDS B   6      67.621  75.429  73.5860  0.00  0.00     0.000 C
ATOM    104  C2  IDS B   6      68.730  76.003  74.4820  0.00  0.00     0.000 C
ATOM    105  C3  IDS B   6      68.270  77.039  75.4900  0.00  0.00     0.000 C
ATOM    106  C4  IDS B   6      66.946  76.677  76.1400  0.00  0.00     0.000 C
ATOM    107  C5  IDS B   6      65.977  76.146  75.0800  0.00  0.00     0.000 C
ATOM    108  O5  IDS B   6      66.519  75.026  74.3770  0.00  0.00     0.000 O
ATOM    109   O  IDS B   6      68.181  78.290  74.8280  0.00  0.00     0.000 O
ATOM    111  HD  IDS B   6      68.087  78.078  73.9940  0.00  0.00     0.000 HD
BRANCH 104 111
ATOM    111   O  IDS B   6      69.311  74.914  75.2820  0.00  0.00     0.000 O
ATOM    112   S  IDS B   6      70.832  74.502  74.9990  0.00  0.00     0.000 S
ATOM    113   O  IDS B   6      70.854  74.126  73.5940  0.00  0.00     0.000 OA
ATOM    114   O  IDS B   6      71.693  75.639  75.3430  0.00  0.00     0.000 OA
ATOM    115   O  IDS B   6      70.944  73.382  75.9080  0.00  0.00     0.000 OA
ENDBRANCH 104 111
BRANCH 107 116
ATOM    116   C  IDS B   6      64.666  75.752  75.7480  0.00  0.00     0.000 C
ATOM    117   O  IDS B   6      63.902  76.646  76.0110  0.00  0.00     0.000 OA
ATOM    118   O  IDS B   6      64.411  74.587  76.0100  0.00  0.00     0.000 OA
ENDBRANCH 107 116
BRANCH 103 119
ATOM    119  O4  SGN B   7      67.485  76.360  72.6070  0.00  0.00     0.000 O
BRANCH 119 123
ATOM    120  C1  SGN B   7      66.683  76.349  68.5030  0.00  0.00     0.000 C
ATOM    121  C2  SGN B   7      65.491  76.172  69.4630  0.00  0.00     0.000 C
ATOM    122  C3  SGN B   7      65.879  76.596  70.8850  0.00  0.00     0.000 C
ATOM    123  C4  SGN B   7      67.134  75.856  71.3180  0.00  0.00     0.000 C
ATOM    124  C5  SGN B   7      68.257  76.090  70.2950  0.00  0.00     0.000 C
ATOM    125  O5  SGN B   7      67.850  75.675  68.9720  0.00  0.00     0.000 O
ATOM    126   O  SGN B   7      64.783  76.326  71.7670  0.00  0.00     0.000 O
ATOM    128  HD  SGN B   7      65.078  76.379  70.9540  0.00  0.00     0.000 HD
BRANCH 121 130
ATOM    128   N  SGN B   7      64.587  75.626  68.4470  0.00  0.00     0.000 N
ATOM    130  HD  SGN B   7      64.082  75.292  69.0660  0.00  0.00     0.000 HD
ATOM    130   S  SGN B   7      63.131  76.253  68.1670  0.00  0.00     0.000 S
ATOM    131   O  SGN B   7      63.353  77.649  68.0010  0.00  0.00     0.000 OA
ATOM    132   O  SGN B   7      62.511  75.498  67.1380  0.00  0.00     0.000 OA
ATOM    133   O  SGN B   7      62.385  75.827  69.4760  0.00  0.00     0.000 OA
ENDBRANCH 121 130
BRANCH 124 134
ATOM    134   C  SGN B   7      69.505  75.305  70.5750  0.00  0.00     0.000 C
ATOM    135   O  SGN B   7      70.419  75.492  69.4800  0.00  0.00     0.000 O
ATOM    136   S  SGN B   7      71.852  74.873  69.6510  0.00  0.00     0.000 S
ATOM    137   O  SGN B   7      72.542  75.095  68.4030  0.00  0.00     0.000 OA
ATOM    138   O  SGN B   7      71.629  73.473  69.9330  0.00  0.00     0.000 OA
ATOM    139   O  SGN B   7      72.390  75.634  70.7680  0.00  0.00     0.000 OA
ENDBRANCH 124 134
BRANCH 120 140
ATOM    140  O4  IDS B   8      67.250  77.490  68.0960  0.00  0.00     0.000 O
BRANCH 140 144
ATOM    141  C1  IDS B   8      68.578  80.829  68.3160  0.00  0.00     0.000 C
ATOM    142  C2  IDS B   8      67.321  80.413  69.1340  0.00  0.00     0.000 C
ATOM    143  C3  IDS B   8      66.261  79.689  68.2830  0.00  0.00     0.000 C
ATOM    144  C4  IDS B   8      66.885  78.655  67.3470  0.00  0.00     0.000 C
ATOM    145  C5  IDS B   8      68.122  79.247  66.6540  0.00  0.00     0.000 C
ATOM    146  O5  IDS B   8      69.084  79.710  67.5990  0.00  0.00     0.000 O
BRANCH 142 147
ATOM    147   O  IDS B   8      67.723  79.481  70.2210  0.00  0.00     0.000 O
ATOM    148   S  IDS B   8      67.958  80.015  71.7340  0.00  0.00     0.000 S
ATOM    149   O  IDS B   8      68.092  81.453  71.6760  0.00  0.00     0.000 OA
ATOM    150   O  IDS B   8      66.789  79.589  72.4800  0.00  0.00     0.000 OA
ATOM    151   O  IDS B   8      69.181  79.375  72.1790  0.00  0.00     0.000 OA
ENDBRANCH 142 147
BRANCH 145 152
ATOM    152   C  IDS B   8      68.844  78.235  65.7870  0.00  0.00     0.000 C
ATOM    153   O  IDS B   8      68.248  77.702  64.8570  0.00  0.00     0.000 OA
ATOM    154   O  IDS B   8      70.013  77.978  66.0080  0.00  0.00     0.000 OA
ENDBRANCH 145 152
ENDBRANCH 140 144
ENDBRANCH 120 140
ENDBRANCH 119 123
ENDBRANCH 103 119
ENDBRANCH 102 106
ENDBRANCH 82 102
ENDBRANCH 81 85
ENDBRANCH 65 81
ENDBRANCH 64 68
ENDBRANCH 41 64
ENDBRANCH 40 44
ENDBRANCH 24 40
ENDBRANCH 23 27
ENDBRANCH 1 23
TORSDOF 31
ENDMDL
MODEL 75
REMARK VINA RESULT:      -1.2     65.467     74.965
ROOT
ATOM      1  C1  SGN B   1      35.885  47.354  76.3220  0.00  0.00     0.000 C
ATOM      2  C2  SGN B   1      35.828  46.437  77.5550  0.00  0.00     0.000 C
ATOM      3  C3  SGN B   1      35.880  47.260  78.8470  0.00  0.00     0.000 C
ATOM      4  C4  SGN B   1      37.119  48.150  78.8540  0.00  0.00     0.000 C
ATOM      5  C5  SGN B   1      37.185  48.925  77.5400  0.00  0.00     0.000 C
ATOM      6  O5  SGN B   1      37.145  48.002  76.4340  0.00  0.00     0.000 O
ATOM      7   O  SGN B   1      35.872  46.406  79.9850  0.00  0.00     0.000 O
ATOM      9  HD  SGN B   1      36.599  46.159  79.5840  0.00  0.00     0.000 HD
ATOM      9   O  SGN B   1      37.049  49.046  79.9470  0.00  0.00     0.000 O
ATOM     11  HD  SGN B   1      37.775  48.799  79.5470  0.00  0.00     0.000 HD
ENDROOT
BRANCH 2 13
ATOM     11   N  SGN B   1      35.726  45.078  76.9900  0.00  0.00     0.000 N
ATOM     13  HD  SGN B   1      35.201  45.709  76.7150  0.00  0.00     0.000 HD
ATOM     13   S  SGN B   1      34.347  44.491  76.4060  0.00  0.00     0.000 S
ATOM     14   O  SGN B   1      33.333  45.470  76.4780  0.00  0.00     0.000 OA
ATOM     15   O  SGN B   1      34.620  43.857  75.1600  0.00  0.00     0.000 OA
ATOM     16   O  SGN B   1      34.121  43.362  77.4580  0.00  0.00     0.000 OA
ENDBRANCH 2 13
BRANCH 5 17
ATOM     17   C  SGN B   1      38.431  49.761  77.3820  0.00  0.00     0.000 C
ATOM     18   O  SGN B   1      39.591  49.052  77.8610  0.00  0.00     0.000 O
ATOM     19   S  SGN B   1      40.595  49.889  78.7820  0.00  0.00     0.000 S
ATOM     20   O  SGN B   1      41.763  49.047  78.9270  0.00  0.00     0.000 OA
ATOM     21   O  SGN B   1      40.842  51.096  78.0280  0.00  0.00     0.000 OA
ATOM     22   O  SGN B   1      39.879  50.106  80.0200  0.00  0.00     0.000 OA
ENDBRANCH 5 17
BRANCH 1 23
ATOM     23  O4  IDS B   2      35.060  48.041  75.4810  0.00  0.00     0.000 O
BRANCH 23 27
ATOM     24  C1  IDS B   2      34.010  51.778  76.9510  0.00  0.00     0.000 C
ATOM     25  C2  IDS B   2      33.027  50.632  77.2770  0.00  0.00     0.000 C
ATOM     26  C3  IDS B   2      33.645  49.274  76.9570  0.00  0.00     0.000 C
ATOM     27  C4  IDS B   2      34.149  49.159  75.5250  0.00  0.00     0.000 C
ATOM     28  C5  IDS B   2      34.763  50.499  75.0730  0.00  0.00     0.000 C
ATOM     29  O5  IDS B   2      35.126  51.294  76.1920  0.00  0.00     0.000 O
ATOM     30   O  IDS B   2      32.669  48.257  77.1520  0.00  0.00     0.000 O
ATOM     32  HD  IDS B   2      32.109  48.191  76.4950  0.00  0.00     0.000 HD
BRANCH 25 32
ATOM     32   O  IDS B   2      32.635  50.620  78.7080  0.00  0.00     0.000 O
ATOM     33   S  IDS B   2      31.071  50.840  79.1860  0.00  0.00     0.000 S
ATOM     34   O  IDS B   2      31.106  50.990  80.6320  0.00  0.00     0.000 OA
ATOM     35   O  IDS B   2      30.530  52.028  78.5400  0.00  0.00     0.000 OA
ATOM     36   O  IDS B   2      30.372  49.637  78.7980  0.00  0.00     0.000 OA
ENDBRANCH 25 32
BRANCH 28 37
ATOM     37   C  IDS B   2      35.961  50.453  74.1020  0.00  0.00     0.000 C
ATOM     38   O  IDS B   2      36.931  51.034  74.5280  0.00  0.00     0.000 OA
ATOM     39   O  IDS B   2      36.022  49.842  73.0070  0.00  0.00     0.000 OA
ENDBRANCH 28 37
BRANCH 24 40
ATOM     40  O4  SUS B   3      33.622  53.061  77.1020  0.00  0.00     0.000 O
BRANCH 40 44
ATOM     41  C1  SUS B   3      35.807  56.438  78.2720  0.00  0.00     0.000 C
ATOM     42  C2  SUS B   3      36.123  55.838  76.8870  0.00  0.00     0.000 C
ATOM     43  C3  SUS B   3      34.954  54.965  76.4380  0.00  0.00     0.000 C
ATOM     44  C4  SUS B   3      34.675  53.926  77.5130  0.00  0.00     0.000 C
ATOM     45  C5  SUS B   3      34.289  54.636  78.7940  0.00  0.00     0.000 C
ATOM     46  O5  SUS B   3      35.409  55.440  79.2180  0.00  0.00     0.000 O
BRANCH 42 49
ATOM     47   N  SUS B   3      37.500  56.353  76.9840  0.00  0.00     0.000 N
ATOM     49  HD  SUS B   3      37.651  56.942  77.6000  0.00  0.00     0.000 HD
ATOM     49   S  SUS B   3      38.039  56.939  75.5930  0.00  0.00     0.000 S
ATOM     50   O  SUS B   3      37.182  57.961  75.1390  0.00  0.00     0.000 OA
ATOM     51   O  SUS B   3      39.357  57.537  76.1500  0.00  0.00     0.000 OA
ATOM     52   O  SUS B   3      38.310  55.874  74.7120  0.00  0.00     0.000 OA
ENDBRANCH 42 49
BRANCH 43 53
ATOM     53   O  SUS B   3      35.343  54.296  75.1820  0.00  0.00     0.000 O
ATOM     54   S  SUS B   3      34.511  54.707  73.8250  0.00  0.00     0.000 S
ATOM     55   O  SUS B   3      34.907  56.060  73.4630  0.00  0.00     0.000 OA
ATOM     56   O  SUS B   3      34.904  53.702  72.8530  0.00  0.00     0.000 OA
ATOM     57   O  SUS B   3      33.089  54.646  74.1760  0.00  0.00     0.000 OA
ENDBRANCH 43 53
BRANCH 45 58
ATOM     58   C  SUS B   3      33.898  53.665  79.8850  0.00  0.00     0.000 C
ATOM     59   S  SUS B   3      34.884  52.164  81.7190  0.00  0.00     0.000 S
ATOM     60   O  SUS B   3      35.059  53.334  80.6660  0.00  0.00     0.000 O
ATOM     61   O  SUS B   3      34.939  50.941  80.9400  0.00  0.00     0.000 OA
ATOM     62   O  SUS B   3      36.055  52.358  82.5320  0.00  0.00     0.000 OA
ATOM     63   O  SUS B   3      33.646  52.417  82.3660  0.00  0.00     0.000 OA
ENDBRANCH 45 58
BRANCH 41 64
ATOM     64  O4  IDS B   4      34.976  57.531  78.2250  0.00  0.00     0.000 O
BRANCH 64 68
ATOM     65  C1  IDS B   4      33.821  60.952  78.7100  0.00  0.00     0.000 C
ATOM     66  C2  IDS B   4      35.166  60.681  78.0250  0.00  0.00     0.000 C
ATOM     67  C3  IDS B   4      36.039  59.661  78.7360  0.00  0.00     0.000 C
ATOM     68  C4  IDS B   4      35.249  58.483  79.2760  0.00  0.00     0.000 C
ATOM     69  C5  IDS B   4      33.983  59.027  79.9520  0.00  0.00     0.000 C
ATOM     70  O5  IDS B   4      33.190  59.714  78.9810  0.00  0.00     0.000 O
ATOM     71   O  IDS B   4      36.685  60.331  79.7990  0.00  0.00     0.000 O
ATOM     73  HD  IDS B   4      36.250  60.274  79.0530  0.00  0.00     0.000 HD
BRANCH 66 73
ATOM     73   O  IDS B   4      34.913  60.117  76.6920  0.00  0.00     0.000 O
ATOM     74   S  IDS B   4      35.234  61.042  75.4040  0.00  0.00     0.000 S
ATOM     75   O  IDS B   4      34.467  62.258  75.5710  0.00  0.00     0.000 OA
ATOM     76   O  IDS B   4      34.781  60.207  74.3200  0.00  0.00     0.000 OA
ATOM     77   O  IDS B   4      36.661  61.258  75.4310  0.00  0.00     0.000 OA
ENDBRANCH 66 73
BRANCH 69 78
ATOM     78   C  IDS B   4      33.193  57.989  80.7360  0.00  0.00     0.000 C
ATOM     79   O  IDS B   4      33.809  57.124  81.3590  0.00  0.00     0.000 OA
ATOM     80   O  IDS B   4      31.957  58.111  80.8100  0.00  0.00     0.000 OA
ENDBRANCH 69 78
BRANCH 65 81
ATOM     81  O4  SGN B   5      34.012  61.788  79.7690  0.00  0.00     0.000 O
BRANCH 81 85
ATOM     82  C1  SGN B   5      32.296  64.942  81.9480  0.00  0.00     0.000 C
ATOM     83  C2  SGN B   5      31.610  63.571  82.0460  0.00  0.00     0.000 C
ATOM     84  C3  SGN B   5      32.587  62.474  81.6000  0.00  0.00     0.000 C
ATOM     85  C4  SGN B   5      33.091  62.791  80.2030  0.00  0.00     0.000 C
ATOM     86  C5  SGN B   5      33.770  64.158  80.2360  0.00  0.00     0.000 C
ATOM     87  O5  SGN B   5      32.802  65.144  80.6420  0.00  0.00     0.000 O
ATOM     88   O  SGN B   5      31.946  61.218  81.6340  0.00  0.00     0.000 O
ATOM     90  HD  SGN B   5      32.498  61.516  82.2300  0.00  0.00     0.000 HD
BRANCH 83 92
ATOM     90   N  SGN B   5      30.795  64.394  82.9610  0.00  0.00     0.000 N
ATOM     92  HD  SGN B   5      30.639  65.175  82.6210  0.00  0.00     0.000 HD
ATOM     92   S  SGN B   5      29.544  63.706  83.6780  0.00  0.00     0.000 S
ATOM     93   O  SGN B   5      28.973  64.750  84.4750  0.00  0.00     0.000 OA
ATOM     94   O  SGN B   5      28.782  63.108  82.6350  0.00  0.00     0.000 OA
ATOM     95   O  SGN B   5      30.141  62.585  84.5010  0.00  0.00     0.000 OA
ENDBRANCH 83 92
BRANCH 86 96
ATOM     96   C  SGN B   5      34.336  64.602  78.9040  0.00  0.00     0.000 C
ATOM     97   O  SGN B   5      33.377  64.409  77.8610  0.00  0.00     0.000 O
ATOM     98   S  SGN B   5      33.099  65.674  76.9150  0.00  0.00     0.000 S
ATOM     99   O  SGN B   5      32.271  65.116  75.8730  0.00  0.00     0.000 OA
ATOM    100   O  SGN B   5      32.466  66.667  77.7060  0.00  0.00     0.000 OA
ATOM    101   O  SGN B   5      34.393  66.067  76.4590  0.00  0.00     0.000 OA
ENDBRANCH 86 96
BRANCH 82 102
ATOM    102  O4  IDS B   6      33.287  65.100  82.8700  0.00  0.00     0.000 O
BRANCH 102 106
ATOM    103  C1  IDS B   6      34.606  67.121  85.5960  0.00  0.00     0.000 C
ATOM    104  C2  IDS B   6      33.112  67.164  85.2380  0.00  0.00     0.000 C
ATOM    105  C3  IDS B   6      32.810  67.316  83.7590  0.00  0.00     0.000 C
ATOM    106  C4  IDS B   6      33.728  66.481  82.8840  0.00  0.00     0.000 C
ATOM    107  C5  IDS B   6      35.168  66.588  83.3950  0.00  0.00     0.000 C
ATOM    108  O5  IDS B   6      35.278  66.195  84.7640  0.00  0.00     0.000 O
ATOM    109   O  IDS B   6      32.911  68.691  83.4270  0.00  0.00     0.000 O
ATOM    111  HD  IDS B   6      33.425  69.017  84.0440  0.00  0.00     0.000 HD
BRANCH 104 111
ATOM    111   O  IDS B   6      32.488  65.892  85.6330  0.00  0.00     0.000 O
ATOM    112   S  IDS B   6      31.529  65.890  86.9140  0.00  0.00     0.000 S
ATOM    113   O  IDS B   6      32.370  66.366  88.0020  0.00  0.00     0.000 OA
ATOM    114   O  IDS B   6      30.365  66.735  86.6250  0.00  0.00     0.000 OA
ATOM    115   O  IDS B   6      31.229  64.476  86.9800  0.00  0.00     0.000 OA
ENDBRANCH 104 111
BRANCH 107 116
ATOM    116   C  IDS B   6      36.075  65.718  82.5340  0.00  0.00     0.000 C
ATOM    117   O  IDS B   6      36.353  66.142  81.4400  0.00  0.00     0.000 OA
ATOM    118   O  IDS B   6      36.489  64.641  82.9330  0.00  0.00     0.000 OA
ENDBRANCH 107 116
BRANCH 103 119
ATOM    119  O4  SGN B   7      34.965  68.430  85.6310  0.00  0.00     0.000 O
BRANCH 119 123
ATOM    120  C1  SGN B   7      37.558  70.810  87.8900  0.00  0.00     0.000 C
ATOM    121  C2  SGN B   7      38.184  69.863  86.8480  0.00  0.00     0.000 C
ATOM    122  C3  SGN B   7      37.121  69.380  85.8530  0.00  0.00     0.000 C
ATOM    123  C4  SGN B   7      35.948  68.776  86.6070  0.00  0.00     0.000 C
ATOM    124  C5  SGN B   7      35.401  69.793  87.6230  0.00  0.00     0.000 C
ATOM    125  O5  SGN B   7      36.434  70.218  88.5400  0.00  0.00     0.000 O
ATOM    126   O  SGN B   7      37.715  68.429  84.9620  0.00  0.00     0.000 O
ATOM    128  HD  SGN B   7      37.824  69.025  85.5810  0.00  0.00     0.000 HD
BRANCH 121 130
ATOM    128   N  SGN B   7      39.539  69.842  87.4060  0.00  0.00     0.000 N
ATOM    130  HD  SGN B   7      39.734  69.150  86.9230  0.00  0.00     0.000 HD
ATOM    130   S  SGN B   7      40.827  70.294  86.5530  0.00  0.00     0.000 S
ATOM    131   O  SGN B   7      40.485  71.564  86.0090  0.00  0.00     0.000 OA
ATOM    132   O  SGN B   7      41.977  70.150  87.3710  0.00  0.00     0.000 OA
ATOM    133   O  SGN B   7      40.917  69.110  85.5310  0.00  0.00     0.000 OA
ENDBRANCH 121 130
BRANCH 124 134
ATOM    134   C  SGN B   7      34.312  69.248  88.5000  0.00  0.00     0.000 C
ATOM    135   O  SGN B   7      34.509  69.743  89.8350  0.00  0.00     0.000 O
ATOM    136   S  SGN B   7      33.383  69.410  90.8780  0.00  0.00     0.000 S
ATOM    137   O  SGN B   7      33.846  69.911  92.1500  0.00  0.00     0.000 OA
ATOM    138   O  SGN B   7      33.255  67.971  90.8510  0.00  0.00     0.000 OA
ATOM    139   O  SGN B   7      32.237  70.127  90.3410  0.00  0.00     0.000 OA
ENDBRANCH 124 134
BRANCH 120 140
ATOM    140  O4  IDS B   8      37.065  72.037  87.6950  0.00  0.00     0.000 O
BRANCH 140 144
ATOM    141  C1  IDS B   8      35.243  74.707  86.1100  0.00  0.00     0.000 C
ATOM    142  C2  IDS B   8      36.010  73.651  85.2650  0.00  0.00     0.000 C
ATOM    143  C3  IDS B   8      37.453  73.422  85.7500  0.00  0.00     0.000 C
ATOM    144  C4  IDS B   8      37.536  73.323  87.2730  0.00  0.00     0.000 C
ATOM    145  C5  IDS B   8      36.696  74.433  87.9220  0.00  0.00     0.000 C
ATOM    146  O5  IDS B   8      35.338  74.386  87.4920  0.00  0.00     0.000 O
BRANCH 142 147
ATOM    147   O  IDS B   8      35.306  72.344  85.3460  0.00  0.00     0.000 O
ATOM    148   S  IDS B   8      34.305  71.858  84.1660  0.00  0.00     0.000 S
ATOM    149   O  IDS B   8      33.979  73.016  83.3640  0.00  0.00     0.000 OA
ATOM    150   O  IDS B   8      35.042  70.851  83.4250  0.00  0.00     0.000 OA
ATOM    151   O  IDS B   8      33.141  71.326  84.8470  0.00  0.00     0.000 OA
ENDBRANCH 142 147
BRANCH 145 152
ATOM    152   C  IDS B   8      36.659  74.327  89.4340  0.00  0.00     0.000 C
ATOM    153   O  IDS B   8      37.707  74.368  90.0680  0.00  0.00     0.000 OA
ATOM    154   O  IDS B   8      35.587  74.224  90.0030  0.00  0.00     0.000 OA
ENDBRANCH 145 152
ENDBRANCH 140 144
ENDBRANCH 120 140
ENDBRANCH 119 123
ENDBRANCH 103 119
ENDBRANCH 102 106
ENDBRANCH 82 102
ENDBRANCH 81 85
ENDBRANCH 65 81
ENDBRANCH 64 68
ENDBRANCH 41 64
ENDBRANCH 40 44
ENDBRANCH 24 40
ENDBRANCH 23 27
ENDBRANCH 1 23
TORSDOF 31
ENDMDL
MODEL 76
REMARK VINA RESULT:      -1.2     67.604     73.635
ROOT
ATOM      1  C1  SGN B   1      70.684  57.374  45.8680  0.00  0.00     0.000 C
ATOM      2  C2  SGN B   1      72.038  57.351  46.5950  0.00  0.00     0.000 C
ATOM      3  C3  SGN B   1      73.109  58.072  45.7690  0.00  0.00     0.000 C
ATOM      4  C4  SGN B   1      73.200  57.458  44.3760  0.00  0.00     0.000 C
ATOM      5  C5  SGN B   1      71.799  57.383  43.7720  0.00  0.00     0.000 C
ATOM      6  O5  SGN B   1      70.928  56.661  44.6630  0.00  0.00     0.000 O
ATOM      7   O  SGN B   1      74.371  58.010  46.4240  0.00  0.00     0.000 O
ATOM      9  HD  SGN B   1      74.198  57.171  46.2960  0.00  0.00     0.000 HD
ATOM      9   O  SGN B   1      74.040  58.258  43.5630  0.00  0.00     0.000 O
ATOM     11  HD  SGN B   1      73.867  57.419  43.4350  0.00  0.00     0.000 HD
ENDROOT
BRANCH 2 13
ATOM     11   N  SGN B   1      71.761  56.633  47.8540  0.00  0.00     0.000 N
ATOM     13  HD  SGN B   1      71.253  57.286  47.5990  0.00  0.00     0.000 HD
ATOM     13   S  SGN B   1      71.027  57.336  49.1010  0.00  0.00     0.000 S
ATOM     14   O  SGN B   1      70.671  58.661  48.7710  0.00  0.00     0.000 OA
ATOM     15   O  SGN B   1      70.031  56.447  49.5960  0.00  0.00     0.000 OA
ATOM     16   O  SGN B   1      72.217  57.302  50.1090  0.00  0.00     0.000 OA
ENDBRANCH 2 13
BRANCH 5 17
ATOM     17   C  SGN B   1      71.745  56.692  42.4320  0.00  0.00     0.000 C
ATOM     18   O  SGN B   1      72.601  55.532  42.4160  0.00  0.00     0.000 O
ATOM     19   S  SGN B   1      73.523  55.358  41.1210  0.00  0.00     0.000 S
ATOM     20   O  SGN B   1      74.091  54.032  41.2390  0.00  0.00     0.000 OA
ATOM     21   O  SGN B   1      72.605  55.498  40.0140  0.00  0.00     0.000 OA
ATOM     22   O  SGN B   1      74.502  56.419  41.2100  0.00  0.00     0.000 OA
ENDBRANCH 5 17
BRANCH 1 23
ATOM     23  O4  IDS B   2      69.559  58.137  45.7590  0.00  0.00     0.000 O
BRANCH 23 27
ATOM     24  C1  IDS B   2      69.952  61.196  42.9810  0.00  0.00     0.000 C
ATOM     25  C2  IDS B   2      70.290  61.573  44.4400  0.00  0.00     0.000 C
ATOM     26  C3  IDS B   2      70.402  60.326  45.3140  0.00  0.00     0.000 C
ATOM     27  C4  IDS B   2      69.169  59.433  45.2600  0.00  0.00     0.000 C
ATOM     28  C5  IDS B   2      68.592  59.419  43.8300  0.00  0.00     0.000 C
ATOM     29  O5  IDS B   2      69.572  59.817  42.8830  0.00  0.00     0.000 O
ATOM     30   O  IDS B   2      70.588  60.719  46.6690  0.00  0.00     0.000 O
ATOM     32  HD  IDS B   2      69.854  60.962  47.0580  0.00  0.00     0.000 HD
BRANCH 25 32
ATOM     32   O  IDS B   2      71.572  62.312  44.5470  0.00  0.00     0.000 O
ATOM     33   S  IDS B   2      71.641  63.858  45.1190  0.00  0.00     0.000 S
ATOM     34   O  IDS B   2      72.996  64.322  44.8680  0.00  0.00     0.000 OA
ATOM     35   O  IDS B   2      70.661  64.677  44.4210  0.00  0.00     0.000 OA
ATOM     36   O  IDS B   2      71.371  63.762  46.5350  0.00  0.00     0.000 OA
ENDBRANCH 25 32
BRANCH 28 37
ATOM     37   C  IDS B   2      67.936  58.115  43.3310  0.00  0.00     0.000 C
ATOM     38   O  IDS B   2      68.432  57.704  42.3080  0.00  0.00     0.000 OA
ATOM     39   O  IDS B   2      67.032  57.457  43.9030  0.00  0.00     0.000 OA
ENDBRANCH 28 37
BRANCH 24 40
ATOM     40  O4  SUS B   3      69.745  62.166  42.0660  0.00  0.00     0.000 O
BRANCH 40 44
ATOM     41  C1  SUS B   3      70.629  62.272  37.9730  0.00  0.00     0.000 C
ATOM     42  C2  SUS B   3      69.503  61.322  38.4270  0.00  0.00     0.000 C
ATOM     43  C3  SUS B   3      69.003  61.755  39.8030  0.00  0.00     0.000 C
ATOM     44  C4  SUS B   3      70.184  61.813  40.7590  0.00  0.00     0.000 C
ATOM     45  C5  SUS B   3      71.173  62.844  40.2540  0.00  0.00     0.000 C
ATOM     46  O5  SUS B   3      71.653  62.412  38.9640  0.00  0.00     0.000 O
BRANCH 42 49
ATOM     47   N  SUS B   3      69.786  60.444  37.2780  0.00  0.00     0.000 N
ATOM     49  HD  SUS B   3      70.284  60.775  36.6520  0.00  0.00     0.000 HD
ATOM     49   S  SUS B   3      68.455  59.863  36.6020  0.00  0.00     0.000 S
ATOM     50   O  SUS B   3      67.622  60.925  36.1930  0.00  0.00     0.000 OA
ATOM     51   O  SUS B   3      69.147  59.209  35.3780  0.00  0.00     0.000 OA
ATOM     52   O  SUS B   3      67.895  58.880  37.4410  0.00  0.00     0.000 OA
ENDBRANCH 42 49
BRANCH 43 53
ATOM     53   O  SUS B   3      68.029  60.749  40.2710  0.00  0.00     0.000 O
ATOM     54   S  SUS B   3      66.469  61.239  40.4390  0.00  0.00     0.000 S
ATOM     55   O  SUS B   3      65.927  61.438  39.1020  0.00  0.00     0.000 OA
ATOM     56   O  SUS B   3      65.837  60.156  41.1710  0.00  0.00     0.000 OA
ATOM     57   O  SUS B   3      66.507  62.498  41.1890  0.00  0.00     0.000 OA
ENDBRANCH 43 53
BRANCH 45 58
ATOM     58   C  SUS B   3      72.333  63.032  41.2070  0.00  0.00     0.000 C
ATOM     59   S  SUS B   3      74.608  62.043  41.8620  0.00  0.00     0.000 S
ATOM     60   O  SUS B   3      73.398  62.138  40.8440  0.00  0.00     0.000 O
ATOM     61   O  SUS B   3      74.132  61.196  42.9390  0.00  0.00     0.000 OA
ATOM     62   O  SUS B   3      75.597  61.396  41.0410  0.00  0.00     0.000 OA
ATOM     63   O  SUS B   3      74.904  63.383  42.2270  0.00  0.00     0.000 OA
ENDBRANCH 45 58
BRANCH 41 64
ATOM     64  O4  IDS B   4      70.176  63.463  37.4620  0.00  0.00     0.000 O
BRANCH 64 68
ATOM     65  C1  IDS B   4      69.674  66.173  35.0790  0.00  0.00     0.000 C
ATOM     66  C2  IDS B   4      69.369  64.725  34.6770  0.00  0.00     0.000 C
ATOM     67  C3  IDS B   4      70.450  63.727  35.0570  0.00  0.00     0.000 C
ATOM     68  C4  IDS B   4      71.039  63.990  36.4290  0.00  0.00     0.000 C
ATOM     69  C5  IDS B   4      71.295  65.497  36.5580  0.00  0.00     0.000 C
ATOM     70  O5  IDS B   4      70.054  66.197  36.4430  0.00  0.00     0.000 O
ATOM     71   O  IDS B   4      71.464  63.814  34.0770  0.00  0.00     0.000 O
ATOM     73  HD  IDS B   4      70.669  63.931  34.4000  0.00  0.00     0.000 HD
BRANCH 66 73
ATOM     73   O  IDS B   4      68.160  64.281  35.3850  0.00  0.00     0.000 O
ATOM     74   S  IDS B   4      66.809  64.071  34.5210  0.00  0.00     0.000 S
ATOM     75   O  IDS B   4      66.548  65.330  33.8560  0.00  0.00     0.000 OA
ATOM     76   O  IDS B   4      65.851  63.739  35.5460  0.00  0.00     0.000 OA
ATOM     77   O  IDS B   4      67.099  62.992  33.6080  0.00  0.00     0.000 OA
ENDBRANCH 66 73
BRANCH 69 78
ATOM     78   C  IDS B   4      72.088  65.898  37.7950  0.00  0.00     0.000 C
ATOM     79   O  IDS B   4      72.996  65.161  38.1790  0.00  0.00     0.000 OA
ATOM     80   O  IDS B   4      71.864  67.007  38.3130  0.00  0.00     0.000 OA
ENDBRANCH 69 78
BRANCH 65 81
ATOM     81  O4  SGN B   5      70.550  66.716  34.1880  0.00  0.00     0.000 O
BRANCH 81 85
ATOM     82  C1  SGN B   5      71.597  70.263  32.1980  0.00  0.00     0.000 C
ATOM     83  C2  SGN B   5      71.828  70.220  33.7160  0.00  0.00     0.000 C
ATOM     84  C3  SGN B   5      71.844  68.761  34.1920  0.00  0.00     0.000 C
ATOM     85  C4  SGN B   5      70.555  68.081  33.7650  0.00  0.00     0.000 C
ATOM     86  C5  SGN B   5      70.448  68.166  32.2440  0.00  0.00     0.000 C
ATOM     87  O5  SGN B   5      70.419  69.554  31.8610  0.00  0.00     0.000 O
ATOM     88   O  SGN B   5      71.998  68.715  35.5940  0.00  0.00     0.000 O
ATOM     90  HD  SGN B   5      72.625  68.569  35.0140  0.00  0.00     0.000 HD
BRANCH 83 92
ATOM     90   N  SGN B   5      72.352  71.553  33.3580  0.00  0.00     0.000 N
ATOM     92  HD  SGN B   5      71.830  71.950  32.7920  0.00  0.00     0.000 HD
ATOM     92   S  SGN B   5      72.907  72.482  34.5330  0.00  0.00     0.000 S
ATOM     93   O  SGN B   5      73.326  73.680  33.8700  0.00  0.00     0.000 OA
ATOM     94   O  SGN B   5      71.873  72.531  35.5090  0.00  0.00     0.000 OA
ATOM     95   O  SGN B   5      74.056  71.700  35.1320  0.00  0.00     0.000 OA
ENDBRANCH 83 92
BRANCH 86 96
ATOM     96   C  SGN B   5      69.208  67.513  31.6710  0.00  0.00     0.000 C
ATOM     97   O  SGN B   5      68.046  67.917  32.3990  0.00  0.00     0.000 O
ATOM     98   S  SGN B   5      66.819  68.465  31.5240  0.00  0.00     0.000 S
ATOM     99   O  SGN B   5      65.762  68.588  32.4990  0.00  0.00     0.000 OA
ATOM    100   O  SGN B   5      67.228  69.690  30.9360  0.00  0.00     0.000 OA
ATOM    101   O  SGN B   5      66.583  67.439  30.5610  0.00  0.00     0.000 OA
ENDBRANCH 86 96
BRANCH 82 102
ATOM    102  O4  IDS B   6      72.659  69.781  31.4920  0.00  0.00     0.000 O
BRANCH 102 106
ATOM    103  C1  IDS B   6      75.123  70.428  28.8910  0.00  0.00     0.000 C
ATOM    104  C2  IDS B   6      74.448  71.588  29.6400  0.00  0.00     0.000 C
ATOM    105  C3  IDS B   6      72.940  71.479  29.7690  0.00  0.00     0.000 C
ATOM    106  C4  IDS B   6      72.480  70.066  30.0810  0.00  0.00     0.000 C
ATOM    107  C5  IDS B   6      73.257  69.066  29.2210  0.00  0.00     0.000 C
ATOM    108  O5  IDS B   6      74.669  69.190  29.4030  0.00  0.00     0.000 O
ATOM    109   O  IDS B   6      72.359  71.943  28.5620  0.00  0.00     0.000 O
ATOM    111  HD  IDS B   6      72.991  71.848  27.9760  0.00  0.00     0.000 HD
BRANCH 104 111
ATOM    111   O  IDS B   6      74.954  71.626  31.0200  0.00  0.00     0.000 O
ATOM    112   S  IDS B   6      75.969  72.799  31.4170  0.00  0.00     0.000 S
ATOM    113   O  IDS B   6      77.089  72.640  30.5020  0.00  0.00     0.000 OA
ATOM    114   O  IDS B   6      75.264  74.081  31.3050  0.00  0.00     0.000 OA
ATOM    115   O  IDS B   6      76.261  72.404  32.7780  0.00  0.00     0.000 OA
ENDBRANCH 104 111
BRANCH 107 116
ATOM    116   C  IDS B   6      72.814  67.650  29.5670  0.00  0.00     0.000 C
ATOM    117   O  IDS B   6      71.743  67.298  29.1410  0.00  0.00     0.000 OA
ATOM    118   O  IDS B   6      73.509  66.917  30.2520  0.00  0.00     0.000 OA
ENDBRANCH 107 116
BRANCH 103 119
ATOM    119  O4  SGN B   7      74.961  70.753  27.5820  0.00  0.00     0.000 O
BRANCH 119 123
ATOM    120  C1  SGN B   7      77.181  70.370  24.0590  0.00  0.00     0.000 C
ATOM    121  C2  SGN B   7      76.521  69.100  24.6280  0.00  0.00     0.000 C
ATOM    122  C3  SGN B   7      75.442  69.468  25.6540  0.00  0.00     0.000 C
ATOM    123  C4  SGN B   7      76.033  70.382  26.7150  0.00  0.00     0.000 C
ATOM    124  C5  SGN B   7      76.671  71.612  26.0480  0.00  0.00     0.000 C
ATOM    125  O5  SGN B   7      77.680  71.219  25.0920  0.00  0.00     0.000 O
ATOM    126   O  SGN B   7      74.920  68.266  26.2330  0.00  0.00     0.000 O
ATOM    128  HD  SGN B   7      75.410  68.636  25.6220  0.00  0.00     0.000 HD
BRANCH 121 130
ATOM    128   N  SGN B   7      77.352  68.125  23.9170  0.00  0.00     0.000 N
ATOM    130  HD  SGN B   7      77.077  67.496  24.4450  0.00  0.00     0.000 HD
ATOM    130   S  SGN B   7      76.723  67.014  22.9350  0.00  0.00     0.000 S
ATOM    131   O  SGN B   7      75.865  67.736  22.0580  0.00  0.00     0.000 OA
ATOM    132   O  SGN B   7      77.783  66.228  22.4140  0.00  0.00     0.000 OA
ATOM    133   O  SGN B   7      76.016  66.084  23.9780  0.00  0.00     0.000 OA
ENDBRANCH 121 130
BRANCH 124 134
ATOM    134   C  SGN B   7      77.384  72.520  27.0060  0.00  0.00     0.000 C
ATOM    135   O  SGN B   7      78.597  72.979  26.3860  0.00  0.00     0.000 O
ATOM    136   S  SGN B   7      79.417  74.066  27.1690  0.00  0.00     0.000 S
ATOM    137   O  SGN B   7      80.626  74.287  26.4120  0.00  0.00     0.000 OA
ATOM    138   O  SGN B   7      79.663  73.489  28.4710  0.00  0.00     0.000 OA
ATOM    139   O  SGN B   7      78.506  75.200  27.1750  0.00  0.00     0.000 OA
ENDBRANCH 124 134
BRANCH 120 140
ATOM    140  O4  IDS B   8      76.632  71.301  23.2710  0.00  0.00     0.000 O
BRANCH 140 144
ATOM    141  C1  IDS B   8      74.168  73.609  22.0210  0.00  0.00     0.000 C
ATOM    142  C2  IDS B   8      73.749  72.227  22.5980  0.00  0.00     0.000 C
ATOM    143  C3  IDS B   8      74.573  71.059  22.0250  0.00  0.00     0.000 C
ATOM    144  C4  IDS B   8      76.063  71.388  21.9580  0.00  0.00     0.000 C
ATOM    145  C5  IDS B   8      76.269  72.799  21.3870  0.00  0.00     0.000 C
ATOM    146  O5  IDS B   8      75.573  73.783  22.1480  0.00  0.00     0.000 O
BRANCH 142 147
ATOM    147   O  IDS B   8      73.947  72.224  24.0710  0.00  0.00     0.000 O
ATOM    148   S  IDS B   8      72.705  72.484  25.0820  0.00  0.00     0.000 S
ATOM    149   O  IDS B   8      71.628  73.065  24.3130  0.00  0.00     0.000 OA
ATOM    150   O  IDS B   8      72.368  71.181  25.6250  0.00  0.00     0.000 OA
ATOM    151   O  IDS B   8      73.213  73.403  26.0820  0.00  0.00     0.000 OA
ENDBRANCH 142 147
BRANCH 145 152
ATOM    152   C  IDS B   8      77.724  73.222  21.3880  0.00  0.00     0.000 C
ATOM    153   O  IDS B   8      78.548  72.554  20.7740  0.00  0.00     0.000 OA
ATOM    154   O  IDS B   8      78.056  74.233  21.9800  0.00  0.00     0.000 OA
ENDBRANCH 145 152
ENDBRANCH 140 144
ENDBRANCH 120 140
ENDBRANCH 119 123
ENDBRANCH 103 119
ENDBRANCH 102 106
ENDBRANCH 82 102
ENDBRANCH 81 85
ENDBRANCH 65 81
ENDBRANCH 64 68
ENDBRANCH 41 64
ENDBRANCH 40 44
ENDBRANCH 24 40
ENDBRANCH 23 27
ENDBRANCH 1 23
TORSDOF 31
ENDMDL
MODEL 77
REMARK VINA RESULT:      -1.2     61.587     69.518
ROOT
ATOM      1  C1  SGN B   1      48.642  15.421  80.9790  0.00  0.00     0.000 C
ATOM      2  C2  SGN B   1      48.763  15.580  82.5040  0.00  0.00     0.000 C
ATOM      3  C3  SGN B   1      50.215  15.859  82.9060  0.00  0.00     0.000 C
ATOM      4  C4  SGN B   1      51.129  14.761  82.3730  0.00  0.00     0.000 C
ATOM      5  C5  SGN B   1      50.853  14.560  80.8840  0.00  0.00     0.000 C
ATOM      6  O5  SGN B   1      49.452  14.290  80.6860  0.00  0.00     0.000 O
ATOM      7   O  SGN B   1      50.332  15.962  84.3200  0.00  0.00     0.000 O
ATOM      9  HD  SGN B   1      50.043  15.151  84.2260  0.00  0.00     0.000 HD
ATOM      9   O  SGN B   1      52.480  15.134  82.5730  0.00  0.00     0.000 O
ATOM     11  HD  SGN B   1      52.192  14.323  82.4790  0.00  0.00     0.000 HD
ENDROOT
BRANCH 2 13
ATOM     11   N  SGN B   1      47.374  15.401  82.9670  0.00  0.00     0.000 N
ATOM     13  HD  SGN B   1      47.559  15.967  82.3390  0.00  0.00     0.000 HD
ATOM     13   S  SGN B   1      46.284  16.582  82.8930  0.00  0.00     0.000 S
ATOM     14   O  SGN B   1      46.849  17.727  82.2930  0.00  0.00     0.000 OA
ATOM     15   O  SGN B   1      45.072  16.044  82.3730  0.00  0.00     0.000 OA
ATOM     16   O  SGN B   1      46.075  16.789  84.4250  0.00  0.00     0.000 OA
ENDBRANCH 2 13
BRANCH 5 17
ATOM     17   C  SGN B   1      51.623  13.420  80.2650  0.00  0.00     0.000 C
ATOM     18   O  SGN B   1      51.663  12.284  81.1520  0.00  0.00     0.000 O
ATOM     19   S  SGN B   1      53.085  11.572  81.3150  0.00  0.00     0.000 S
ATOM     20   O  SGN B   1      52.812  10.353  82.0470  0.00  0.00     0.000 OA
ATOM     21   O  SGN B   1      53.524  11.346  79.9580  0.00  0.00     0.000 OA
ATOM     22   O  SGN B   1      53.899  12.518  82.0470  0.00  0.00     0.000 OA
ENDBRANCH 5 17
BRANCH 1 23
ATOM     23  O4  IDS B   2      48.421  16.162  79.8570  0.00  0.00     0.000 O
BRANCH 23 27
ATOM     24  C1  IDS B   2      51.882  17.914  78.3790  0.00  0.00     0.000 C
ATOM     25  C2  IDS B   2      51.051  18.789  79.3440  0.00  0.00     0.000 C
ATOM     26  C3  IDS B   2      49.982  17.959  80.0500  0.00  0.00     0.000 C
ATOM     27  C4  IDS B   2      49.073  17.199  79.0940  0.00  0.00     0.000 C
ATOM     28  C5  IDS B   2      49.886  16.688  77.8880  0.00  0.00     0.000 C
ATOM     29  O5  IDS B   2      51.271  16.630  78.1970  0.00  0.00     0.000 O
ATOM     30   O  IDS B   2      49.162  18.819  80.8320  0.00  0.00     0.000 O
ATOM     32  HD  IDS B   2      48.567  19.241  80.3640  0.00  0.00     0.000 HD
BRANCH 25 32
ATOM     32   O  IDS B   2      51.890  19.422  80.3900  0.00  0.00     0.000 O
ATOM     33   S  IDS B   2      52.031  21.061  80.5210  0.00  0.00     0.000 S
ATOM     34   O  IDS B   2      53.089  21.301  81.4890  0.00  0.00     0.000 OA
ATOM     35   O  IDS B   2      52.364  21.624  79.2190  0.00  0.00     0.000 OA
ATOM     36   O  IDS B   2      50.754  21.525  81.0110  0.00  0.00     0.000 OA
ENDBRANCH 25 32
BRANCH 28 37
ATOM     37   C  IDS B   2      49.473  15.341  77.2590  0.00  0.00     0.000 C
ATOM     38   O  IDS B   2      50.379  14.541  77.2300  0.00  0.00     0.000 OA
ATOM     39   O  IDS B   2      48.328  15.012  76.8630  0.00  0.00     0.000 OA
ENDBRANCH 28 37
BRANCH 24 40
ATOM     40  O4  SUS B   3      52.834  18.480  77.6090  0.00  0.00     0.000 O
BRANCH 40 44
ATOM     41  C1  SUS B   3      56.520  16.975  76.3060  0.00  0.00     0.000 C
ATOM     42  C2  SUS B   3      55.248  16.347  75.7020  0.00  0.00     0.000 C
ATOM     43  C3  SUS B   3      54.072  17.300  75.9020  0.00  0.00     0.000 C
ATOM     44  C4  SUS B   3      53.954  17.632  77.3810  0.00  0.00     0.000 C
ATOM     45  C5  SUS B   3      55.225  18.324  77.8310  0.00  0.00     0.000 C
ATOM     46  O5  SUS B   3      56.323  17.406  77.6570  0.00  0.00     0.000 O
BRANCH 42 49
ATOM     47   N  SUS B   3      55.977  15.084  75.4920  0.00  0.00     0.000 N
ATOM     49  HD  SUS B   3      56.840  15.120  75.5580  0.00  0.00     0.000 HD
ATOM     49   S  SUS B   3      55.614  14.385  74.0970  0.00  0.00     0.000 S
ATOM     50   O  SUS B   3      55.882  15.270  73.0330  0.00  0.00     0.000 OA
ATOM     51   O  SUS B   3      56.690  13.273  74.1680  0.00  0.00     0.000 OA
ATOM     52   O  SUS B   3      54.320  13.832  74.1750  0.00  0.00     0.000 OA
ENDBRANCH 42 49
BRANCH 43 53
ATOM     53   O  SUS B   3      52.848  16.615  75.4420  0.00  0.00     0.000 O
ATOM     54   S  SUS B   3      52.090  17.240  74.1240  0.00  0.00     0.000 S
ATOM     55   O  SUS B   3      52.926  16.958  72.9650  0.00  0.00     0.000 OA
ATOM     56   O  SUS B   3      50.808  16.559  74.1010  0.00  0.00     0.000 OA
ATOM     57   O  SUS B   3      51.974  18.682  74.3570  0.00  0.00     0.000 OA
ENDBRANCH 43 53
BRANCH 45 58
ATOM     58   C  SUS B   3      55.144  18.777  79.2720  0.00  0.00     0.000 C
ATOM     59   S  SUS B   3      55.450  17.951  81.6820  0.00  0.00     0.000 S
ATOM     60   O  SUS B   3      55.656  17.740  80.1260  0.00  0.00     0.000 O
ATOM     61   O  SUS B   3      54.063  17.607  81.9310  0.00  0.00     0.000 OA
ATOM     62   O  SUS B   3      56.367  16.975  82.2080  0.00  0.00     0.000 OA
ATOM     63   O  SUS B   3      55.795  19.305  81.9320  0.00  0.00     0.000 OA
ENDBRANCH 45 58
BRANCH 41 64
ATOM     64  O4  IDS B   4      57.111  17.914  75.4970  0.00  0.00     0.000 O
BRANCH 64 68
ATOM     65  C1  IDS B   4      59.679  19.558  73.5020  0.00  0.00     0.000 C
ATOM     66  C2  IDS B   4      59.320  18.089  73.2410  0.00  0.00     0.000 C
ATOM     67  C3  IDS B   4      59.223  17.235  74.4930  0.00  0.00     0.000 C
ATOM     68  C4  IDS B   4      58.548  17.953  75.6470  0.00  0.00     0.000 C
ATOM     69  C5  IDS B   4      59.116  19.377  75.7210  0.00  0.00     0.000 C
ATOM     70  O5  IDS B   4      58.818  20.066  74.5050  0.00  0.00     0.000 O
ATOM     71   O  IDS B   4      60.540  16.876  74.8590  0.00  0.00     0.000 O
ATOM     73  HD  IDS B   4      59.921  17.161  74.3250  0.00  0.00     0.000 HD
BRANCH 66 73
ATOM     73   O  IDS B   4      57.988  18.031  72.6230  0.00  0.00     0.000 O
ATOM     74   S  IDS B   4      57.894  17.604  71.0650  0.00  0.00     0.000 S
ATOM     75   O  IDS B   4      58.728  18.534  70.3340  0.00  0.00     0.000 OA
ATOM     76   O  IDS B   4      56.484  17.750  70.8030  0.00  0.00     0.000 OA
ATOM     77   O  IDS B   4      58.370  16.243  71.0080  0.00  0.00     0.000 OA
ENDBRANCH 66 73
BRANCH 69 78
ATOM     78   C  IDS B   4      58.701  20.156  76.9610  0.00  0.00     0.000 C
ATOM     79   O  IDS B   4      58.605  19.557  78.0310  0.00  0.00     0.000 OA
ATOM     80   O  IDS B   4      58.576  21.392  76.8740  0.00  0.00     0.000 OA
ENDBRANCH 69 78
BRANCH 65 81
ATOM     81  O4  SGN B   5      61.018  19.663  73.7310  0.00  0.00     0.000 O
BRANCH 81 85
ATOM     82  C1  SGN B   5      64.373  22.120  73.1430  0.00  0.00     0.000 C
ATOM     83  C2  SGN B   5      63.287  22.638  74.0980  0.00  0.00     0.000 C
ATOM     84  C3  SGN B   5      62.402  21.469  74.5530  0.00  0.00     0.000 C
ATOM     85  C4  SGN B   5      61.838  20.764  73.3330  0.00  0.00     0.000 C
ATOM     86  C5  SGN B   5      63.004  20.276  72.4780  0.00  0.00     0.000 C
ATOM     87  O5  SGN B   5      63.784  21.415  72.0660  0.00  0.00     0.000 O
ATOM     88   O  SGN B   5      61.368  21.946  75.3850  0.00  0.00     0.000 O
ATOM     90  HD  SGN B   5      62.089  21.552  75.6570  0.00  0.00     0.000 HD
BRANCH 83 92
ATOM     90   N  SGN B   5      63.845  23.983  73.8570  0.00  0.00     0.000 N
ATOM     92  HD  SGN B   5      63.498  24.342  73.1500  0.00  0.00     0.000 HD
ATOM     92   S  SGN B   5      64.003  24.966  75.1080  0.00  0.00     0.000 S
ATOM     93   O  SGN B   5      64.554  26.164  74.5490  0.00  0.00     0.000 OA
ATOM     94   O  SGN B   5      62.728  24.994  75.7390  0.00  0.00     0.000 OA
ATOM     95   O  SGN B   5      64.954  24.251  76.0420  0.00  0.00     0.000 OA
ENDBRANCH 83 92
BRANCH 86 96
ATOM     96   C  SGN B   5      62.588  19.537  71.2230  0.00  0.00     0.000 C
ATOM     97   O  SGN B   5      61.566  20.259  70.5310  0.00  0.00     0.000 O
ATOM     98   S  SGN B   5      61.819  20.517  68.9680  0.00  0.00     0.000 S
ATOM     99   O  SGN B   5      60.558  21.065  68.5290  0.00  0.00     0.000 OA
ATOM    100   O  SGN B   5      62.921  21.402  68.8550  0.00  0.00     0.000 OA
ATOM    101   O  SGN B   5      62.089  19.221  68.4340  0.00  0.00     0.000 OA
ENDBRANCH 86 96
BRANCH 82 102
ATOM    102  O4  IDS B   6      65.296  21.339  73.7730  0.00  0.00     0.000 O
BRANCH 102 106
ATOM    103  C1  IDS B   6      68.578  20.337  74.9880  0.00  0.00     0.000 C
ATOM    104  C2  IDS B   6      67.985  21.704  75.3630  0.00  0.00     0.000 C
ATOM    105  C3  IDS B   6      67.398  22.489  74.2060  0.00  0.00     0.000 C
ATOM    106  C4  IDS B   6      66.616  21.615  73.2410  0.00  0.00     0.000 C
ATOM    107  C5  IDS B   6      67.383  20.315  72.9840  0.00  0.00     0.000 C
ATOM    108  O5  IDS B   6      67.658  19.610  74.1960  0.00  0.00     0.000 O
ATOM    109   O  IDS B   6      68.459  23.152  73.5390  0.00  0.00     0.000 O
ATOM    111  HD  IDS B   6      69.159  22.687  73.7460  0.00  0.00     0.000 HD
BRANCH 104 111
ATOM    111   O  IDS B   6      66.870  21.502  76.3010  0.00  0.00     0.000 O
ATOM    112   S  IDS B   6      67.120  21.827  77.8490  0.00  0.00     0.000 S
ATOM    113   O  IDS B   6      68.227  20.963  78.2300  0.00  0.00     0.000 OA
ATOM    114   O  IDS B   6      67.389  23.263  77.9840  0.00  0.00     0.000 OA
ATOM    115   O  IDS B   6      65.841  21.413  78.3830  0.00  0.00     0.000 OA
ENDBRANCH 104 111
BRANCH 107 116
ATOM    116   C  IDS B   6      66.574  19.430  72.0440  0.00  0.00     0.000 C
ATOM    117   O  IDS B   6      66.138  18.406  72.5050  0.00  0.00     0.000 OA
ATOM    118   O  IDS B   6      66.388  19.744  70.8790  0.00  0.00     0.000 OA
ENDBRANCH 107 116
BRANCH 103 119
ATOM    119  O4  SGN B   7      69.820  20.640  74.5290  0.00  0.00     0.000 O
BRANCH 119 123
ATOM    120  C1  SGN B   7      73.610  18.876  74.6260  0.00  0.00     0.000 C
ATOM    121  C2  SGN B   7      72.550  18.240  73.7070  0.00  0.00     0.000 C
ATOM    122  C3  SGN B   7      71.385  19.210  73.4780  0.00  0.00     0.000 C
ATOM    123  C4  SGN B   7      70.837  19.680  74.8150  0.00  0.00     0.000 C
ATOM    124  C5  SGN B   7      71.969  20.291  75.6580  0.00  0.00     0.000 C
ATOM    125  O5  SGN B   7      73.044  19.343  75.8490  0.00  0.00     0.000 O
ATOM    126   O  SGN B   7      70.376  18.552  72.7030  0.00  0.00     0.000 O
ATOM    128  HD  SGN B   7      71.182  18.544  73.0200  0.00  0.00     0.000 HD
BRANCH 121 130
ATOM    128   N  SGN B   7      73.187  16.928  73.5650  0.00  0.00     0.000 N
ATOM    130  HD  SGN B   7      72.452  16.598  73.2460  0.00  0.00     0.000 HD
ATOM    130   S  SGN B   7      73.601  16.324  72.1310  0.00  0.00     0.000 S
ATOM    131   O  SGN B   7      74.342  17.357  71.4920  0.00  0.00     0.000 OA
ATOM    132   O  SGN B   7      74.182  15.046  72.3360  0.00  0.00     0.000 OA
ATOM    133   O  SGN B   7      72.185  16.023  71.5330  0.00  0.00     0.000 OA
ENDBRANCH 121 130
BRANCH 124 134
ATOM    134   C  SGN B   7      71.551  20.680  77.0450  0.00  0.00     0.000 C
ATOM    135   O  SGN B   7      72.567  20.251  77.9670  0.00  0.00     0.000 O
ATOM    136   S  SGN B   7      72.391  20.701  79.4620  0.00  0.00     0.000 S
ATOM    137   O  SGN B   7      73.458  20.072  80.2030  0.00  0.00     0.000 OA
ATOM    138   O  SGN B   7      71.081  20.229  79.8470  0.00  0.00     0.000 OA
ATOM    139   O  SGN B   7      72.508  22.148  79.3690  0.00  0.00     0.000 OA
ENDBRANCH 124 134
BRANCH 120 140
ATOM    140  O4  IDS B   8      74.416  19.910  74.3600  0.00  0.00     0.000 O
BRANCH 140 144
ATOM    141  C1  IDS B   8      75.428  23.141  73.1360  0.00  0.00     0.000 C
ATOM    142  C2  IDS B   8      74.403  22.274  72.3510  0.00  0.00     0.000 C
ATOM    143  C3  IDS B   8      74.865  20.817  72.1630  0.00  0.00     0.000 C
ATOM    144  C4  IDS B   8      75.467  20.237  73.4420  0.00  0.00     0.000 C
ATOM    145  C5  IDS B   8      76.429  21.250  74.0810  0.00  0.00     0.000 C
ATOM    146  O5  IDS B   8      75.785  22.492  74.3500  0.00  0.00     0.000 O
BRANCH 142 147
ATOM    147   O  IDS B   8      73.115  22.235  73.0920  0.00  0.00     0.000 O
ATOM    148   S  IDS B   8      71.888  23.216  72.6870  0.00  0.00     0.000 S
ATOM    149   O  IDS B   8      72.425  24.270  71.8560  0.00  0.00     0.000 OA
ATOM    150   O  IDS B   8      70.937  22.376  71.9840  0.00  0.00     0.000 OA
ATOM    151   O  IDS B   8      71.377  23.726  73.9450  0.00  0.00     0.000 OA
ENDBRANCH 142 147
BRANCH 145 152
ATOM    152   C  IDS B   8      76.983  20.771  75.4080  0.00  0.00     0.000 C
ATOM    153   O  IDS B   8      76.817  21.452  76.4130  0.00  0.00     0.000 OA
ATOM    154   O  IDS B   8      77.569  19.705  75.4660  0.00  0.00     0.000 OA
ENDBRANCH 145 152
ENDBRANCH 140 144
ENDBRANCH 120 140
ENDBRANCH 119 123
ENDBRANCH 103 119
ENDBRANCH 102 106
ENDBRANCH 82 102
ENDBRANCH 81 85
ENDBRANCH 65 81
ENDBRANCH 64 68
ENDBRANCH 41 64
ENDBRANCH 40 44
ENDBRANCH 24 40
ENDBRANCH 23 27
ENDBRANCH 1 23
TORSDOF 31
ENDMDL
MODEL 78
REMARK VINA RESULT:      -1.2     68.579     74.948
ROOT
ATOM      1  C1  SGN B   1      37.351  75.662  49.6090  0.00  0.00     0.000 C
ATOM      2  C2  SGN B   1      36.779  77.087  49.5350  0.00  0.00     0.000 C
ATOM      3  C3  SGN B   1      37.768  78.100  50.1200  0.00  0.00     0.000 C
ATOM      4  C4  SGN B   1      38.141  77.708  51.5470  0.00  0.00     0.000 C
ATOM      5  C5  SGN B   1      38.564  76.241  51.5670  0.00  0.00     0.000 C
ATOM      6  O5  SGN B   1      37.516  75.430  51.0010  0.00  0.00     0.000 O
ATOM      7   O  SGN B   1      37.217  79.412  50.0910  0.00  0.00     0.000 O
ATOM      9  HD  SGN B   1      36.653  78.995  50.5990  0.00  0.00     0.000 HD
ATOM      9   O  SGN B   1      39.202  78.529  51.9980  0.00  0.00     0.000 O
ATOM     11  HD  SGN B   1      38.638  78.113  52.5060  0.00  0.00     0.000 HD
ENDROOT
BRANCH 2 13
ATOM     11   N  SGN B   1      35.462  76.915  48.8930  0.00  0.00     0.000 N
ATOM     13  HD  SGN B   1      36.170  76.558  48.5460  0.00  0.00     0.000 HD
ATOM     13   S  SGN B   1      35.301  76.695  47.3070  0.00  0.00     0.000 S
ATOM     14   O  SGN B   1      36.569  76.647  46.6920  0.00  0.00     0.000 OA
ATOM     15   O  SGN B   1      34.377  75.633  47.0910  0.00  0.00     0.000 OA
ATOM     16   O  SGN B   1      34.558  78.026  46.9720  0.00  0.00     0.000 OA
ENDBRANCH 2 13
BRANCH 5 17
ATOM     17   C  SGN B   1      38.853  75.704  52.9470  0.00  0.00     0.000 C
ATOM     18   O  SGN B   1      37.886  76.188  53.9000  0.00  0.00     0.000 O
ATOM     19   S  SGN B   1      38.474  76.715  55.2900  0.00  0.00     0.000 S
ATOM     20   O  SGN B   1      37.317  76.913  56.1370  0.00  0.00     0.000 OA
ATOM     21   O  SGN B   1      39.340  75.648  55.7340  0.00  0.00     0.000 OA
ATOM     22   O  SGN B   1      39.171  77.941  54.9640  0.00  0.00     0.000 OA
ENDBRANCH 5 17
BRANCH 1 23
ATOM     23  O4  IDS B   2      38.104  74.790  48.8790  0.00  0.00     0.000 O
BRANCH 23 27
ATOM     24  C1  IDS B   2      42.183  75.366  49.3900  0.00  0.00     0.000 C
ATOM     25  C2  IDS B   2      41.549  76.110  48.1940  0.00  0.00     0.000 C
ATOM     26  C3  IDS B   2      40.025  76.073  48.2740  0.00  0.00     0.000 C
ATOM     27  C4  IDS B   2      39.457  74.665  48.3950  0.00  0.00     0.000 C
ATOM     28  C5  IDS B   2      40.376  73.801  49.2820  0.00  0.00     0.000 C
ATOM     29  O5  IDS B   2      41.195  74.615  50.1080  0.00  0.00     0.000 O
ATOM     30   O  IDS B   2      39.480  76.656  47.0960  0.00  0.00     0.000 O
ATOM     32  HD  IDS B   2      39.487  76.122  46.4150  0.00  0.00     0.000 HD
BRANCH 25 32
ATOM     32   O  IDS B   2      41.960  77.535  48.1370  0.00  0.00     0.000 O
ATOM     33   S  IDS B   2      42.809  78.147  46.8610  0.00  0.00     0.000 S
ATOM     34   O  IDS B   2      43.221  79.485  47.2530  0.00  0.00     0.000 OA
ATOM     35   O  IDS B   2      43.958  77.294  46.5910  0.00  0.00     0.000 OA
ATOM     36   O  IDS B   2      41.879  78.184  45.7560  0.00  0.00     0.000 OA
ENDBRANCH 25 32
BRANCH 28 37
ATOM     37   C  IDS B   2      39.716  72.723  50.1660  0.00  0.00     0.000 C
ATOM     38   O  IDS B   2      39.983  72.851  51.3380  0.00  0.00     0.000 OA
ATOM     39   O  IDS B   2      38.924  71.822  49.7950  0.00  0.00     0.000 OA
ENDBRANCH 28 37
BRANCH 24 40
ATOM     40  O4  SUS B   3      43.523  75.231  49.4630  0.00  0.00     0.000 O
BRANCH 40 44
ATOM     41  C1  SUS B   3      46.068  75.178  52.7900  0.00  0.00     0.000 C
ATOM     42  C2  SUS B   3      45.138  73.964  52.5950  0.00  0.00     0.000 C
ATOM     43  C3  SUS B   3      44.665  73.921  51.1440  0.00  0.00     0.000 C
ATOM     44  C4  SUS B   3      44.022  75.255  50.7960  0.00  0.00     0.000 C
ATOM     45  C5  SUS B   3      45.058  76.350  50.9390  0.00  0.00     0.000 C
ATOM     46  O5  SUS B   3      45.480  76.394  52.3170  0.00  0.00     0.000 O
BRANCH 42 49
ATOM     47   N  SUS B   3      45.640  72.625  52.9490  0.00  0.00     0.000 N
ATOM     49  HD  SUS B   3      45.441  71.981  52.4060  0.00  0.00     0.000 HD
ATOM     49   S  SUS B   3      45.215  72.178  54.4280  0.00  0.00     0.000 S
ATOM     50   O  SUS B   3      43.811  72.206  54.5530  0.00  0.00     0.000 OA
ATOM     51   O  SUS B   3      45.725  70.717  54.3270  0.00  0.00     0.000 OA
ATOM     52   O  SUS B   3      45.969  72.905  55.3700  0.00  0.00     0.000 OA
ENDBRANCH 42 49
BRANCH 43 53
ATOM     53   O  SUS B   3      43.670  72.838  51.0210  0.00  0.00     0.000 O
ATOM     54   S  SUS B   3      44.018  71.615  49.9790  0.00  0.00     0.000 S
ATOM     55   O  SUS B   3      45.097  70.833  50.5680  0.00  0.00     0.000 OA
ATOM     56   O  SUS B   3      42.767  70.889  49.8580  0.00  0.00     0.000 OA
ATOM     57   O  SUS B   3      44.443  72.246  48.7260  0.00  0.00     0.000 OA
ENDBRANCH 43 53
BRANCH 45 58
ATOM     58   C  SUS B   3      44.520  77.699  50.5130  0.00  0.00     0.000 C
ATOM     59   S  SUS B   3      43.146  79.697  51.3540  0.00  0.00     0.000 S
ATOM     60   O  SUS B   3      43.951  78.366  51.6520  0.00  0.00     0.000 O
ATOM     61   O  SUS B   3      41.861  79.257  50.8460  0.00  0.00     0.000 OA
ATOM     62   O  SUS B   3      43.059  80.259  52.6750  0.00  0.00     0.000 OA
ATOM     63   O  SUS B   3      43.946  80.426  50.4350  0.00  0.00     0.000 OA
ENDBRANCH 45 58
BRANCH 41 64
ATOM     64  O4  IDS B   4      47.352  74.967  52.3520  0.00  0.00     0.000 O
BRANCH 64 68
ATOM     65  C1  IDS B   4      50.912  74.349  52.8230  0.00  0.00     0.000 C
ATOM     66  C2  IDS B   4      49.890  73.768  53.8080  0.00  0.00     0.000 C
ATOM     67  C3  IDS B   4      48.834  74.756  54.2720  0.00  0.00     0.000 C
ATOM     68  C4  IDS B   4      48.336  75.655  53.1560  0.00  0.00     0.000 C
ATOM     69  C5  IDS B   4      49.551  76.139  52.3540  0.00  0.00     0.000 C
ATOM     70  O5  IDS B   4      50.216  75.010  51.7810  0.00  0.00     0.000 O
ATOM     71   O  IDS B   4      49.414  75.541  55.2940  0.00  0.00     0.000 O
ATOM     73  HD  IDS B   4      49.350  74.857  54.7670  0.00  0.00     0.000 HD
BRANCH 66 73
ATOM     73   O  IDS B   4      49.150  72.689  53.1410  0.00  0.00     0.000 O
ATOM     74   S  IDS B   4      49.397  71.173  53.6490  0.00  0.00     0.000 S
ATOM     75   O  IDS B   4      50.819  70.929  53.5350  0.00  0.00     0.000 OA
ATOM     76   O  IDS B   4      48.596  70.415  52.7210  0.00  0.00     0.000 OA
ATOM     77   O  IDS B   4      48.919  71.140  55.0100  0.00  0.00     0.000 OA
ENDBRANCH 66 73
BRANCH 69 78
ATOM     78   C  IDS B   4      49.240  77.224  51.3330  0.00  0.00     0.000 C
ATOM     79   O  IDS B   4      49.809  78.311  51.4340  0.00  0.00     0.000 OA
ATOM     80   O  IDS B   4      48.503  76.943  50.3700  0.00  0.00     0.000 OA
ENDBRANCH 69 78
BRANCH 65 81
ATOM     81  O4  SGN B   5      51.835  75.082  53.5060  0.00  0.00     0.000 O
BRANCH 81 85
ATOM     82  C1  SGN B   5      55.900  76.129  53.6340  0.00  0.00     0.000 C
ATOM     83  C2  SGN B   5      55.039  76.805  52.5570  0.00  0.00     0.000 C
ATOM     84  C3  SGN B   5      53.556  76.684  52.9340  0.00  0.00     0.000 C
ATOM     85  C4  SGN B   5      53.210  75.220  53.1430  0.00  0.00     0.000 C
ATOM     86  C5  SGN B   5      54.109  74.668  54.2460  0.00  0.00     0.000 C
ATOM     87  O5  SGN B   5      55.482  74.791  53.8280  0.00  0.00     0.000 O
ATOM     88   O  SGN B   5      52.756  77.253  51.9210  0.00  0.00     0.000 O
ATOM     90  HD  SGN B   5      52.953  77.629  52.6750  0.00  0.00     0.000 HD
BRANCH 83 92
ATOM     90   N  SGN B   5      56.355  77.440  52.3490  0.00  0.00     0.000 N
ATOM     92  HD  SGN B   5      56.993  76.856  52.3980  0.00  0.00     0.000 HD
ATOM     92   S  SGN B   5      56.498  78.501  51.1620  0.00  0.00     0.000 S
ATOM     93   O  SGN B   5      57.867  78.917  51.2220  0.00  0.00     0.000 OA
ATOM     94   O  SGN B   5      56.002  77.848  49.9990  0.00  0.00     0.000 OA
ATOM     95   O  SGN B   5      55.523  79.603  51.5120  0.00  0.00     0.000 OA
ENDBRANCH 83 92
BRANCH 86 96
ATOM     96   C  SGN B   5      53.866  73.209  54.5730  0.00  0.00     0.000 C
ATOM     97   O  SGN B   5      53.829  72.426  53.3780  0.00  0.00     0.000 O
ATOM     98   S  SGN B   5      54.764  71.123  53.3570  0.00  0.00     0.000 S
ATOM     99   O  SGN B   5      54.357  70.459  52.1420  0.00  0.00     0.000 OA
ATOM    100   O  SGN B   5      56.112  71.567  53.3670  0.00  0.00     0.000 OA
ATOM    101   O  SGN B   5      54.405  70.410  54.5400  0.00  0.00     0.000 OA
ENDBRANCH 86 96
BRANCH 82 102
ATOM    102  O4  IDS B   6      55.887  76.806  54.8170  0.00  0.00     0.000 O
BRANCH 102 106
ATOM    103  C1  IDS B   6      57.870  78.428  57.4040  0.00  0.00     0.000 C
ATOM    104  C2  IDS B   6      58.427  78.251  55.9820  0.00  0.00     0.000 C
ATOM    105  C3  IDS B   6      58.253  76.865  55.3920  0.00  0.00     0.000 C
ATOM    106  C4  IDS B   6      56.895  76.260  55.7060  0.00  0.00     0.000 C
ATOM    107  C5  IDS B   6      56.535  76.530  57.1700  0.00  0.00     0.000 C
ATOM    108  O5  IDS B   6      56.550  77.925  57.4740  0.00  0.00     0.000 O
ATOM    109   O  IDS B   6      59.297  76.041  55.8850  0.00  0.00     0.000 O
ATOM    111  HD  IDS B   6      59.543  76.432  56.6180  0.00  0.00     0.000 HD
BRANCH 104 111
ATOM    111   O  IDS B   6      57.708  79.154  55.0710  0.00  0.00     0.000 O
ATOM    112   S  IDS B   6      58.476  80.455  54.5390  0.00  0.00     0.000 S
ATOM    113   O  IDS B   6      58.839  81.184  55.7440  0.00  0.00     0.000 OA
ATOM    114   O  IDS B   6      59.613  80.020  53.7200  0.00  0.00     0.000 OA
ATOM    115   O  IDS B   6      57.404  81.066  53.7830  0.00  0.00     0.000 OA
ENDBRANCH 104 111
BRANCH 107 116
ATOM    116   C  IDS B   6      55.157  75.951  57.4640  0.00  0.00     0.000 C
ATOM    117   O  IDS B   6      54.250  76.738  57.5710  0.00  0.00     0.000 OA
ATOM    118   O  IDS B   6      54.987  74.749  57.5930  0.00  0.00     0.000 OA
ENDBRANCH 107 116
BRANCH 103 119
ATOM    119  O4  SGN B   7      58.856  77.938  58.1980  0.00  0.00     0.000 O
BRANCH 119 123
ATOM    120  C1  SGN B   7      60.463  78.838  61.9530  0.00  0.00     0.000 C
ATOM    121  C2  SGN B   7      59.091  78.140  61.9130  0.00  0.00     0.000 C
ATOM    122  C3  SGN B   7      58.838  77.529  60.5290  0.00  0.00     0.000 C
ATOM    123  C4  SGN B   7      59.020  78.591  59.4580  0.00  0.00     0.000 C
ATOM    124  C5  SGN B   7      60.412  79.230  59.5860  0.00  0.00     0.000 C
ATOM    125  O5  SGN B   7      60.605  79.793  60.9030  0.00  0.00     0.000 O
ATOM    126   O  SGN B   7      57.517  76.976  60.4980  0.00  0.00     0.000 O
ATOM    128  HD  SGN B   7      58.161  77.318  60.9660  0.00  0.00     0.000 HD
BRANCH 121 130
ATOM    128   N  SGN B   7      58.859  78.460  63.3240  0.00  0.00     0.000 N
ATOM    130  HD  SGN B   7      58.004  78.467  63.1890  0.00  0.00     0.000 HD
ATOM    130   S  SGN B   7      58.275  77.380  64.3650  0.00  0.00     0.000 S
ATOM    131   O  SGN B   7      59.088  76.224  64.1980  0.00  0.00     0.000 OA
ATOM    132   O  SGN B   7      58.162  78.000  65.6360  0.00  0.00     0.000 OA
ATOM    133   O  SGN B   7      56.800  77.262  63.8510  0.00  0.00     0.000 OA
ENDBRANCH 121 130
BRANCH 124 134
ATOM    134   C  SGN B   7      60.644  80.374  58.6430  0.00  0.00     0.000 C
ATOM    135   O  SGN B   7      61.353  81.409  59.3440  0.00  0.00     0.000 O
ATOM    136   S  SGN B   7      61.830  82.636  58.4870  0.00  0.00     0.000 S
ATOM    137   O  SGN B   7      62.414  83.577  59.4130  0.00  0.00     0.000 OA
ATOM    138   O  SGN B   7      60.634  83.140  57.8500  0.00  0.00     0.000 OA
ATOM    139   O  SGN B   7      62.787  82.028  57.5760  0.00  0.00     0.000 OA
ENDBRANCH 124 134
BRANCH 120 140
ATOM    140  O4  IDS B   8      61.675  78.276  61.8890  0.00  0.00     0.000 O
BRANCH 140 144
ATOM    141  C1  IDS B   8      64.279  76.054  60.7730  0.00  0.00     0.000 C
ATOM    142  C2  IDS B   8      62.806  75.567  60.8870  0.00  0.00     0.000 C
ATOM    143  C3  IDS B   8      62.152  75.930  62.2330  0.00  0.00     0.000 C
ATOM    144  C4  IDS B   8      62.470  77.363  62.6560  0.00  0.00     0.000 C
ATOM    145  C5  IDS B   8      63.963  77.658  62.4470  0.00  0.00     0.000 C
ATOM    146  O5  IDS B   8      64.359  77.437  61.0960  0.00  0.00     0.000 O
BRANCH 142 147
ATOM    147   O  IDS B   8      61.991  76.200  59.8170  0.00  0.00     0.000 O
ATOM    148   S  IDS B   8      61.654  75.407  58.4420  0.00  0.00     0.000 S
ATOM    149   O  IDS B   8      62.566  74.290  58.3460  0.00  0.00     0.000 OA
ATOM    150   O  IDS B   8      60.269  74.993  58.5630  0.00  0.00     0.000 OA
ATOM    151   O  IDS B   8      61.869  76.374  57.3820  0.00  0.00     0.000 OA
ENDBRANCH 142 147
BRANCH 145 152
ATOM    152   C  IDS B   8      64.321  79.098  62.7560  0.00  0.00     0.000 C
ATOM    153   O  IDS B   8      64.108  79.546  63.8770  0.00  0.00     0.000 OA
ATOM    154   O  IDS B   8      64.837  79.788  61.8950  0.00  0.00     0.000 OA
ENDBRANCH 145 152
ENDBRANCH 140 144
ENDBRANCH 120 140
ENDBRANCH 119 123
ENDBRANCH 103 119
ENDBRANCH 102 106
ENDBRANCH 82 102
ENDBRANCH 81 85
ENDBRANCH 65 81
ENDBRANCH 64 68
ENDBRANCH 41 64
ENDBRANCH 40 44
ENDBRANCH 24 40
ENDBRANCH 23 27
ENDBRANCH 1 23
TORSDOF 31
ENDMDL
MODEL 79
REMARK VINA RESULT:      -1.2     68.510     74.571
ROOT
ATOM      1  C1  SGN B   1      71.101  57.557  47.4370  0.00  0.00     0.000 C
ATOM      2  C2  SGN B   1      72.404  57.535  48.2530  0.00  0.00     0.000 C
ATOM      3  C3  SGN B   1      73.546  58.191  47.4700  0.00  0.00     0.000 C
ATOM      4  C4  SGN B   1      73.711  57.514  46.1130  0.00  0.00     0.000 C
ATOM      5  C5  SGN B   1      72.352  57.446  45.4210  0.00  0.00     0.000 C
ATOM      6  O5  SGN B   1      71.405  56.785  46.2830  0.00  0.00     0.000 O
ATOM      7   O  SGN B   1      74.760  58.129  48.2100  0.00  0.00     0.000 O
ATOM      9  HD  SGN B   1      74.573  57.290  48.1060  0.00  0.00     0.000 HD
ATOM      9   O  SGN B   1      74.624  58.256  45.3250  0.00  0.00     0.000 O
ATOM     11  HD  SGN B   1      74.437  57.417  45.2220  0.00  0.00     0.000 HD
ENDROOT
BRANCH 2 13
ATOM     11   N  SGN B   1      72.025  56.880  49.5200  0.00  0.00     0.000 N
ATOM     13  HD  SGN B   1      71.553  57.534  49.2040  0.00  0.00     0.000 HD
ATOM     13   S  SGN B   1      71.230  57.656  50.6830  0.00  0.00     0.000 S
ATOM     14   O  SGN B   1      70.932  58.973  50.2740  0.00  0.00     0.000 OA
ATOM     15   O  SGN B   1      70.180  56.814  51.1490  0.00  0.00     0.000 OA
ATOM     16   O  SGN B   1      72.350  57.639  51.7690  0.00  0.00     0.000 OA
ENDBRANCH 2 13
BRANCH 5 17
ATOM     17   C  SGN B   1      72.367  56.697  44.1110  0.00  0.00     0.000 C
ATOM     18   O  SGN B   1      73.190  55.517  44.2030  0.00  0.00     0.000 O
ATOM     19   S  SGN B   1      74.190  55.263  42.9810  0.00  0.00     0.000 S
ATOM     20   O  SGN B   1      74.712  53.930  43.1940  0.00  0.00     0.000 OA
ATOM     21   O  SGN B   1      73.351  55.375  41.8100  0.00  0.00     0.000 OA
ATOM     22   O  SGN B   1      75.190  56.302  43.0890  0.00  0.00     0.000 OA
ENDBRANCH 5 17
BRANCH 1 23
ATOM     23  O4  IDS B   2      70.007  58.342  47.2200  0.00  0.00     0.000 O
BRANCH 23 27
ATOM     24  C1  IDS B   2      70.645  61.255  44.3330  0.00  0.00     0.000 C
ATOM     25  C2  IDS B   2      70.917  61.689  45.7910  0.00  0.00     0.000 C
ATOM     26  C3  IDS B   2      70.943  60.482  46.7240  0.00  0.00     0.000 C
ATOM     27  C4  IDS B   2      69.687  59.625  46.6430  0.00  0.00     0.000 C
ATOM     28  C5  IDS B   2      69.185  59.562  45.1860  0.00  0.00     0.000 C
ATOM     29  O5  IDS B   2      70.226  59.885  44.2770  0.00  0.00     0.000 O
ATOM     30   O  IDS B   2      71.071  60.931  48.0680  0.00  0.00     0.000 O
ATOM     32  HD  IDS B   2      70.325  61.214  48.4060  0.00  0.00     0.000 HD
BRANCH 25 32
ATOM     32   O  IDS B   2      72.215  62.393  45.9330  0.00  0.00     0.000 O
ATOM     33   S  IDS B   2      72.305  63.962  46.4380  0.00  0.00     0.000 S
ATOM     34   O  IDS B   2      73.686  64.372  46.2400  0.00  0.00     0.000 OA
ATOM     35   O  IDS B   2      71.390  64.777  45.6520  0.00  0.00     0.000 OA
ATOM     36   O  IDS B   2      71.958  63.940  47.8400  0.00  0.00     0.000 OA
ENDBRANCH 25 32
BRANCH 28 37
ATOM     37   C  IDS B   2      68.514  58.256  44.7110  0.00  0.00     0.000 C
ATOM     38   O  IDS B   2      67.389  58.128  45.1340  0.00  0.00     0.000 OA
ATOM     39   O  IDS B   2      68.991  57.407  43.9190  0.00  0.00     0.000 OA
ENDBRANCH 28 37
BRANCH 24 40
ATOM     40  O4  SUS B   3      70.517  62.188  43.3670  0.00  0.00     0.000 O
BRANCH 40 44
ATOM     41  C1  SUS B   3      71.621  62.079  39.3270  0.00  0.00     0.000 C
ATOM     42  C2  SUS B   3      70.440  61.188  39.7600  0.00  0.00     0.000 C
ATOM     43  C3  SUS B   3      69.883  61.699  41.0860  0.00  0.00     0.000 C
ATOM     44  C4  SUS B   3      71.013  61.762  42.1020  0.00  0.00     0.000 C
ATOM     45  C5  SUS B   3      72.063  62.736  41.6070  0.00  0.00     0.000 C
ATOM     46  O5  SUS B   3      72.596  62.230  40.3660  0.00  0.00     0.000 O
BRANCH 42 49
ATOM     47   N  SUS B   3      70.753  60.248  38.6690  0.00  0.00     0.000 N
ATOM     49  HD  SUS B   3      71.296  60.532  38.0580  0.00  0.00     0.000 HD
ATOM     49   S  SUS B   3      69.440  59.683  37.9450  0.00  0.00     0.000 S
ATOM     50   O  SUS B   3      68.671  60.752  37.4430  0.00  0.00     0.000 OA
ATOM     51   O  SUS B   3      70.173  58.948  36.7930  0.00  0.00     0.000 OA
ATOM     52   O  SUS B   3      68.799  58.760  38.7950  0.00  0.00     0.000 OA
ENDBRANCH 42 49
BRANCH 43 53
ATOM     53   O  SUS B   3      68.851  60.748  41.5430  0.00  0.00     0.000 O
ATOM     54   S  SUS B   3      67.302  61.295  41.6020  0.00  0.00     0.000 S
ATOM     55   O  SUS B   3      66.841  61.449  40.2300  0.00  0.00     0.000 OA
ATOM     56   O  SUS B   3      66.594  60.268  42.3460  0.00  0.00     0.000 OA
ATOM     57   O  SUS B   3      67.344  62.585  42.2960  0.00  0.00     0.000 OA
ENDBRANCH 43 53
BRANCH 45 58
ATOM     58   C  SUS B   3      73.176  62.929  42.6130  0.00  0.00     0.000 C
ATOM     59   S  SUS B   3      75.377  61.896  43.4340  0.00  0.00     0.000 S
ATOM     60   O  SUS B   3      74.227  61.985  42.3490  0.00  0.00     0.000 O
ATOM     61   O  SUS B   3      74.815  61.116  44.5200  0.00  0.00     0.000 OA
ATOM     62   O  SUS B   3      76.385  61.180  42.6980  0.00  0.00     0.000 OA
ATOM     63   O  SUS B   3      75.700  63.241  43.7560  0.00  0.00     0.000 OA
ENDBRANCH 45 58
BRANCH 41 64
ATOM     64  O4  IDS B   4      71.238  63.259  38.7400  0.00  0.00     0.000 O
BRANCH 64 68
ATOM     65  C1  IDS B   4      70.959  65.874  36.2180  0.00  0.00     0.000 C
ATOM     66  C2  IDS B   4      70.626  64.419  35.8630  0.00  0.00     0.000 C
ATOM     67  C3  IDS B   4      71.649  63.405  36.3440  0.00  0.00     0.000 C
ATOM     68  C4  IDS B   4      72.173  63.711  37.7350  0.00  0.00     0.000 C
ATOM     69  C5  IDS B   4      72.474  65.213  37.8120  0.00  0.00     0.000 C
ATOM     70  O5  IDS B   4      71.266  65.947  37.5980  0.00  0.00     0.000 O
ATOM     71   O  IDS B   4      72.717  63.414  35.4190  0.00  0.00     0.000 O
ATOM     73  HD  IDS B   4      71.910  63.572  35.6930  0.00  0.00     0.000 HD
BRANCH 66 73
ATOM     73   O  IDS B   4      69.366  64.048  36.5220  0.00  0.00     0.000 O
ATOM     74   S  IDS B   4      68.056  63.844  35.5960  0.00  0.00     0.000 S
ATOM     75   O  IDS B   4      67.876  65.079  34.8630  0.00  0.00     0.000 OA
ATOM     76   O  IDS B   4      67.034  63.590  36.5790  0.00  0.00     0.000 OA
ATOM     77   O  IDS B   4      68.357  62.716  34.7470  0.00  0.00     0.000 OA
ENDBRANCH 66 73
BRANCH 69 78
ATOM     78   C  IDS B   4      73.214  65.643  39.0720  0.00  0.00     0.000 C
ATOM     79   O  IDS B   4      74.073  64.896  39.5360  0.00  0.00     0.000 OA
ATOM     80   O  IDS B   4      73.001  66.781  39.5290  0.00  0.00     0.000 OA
ENDBRANCH 69 78
BRANCH 65 81
ATOM     81  O4  SGN B   5      71.900  66.347  35.3540  0.00  0.00     0.000 O
BRANCH 81 85
ATOM     82  C1  SGN B   5      73.176  69.764  33.2720  0.00  0.00     0.000 C
ATOM     83  C2  SGN B   5      73.324  69.783  34.8010  0.00  0.00     0.000 C
ATOM     84  C3  SGN B   5      73.263  68.347  35.3400  0.00  0.00     0.000 C
ATOM     85  C4  SGN B   5      71.975  67.691  34.8730  0.00  0.00     0.000 C
ATOM     86  C5  SGN B   5      71.954  67.711  33.3460  0.00  0.00     0.000 C
ATOM     87  O5  SGN B   5      71.993  69.080  32.9020  0.00  0.00     0.000 O
ATOM     88   O  SGN B   5      73.341  68.360  36.7490  0.00  0.00     0.000 O
ATOM     90  HD  SGN B   5      73.992  68.167  36.2120  0.00  0.00     0.000 HD
BRANCH 83 92
ATOM     90   N  SGN B   5      73.912  71.080  34.4150  0.00  0.00     0.000 N
ATOM     92  HD  SGN B   5      73.436  71.468  33.8040  0.00  0.00     0.000 HD
ATOM     92   S  SGN B   5      74.436  72.043  35.5780  0.00  0.00     0.000 S
ATOM     93   O  SGN B   5      74.931  73.196  34.8870  0.00  0.00     0.000 OA
ATOM     94   O  SGN B   5      73.353  72.169  36.4920  0.00  0.00     0.000 OA
ATOM     95   O  SGN B   5      75.523  71.251  36.2720  0.00  0.00     0.000 OA
ENDBRANCH 83 92
BRANCH 86 96
ATOM     96   C  SGN B   5      70.723  67.073  32.7350  0.00  0.00     0.000 C
ATOM     97   O  SGN B   5      69.539  67.547  33.3790  0.00  0.00     0.000 O
ATOM     98   S  SGN B   5      68.381  68.095  32.4150  0.00  0.00     0.000 S
ATOM     99   O  SGN B   5      67.278  68.297  33.3240  0.00  0.00     0.000 OA
ATOM    100   O  SGN B   5      68.864  69.278  31.7980  0.00  0.00     0.000 OA
ATOM    101   O  SGN B   5      68.161  67.034  31.4860  0.00  0.00     0.000 OA
ENDBRANCH 86 96
BRANCH 82 102
ATOM    102  O4  IDS B   6      74.256  69.217  32.6470  0.00  0.00     0.000 O
BRANCH 102 106
ATOM    103  C1  IDS B   6      76.877  69.665  30.1600  0.00  0.00     0.000 C
ATOM    104  C2  IDS B   6      76.204  70.878  30.8190  0.00  0.00     0.000 C
ATOM    105  C3  IDS B   6      74.689  70.824  30.8700  0.00  0.00     0.000 C
ATOM    106  C4  IDS B   6      74.163  69.443  31.2180  0.00  0.00     0.000 C
ATOM    107  C5  IDS B   6      74.950  68.380  30.4450  0.00  0.00     0.000 C
ATOM    108  O5  IDS B   6      76.353  68.466  30.7000  0.00  0.00     0.000 O
ATOM    109   O  IDS B   6      74.190  71.252  29.6140  0.00  0.00     0.000 O
ATOM    111  HD  IDS B   6      74.848  71.111  29.0690  0.00  0.00     0.000 HD
BRANCH 104 111
ATOM    111   O  IDS B   6      76.637  70.963  32.2230  0.00  0.00     0.000 O
ATOM    112   S  IDS B   6      77.669  72.118  32.6240  0.00  0.00     0.000 S
ATOM    113   O  IDS B   6      78.830  71.881  31.7800  0.00  0.00     0.000 OA
ATOM    114   O  IDS B   6      77.017  73.416  32.4180  0.00  0.00     0.000 OA
ATOM    115   O  IDS B   6      77.875  71.776  34.0150  0.00  0.00     0.000 OA
ENDBRANCH 104 111
BRANCH 107 116
ATOM    116   C  IDS B   6      74.439  66.997  30.8280  0.00  0.00     0.000 C
ATOM    117   O  IDS B   6      73.381  66.661  30.3590  0.00  0.00     0.000 OA
ATOM    118   O  IDS B   6      75.070  66.273  31.5810  0.00  0.00     0.000 OA
ENDBRANCH 107 116
BRANCH 103 119
ATOM    119  O4  SGN B   7      76.797  69.935  28.8320  0.00  0.00     0.000 O
BRANCH 119 123
ATOM    120  C1  SGN B   7      79.188  69.321  25.4560  0.00  0.00     0.000 C
ATOM    121  C2  SGN B   7      78.454  68.100  26.0420  0.00  0.00     0.000 C
ATOM    122  C3  SGN B   7      77.335  68.549  26.9910  0.00  0.00     0.000 C
ATOM    123  C4  SGN B   7      77.900  69.491  28.0410  0.00  0.00     0.000 C
ATOM    124  C5  SGN B   7      78.615  70.668  27.3580  0.00  0.00     0.000 C
ATOM    125  O5  SGN B   7      79.660  70.199  26.4760  0.00  0.00     0.000 O
ATOM    126   O  SGN B   7      76.741  67.393  27.5910  0.00  0.00     0.000 O
ATOM    128  HD  SGN B   7      77.275  67.718  26.9920  0.00  0.00     0.000 HD
BRANCH 121 130
ATOM    128   N  SGN B   7      79.287  67.067  25.4210  0.00  0.00     0.000 N
ATOM    130  HD  SGN B   7      78.963  66.472  25.9600  0.00  0.00     0.000 HD
ATOM    130   S  SGN B   7      78.673  65.934  24.4550  0.00  0.00     0.000 S
ATOM    131   O  SGN B   7      77.889  66.643  23.5020  0.00  0.00     0.000 OA
ATOM    132   O  SGN B   7      79.730  65.091  24.0280  0.00  0.00     0.000 OA
ATOM    133   O  SGN B   7      77.878  65.076  25.4970  0.00  0.00     0.000 OA
ENDBRANCH 121 130
BRANCH 124 134
ATOM    134   C  SGN B   7      79.308  71.595  28.3130  0.00  0.00     0.000 C
ATOM    135   O  SGN B   7      80.568  71.985  27.7410  0.00  0.00     0.000 O
ATOM    136   S  SGN B   7      81.382  73.079  28.5200  0.00  0.00     0.000 S
ATOM    137   O  SGN B   7      82.636  73.226  27.8220  0.00  0.00     0.000 OA
ATOM    138   O  SGN B   7      81.538  72.553  29.8570  0.00  0.00     0.000 OA
ATOM    139   O  SGN B   7      80.512  74.241  28.4270  0.00  0.00     0.000 OA
ENDBRANCH 124 134
BRANCH 120 140
ATOM    140  O4  IDS B   8      78.714  70.233  24.5990  0.00  0.00     0.000 O
BRANCH 140 144
ATOM    141  C1  IDS B   8      76.403  72.561  23.1170  0.00  0.00     0.000 C
ATOM    142  C2  IDS B   8      75.905  71.221  23.7290  0.00  0.00     0.000 C
ATOM    143  C3  IDS B   8      76.717  70.002  23.2530  0.00  0.00     0.000 C
ATOM    144  C4  IDS B   8      78.220  70.279  23.2550  0.00  0.00     0.000 C
ATOM    145  C5  IDS B   8      78.505  71.655  22.6340  0.00  0.00     0.000 C
ATOM    146  O5  IDS B   8      77.805  72.694  23.3130  0.00  0.00     0.000 O
BRANCH 142 147
ATOM    147   O  IDS B   8      76.024  71.278  25.2100  0.00  0.00     0.000 O
ATOM    148   S  IDS B   8      74.740  71.624  26.1380  0.00  0.00     0.000 S
ATOM    149   O  IDS B   8      73.727  72.204  25.2870  0.00  0.00     0.000 OA
ATOM    150   O  IDS B   8      74.329  70.359  26.7180  0.00  0.00     0.000 OA
ATOM    151   O  IDS B   8      75.226  72.571  27.1240  0.00  0.00     0.000 OA
ENDBRANCH 142 147
BRANCH 145 152
ATOM    152   C  IDS B   8      79.972  72.030  22.6970  0.00  0.00     0.000 C
ATOM    153   O  IDS B   8      80.804  71.308  22.1590  0.00  0.00     0.000 OA
ATOM    154   O  IDS B   8      80.307  73.055  23.2620  0.00  0.00     0.000 OA
ENDBRANCH 145 152
ENDBRANCH 140 144
ENDBRANCH 120 140
ENDBRANCH 119 123
ENDBRANCH 103 119
ENDBRANCH 102 106
ENDBRANCH 82 102
ENDBRANCH 81 85
ENDBRANCH 65 81
ENDBRANCH 64 68
ENDBRANCH 41 64
ENDBRANCH 40 44
ENDBRANCH 24 40
ENDBRANCH 23 27
ENDBRANCH 1 23
TORSDOF 31
ENDMDL
MODEL 80
REMARK VINA RESULT:      -1.2     82.663     89.347
ROOT
ATOM      1  C1  SGN B   1      60.297  58.095  88.1430  0.00  0.00     0.000 C
ATOM      2  C2  SGN B   1      60.596  59.028  89.3280  0.00  0.00     0.000 C
ATOM      3  C3  SGN B   1      62.074  58.947  89.7240  0.00  0.00     0.000 C
ATOM      4  C4  SGN B   1      62.461  57.503  90.0230  0.00  0.00     0.000 C
ATOM      5  C5  SGN B   1      62.007  56.614  88.8670  0.00  0.00     0.000 C
ATOM      6  O5  SGN B   1      60.596  56.798  88.6430  0.00  0.00     0.000 O
ATOM      7   O  SGN B   1      62.337  59.778  90.8480  0.00  0.00     0.000 O
ATOM      9  HD  SGN B   1      61.758  59.221  91.1720  0.00  0.00     0.000 HD
ATOM      9   O  SGN B   1      63.864  57.415  90.1850  0.00  0.00     0.000 O
ATOM     11  HD  SGN B   1      63.285  56.858  90.5090  0.00  0.00     0.000 HD
ENDROOT
BRANCH 2 13
ATOM     11   N  SGN B   1      59.299  59.668  89.6200  0.00  0.00     0.000 N
ATOM     13  HD  SGN B   1      59.606  59.646  88.8110  0.00  0.00     0.000 HD
ATOM     13   S  SGN B   1      58.717  60.875  88.7290  0.00  0.00     0.000 S
ATOM     14   O  SGN B   1      59.590  61.152  87.6570  0.00  0.00     0.000 OA
ATOM     15   O  SGN B   1      57.342  60.615  88.4630  0.00  0.00     0.000 OA
ATOM     16   O  SGN B   1      58.771  61.997  89.8110  0.00  0.00     0.000 OA
ENDBRANCH 2 13
BRANCH 5 17
ATOM     17   C  SGN B   1      62.237  55.141  89.0970  0.00  0.00     0.000 C
ATOM     18   O  SGN B   1      61.917  54.776  90.4550  0.00  0.00     0.000 O
ATOM     19   S  SGN B   1      62.974  53.832  91.1950  0.00  0.00     0.000 S
ATOM     20   O  SGN B   1      62.322  53.428  92.4230  0.00  0.00     0.000 OA
ATOM     21   O  SGN B   1      63.185  52.745  90.2680  0.00  0.00     0.000 OA
ATOM     22   O  SGN B   1      64.140  54.662  91.4040  0.00  0.00     0.000 OA
ENDBRANCH 5 17
BRANCH 1 23
ATOM     23  O4  IDS B   2      60.279  58.096  86.7800  0.00  0.00     0.000 O
BRANCH 23 27
ATOM     24  C1  IDS B   2      64.002  57.334  85.1080  0.00  0.00     0.000 C
ATOM     25  C2  IDS B   2      63.656  58.825  85.3140  0.00  0.00     0.000 C
ATOM     26  C3  IDS B   2      62.418  58.982  86.1940  0.00  0.00     0.000 C
ATOM     27  C4  IDS B   2      61.207  58.214  85.6810  0.00  0.00     0.000 C
ATOM     28  C5  IDS B   2      61.654  56.868  85.0760  0.00  0.00     0.000 C
ATOM     29  O5  IDS B   2      62.934  56.492  85.5640  0.00  0.00     0.000 O
ATOM     30   O  IDS B   2      62.060  60.357  86.2570  0.00  0.00     0.000 O
ATOM     32  HD  IDS B   2      61.633  60.632  85.5550  0.00  0.00     0.000 HD
BRANCH 25 32
ATOM     32   O  IDS B   2      64.762  59.573  85.9600  0.00  0.00     0.000 O
ATOM     33   S  IDS B   2      65.528  60.823  85.2010  0.00  0.00     0.000 S
ATOM     34   O  IDS B   2      66.679  61.154  86.0270  0.00  0.00     0.000 OA
ATOM     35   O  IDS B   2      65.934  60.404  83.8670  0.00  0.00     0.000 OA
ATOM     36   O  IDS B   2      64.573  61.906  85.1720  0.00  0.00     0.000 OA
ENDBRANCH 25 32
BRANCH 28 37
ATOM     37   C  IDS B   2      60.705  55.661  85.2250  0.00  0.00     0.000 C
ATOM     38   O  IDS B   2      59.752  55.722  84.4840  0.00  0.00     0.000 OA
ATOM     39   O  IDS B   2      60.870  54.656  85.9590  0.00  0.00     0.000 OA
ENDBRANCH 28 37
BRANCH 24 40
ATOM     40  O4  SUS B   3      65.026  56.986  84.3020  0.00  0.00     0.000 O
BRANCH 40 44
ATOM     41  C1  SUS B   3      67.733  53.801  84.5740  0.00  0.00     0.000 C
ATOM     42  C2  SUS B   3      66.272  53.456  84.2210  0.00  0.00     0.000 C
ATOM     43  C3  SUS B   3      65.572  54.709  83.7010  0.00  0.00     0.000 C
ATOM     44  C4  SUS B   3      65.713  55.816  84.7340  0.00  0.00     0.000 C
ATOM     45  C5  SUS B   3      67.184  56.124  84.9240  0.00  0.00     0.000 C
ATOM     46  O5  SUS B   3      67.830  54.940  85.4360  0.00  0.00     0.000 O
BRANCH 42 49
ATOM     47   N  SUS B   3      66.015  52.362  83.2690  0.00  0.00     0.000 N
ATOM     49  HD  SUS B   3      65.390  52.497  82.6850  0.00  0.00     0.000 HD
ATOM     49   S  SUS B   3      65.724  50.965  83.9960  0.00  0.00     0.000 S
ATOM     50   O  SUS B   3      64.627  51.099  84.8710  0.00  0.00     0.000 OA
ATOM     51   O  SUS B   3      65.315  50.181  82.7230  0.00  0.00     0.000 OA
ATOM     52   O  SUS B   3      66.926  50.457  84.5290  0.00  0.00     0.000 OA
ENDBRANCH 42 49
BRANCH 43 53
ATOM     53   O  SUS B   3      64.145  54.385  83.5060  0.00  0.00     0.000 O
ATOM     54   S  SUS B   3      63.545  54.533  81.9830  0.00  0.00     0.000 S
ATOM     55   O  SUS B   3      64.108  53.453  81.1850  0.00  0.00     0.000 OA
ATOM     56   O  SUS B   3      62.106  54.440  82.1620  0.00  0.00     0.000 OA
ATOM     57   O  SUS B   3      63.982  55.842  81.4900  0.00  0.00     0.000 OA
ENDBRANCH 43 53
BRANCH 45 58
ATOM     58   C  SUS B   3      67.403  57.288  85.8660  0.00  0.00     0.000 C
ATOM     59   S  SUS B   3      67.557  57.885  88.3570  0.00  0.00     0.000 S
ATOM     60   O  SUS B   3      67.539  56.794  87.2100  0.00  0.00     0.000 O
ATOM     61   O  SUS B   3      66.171  58.273  88.5350  0.00  0.00     0.000 OA
ATOM     62   O  SUS B   3      68.062  57.108  89.4570  0.00  0.00     0.000 OA
ATOM     63   O  SUS B   3      68.421  58.911  87.8920  0.00  0.00     0.000 OA
ENDBRANCH 45 58
BRANCH 41 64
ATOM     64  O4  IDS B   4      68.569  53.847  83.4860  0.00  0.00     0.000 O
BRANCH 64 68
ATOM     65  C1  IDS B   4      71.211  52.561  81.3300  0.00  0.00     0.000 C
ATOM     66  C2  IDS B   4      70.263  51.594  82.0510  0.00  0.00     0.000 C
ATOM     67  C3  IDS B   4      70.044  51.909  83.5210  0.00  0.00     0.000 C
ATOM     68  C4  IDS B   4      69.908  53.396  83.7920  0.00  0.00     0.000 C
ATOM     69  C5  IDS B   4      70.996  54.128  82.9960  0.00  0.00     0.000 C
ATOM     70  O5  IDS B   4      70.799  53.889  81.6000  0.00  0.00     0.000 O
ATOM     71   O  IDS B   4      71.152  51.394  84.2300  0.00  0.00     0.000 O
ATOM     73  HD  IDS B   4      70.617  51.472  83.5530  0.00  0.00     0.000 HD
BRANCH 66 73
ATOM     73   O  IDS B   4      68.934  51.683  81.4300  0.00  0.00     0.000 O
ATOM     74   S  IDS B   4      68.404  50.407  80.5880  0.00  0.00     0.000 S
ATOM     75   O  IDS B   4      69.400  50.145  79.5710  0.00  0.00     0.000 OA
ATOM     76   O  IDS B   4      67.151  50.894  80.0700  0.00  0.00     0.000 OA
ATOM     77   O  IDS B   4      68.275  49.338  81.5490  0.00  0.00     0.000 OA
ENDBRANCH 66 73
BRANCH 69 78
ATOM     78   C  IDS B   4      71.134  55.606  83.3300  0.00  0.00     0.000 C
ATOM     79   O  IDS B   4      72.212  56.018  83.7560  0.00  0.00     0.000 OA
ATOM     80   O  IDS B   4      70.187  56.369  83.0620  0.00  0.00     0.000 OA
ENDBRANCH 69 78
BRANCH 65 81
ATOM     81  O4  SGN B   5      72.499  52.244  81.6360  0.00  0.00     0.000 O
BRANCH 81 85
ATOM     82  C1  SGN B   5      76.395  52.058  80.0790  0.00  0.00     0.000 C
ATOM     83  C2  SGN B   5      75.851  53.450  80.4330  0.00  0.00     0.000 C
ATOM     84  C3  SGN B   5      74.659  53.307  81.3890  0.00  0.00     0.000 C
ATOM     85  C4  SGN B   5      73.617  52.401  80.7580  0.00  0.00     0.000 C
ATOM     86  C5  SGN B   5      74.265  51.048  80.4760  0.00  0.00     0.000 C
ATOM     87  O5  SGN B   5      75.361  51.243  79.5610  0.00  0.00     0.000 O
ATOM     88   O  SGN B   5      74.118  54.579  81.6730  0.00  0.00     0.000 O
ATOM     90  HD  SGN B   5      74.637  54.126  82.1980  0.00  0.00     0.000 HD
BRANCH 83 92
ATOM     90   N  SGN B   5      77.225  53.756  79.9880  0.00  0.00     0.000 N
ATOM     92  HD  SGN B   5      77.431  53.300  79.2810  0.00  0.00     0.000 HD
ATOM     92   S  SGN B   5      77.683  55.286  79.9630  0.00  0.00     0.000 S
ATOM     93   O  SGN B   5      79.034  55.244  79.4890  0.00  0.00     0.000 OA
ATOM     94   O  SGN B   5      76.687  55.976  79.2170  0.00  0.00     0.000 OA
ATOM     95   O  SGN B   5      77.570  55.745  81.4000  0.00  0.00     0.000 OA
ENDBRANCH 83 92
BRANCH 86 96
ATOM     96   C  SGN B   5      73.332  50.031  79.8520  0.00  0.00     0.000 C
ATOM     97   O  SGN B   5      72.630  50.604  78.7470  0.00  0.00     0.000 O
ATOM     98   S  SGN B   5      72.668  49.772  77.3770  0.00  0.00     0.000 S
ATOM     99   O  SGN B   5      71.727  50.484  76.5460  0.00  0.00     0.000 OA
ATOM    100   O  SGN B   5      74.006  49.789  76.9060  0.00  0.00     0.000 OA
ATOM    101   O  SGN B   5      72.224  48.466  77.7430  0.00  0.00     0.000 OA
ENDBRANCH 86 96
BRANCH 82 102
ATOM    102  O4  IDS B   6      76.997  51.445  81.1380  0.00  0.00     0.000 O
BRANCH 102 106
ATOM    103  C1  IDS B   6      80.020  49.864  82.4100  0.00  0.00     0.000 C
ATOM    104  C2  IDS B   6      80.086  50.858  81.2390  0.00  0.00     0.000 C
ATOM    105  C3  IDS B   6      79.064  50.627  80.1430  0.00  0.00     0.000 C
ATOM    106  C4  IDS B   6      77.695  50.257  80.6860  0.00  0.00     0.000 C
ATOM    107  C5  IDS B   6      77.847  49.247  81.8270  0.00  0.00     0.000 C
ATOM    108  O5  IDS B   6      78.687  49.744  82.8700  0.00  0.00     0.000 O
ATOM    109   O  IDS B   6      79.557  49.611  79.2860  0.00  0.00     0.000 O
ATOM    111  HD  IDS B   6      80.120  49.176  79.7800  0.00  0.00     0.000 HD
BRANCH 104 111
ATOM    111   O  IDS B   6      79.815  52.212  81.7440  0.00  0.00     0.000 O
ATOM    112   S  IDS B   6      81.044  53.231  81.8650  0.00  0.00     0.000 S
ATOM    113   O  IDS B   6      81.983  52.568  82.7570  0.00  0.00     0.000 OA
ATOM    114   O  IDS B   6      81.561  53.495  80.5170  0.00  0.00     0.000 OA
ATOM    115   O  IDS B   6      80.358  54.355  82.4640  0.00  0.00     0.000 OA
ENDBRANCH 104 111
BRANCH 107 116
ATOM    116   C  IDS B   6      76.471  48.910  82.3880  0.00  0.00     0.000 C
ATOM    117   O  IDS B   6      76.191  49.387  83.4580  0.00  0.00     0.000 OA
ATOM    118   O  IDS B   6      75.699  48.183  81.7840  0.00  0.00     0.000 OA
ENDBRANCH 107 116
BRANCH 103 119
ATOM    119  O4  SGN B   7      80.711  48.787  81.9560  0.00  0.00     0.000 O
BRANCH 119 123
ATOM    120  C1  SGN B   7      83.268  45.910  83.5900  0.00  0.00     0.000 C
ATOM    121  C2  SGN B   7      81.764  45.784  83.8970  0.00  0.00     0.000 C
ATOM    122  C3  SGN B   7      80.943  46.641  82.9250  0.00  0.00     0.000 C
ATOM    123  C4  SGN B   7      81.457  48.071  82.9410  0.00  0.00     0.000 C
ATOM    124  C5  SGN B   7      82.963  48.088  82.6310  0.00  0.00     0.000 C
ATOM    125  O5  SGN B   7      83.696  47.271  83.5710  0.00  0.00     0.000 O
ATOM    126   O  SGN B   7      79.563  46.578  83.3000  0.00  0.00     0.000 O
ATOM    128  HD  SGN B   7      80.367  46.273  83.4010  0.00  0.00     0.000 HD
BRANCH 121 130
ATOM    128   N  SGN B   7      82.038  44.825  84.9700  0.00  0.00     0.000 N
ATOM    130  HD  SGN B   7      81.322  45.076  85.3870  0.00  0.00     0.000 HD
ATOM    130   S  SGN B   7      81.181  43.474  85.1550  0.00  0.00     0.000 S
ATOM    131   O  SGN B   7      81.170  42.862  83.8710  0.00  0.00     0.000 OA
ATOM    132   O  SGN B   7      81.689  42.773  86.2790  0.00  0.00     0.000 OA
ATOM    133   O  SGN B   7      79.818  44.071  85.6440  0.00  0.00     0.000 OA
ENDBRANCH 121 130
BRANCH 124 134
ATOM    134   C  SGN B   7      83.589  49.448  82.7370  0.00  0.00     0.000 C
ATOM    135   O  SGN B   7      84.875  49.312  83.3660  0.00  0.00     0.000 O
ATOM    136   S  SGN B   7      85.761  50.607  83.4320  0.00  0.00     0.000 S
ATOM    137   O  SGN B   7      86.939  50.254  84.1880  0.00  0.00     0.000 OA
ATOM    138   O  SGN B   7      84.940  51.595  84.0950  0.00  0.00     0.000 OA
ATOM    139   O  SGN B   7      86.019  50.882  82.0270  0.00  0.00     0.000 OA
ENDBRANCH 124 134
BRANCH 120 140
ATOM    140  O4  IDS B   8      83.928  45.468  82.5140  0.00  0.00     0.000 O
BRANCH 140 144
ATOM    141  C1  IDS B   8      84.591  44.783  79.0420  0.00  0.00     0.000 C
ATOM    142  C2  IDS B   8      83.153  44.660  79.6210  0.00  0.00     0.000 C
ATOM    143  C3  IDS B   8      83.095  43.845  80.9260  0.00  0.00     0.000 C
ATOM    144  C4  IDS B   8      84.226  44.216  81.8840  0.00  0.00     0.000 C
ATOM    145  C5  IDS B   8      85.556  44.312  81.1210  0.00  0.00     0.000 C
ATOM    146  O5  IDS B   8      85.482  45.248  80.0490  0.00  0.00     0.000 O
BRANCH 142 147
ATOM    147   O  IDS B   8      82.624  46.016  79.9260  0.00  0.00     0.000 O
ATOM    148   S  IDS B   8      81.637  46.780  78.8900  0.00  0.00     0.000 S
ATOM    149   O  IDS B   8      81.742  46.114  77.6110  0.00  0.00     0.000 OA
ATOM    150   O  IDS B   8      80.311  46.676  79.4700  0.00  0.00     0.000 OA
ATOM    151   O  IDS B   8      82.127  48.144  78.8310  0.00  0.00     0.000 OA
ENDBRANCH 142 147
BRANCH 145 152
ATOM    152   C  IDS B   8      86.701  44.774  82.0000  0.00  0.00     0.000 C
ATOM    153   O  IDS B   8      87.003  44.120  82.9920  0.00  0.00     0.000 OA
ATOM    154   O  IDS B   8      87.322  45.778  81.7010  0.00  0.00     0.000 OA
ENDBRANCH 145 152
ENDBRANCH 140 144
ENDBRANCH 120 140
ENDBRANCH 119 123
ENDBRANCH 103 119
ENDBRANCH 102 106
ENDBRANCH 82 102
ENDBRANCH 81 85
ENDBRANCH 65 81
ENDBRANCH 64 68
ENDBRANCH 41 64
ENDBRANCH 40 44
ENDBRANCH 24 40
ENDBRANCH 23 27
ENDBRANCH 1 23
TORSDOF 31
ENDMDL
MODEL 81
REMARK VINA RESULT:      -1.2     87.071     94.217
ROOT
ATOM      1  C1  SGN B   1      57.672  67.977  92.9170  0.00  0.00     0.000 C
ATOM      2  C2  SGN B   1      57.880  66.490  92.5850  0.00  0.00     0.000 C
ATOM      3  C3  SGN B   1      58.267  66.312  91.1130  0.00  0.00     0.000 C
ATOM      4  C4  SGN B   1      57.220  66.957  90.2110  0.00  0.00     0.000 C
ATOM      5  C5  SGN B   1      56.962  68.384  90.6870  0.00  0.00     0.000 C
ATOM      6  O5  SGN B   1      56.592  68.368  92.0790  0.00  0.00     0.000 O
ATOM      7   O  SGN B   1      58.415  64.932  90.7980  0.00  0.00     0.000 O
ATOM      9  HD  SGN B   1      57.584  64.969  91.0390  0.00  0.00     0.000 HD
ATOM      9   O  SGN B   1      57.690  66.965  88.8750  0.00  0.00     0.000 O
ATOM     11  HD  SGN B   1      56.859  67.002  89.1160  0.00  0.00     0.000 HD
ENDROOT
BRANCH 2 13
ATOM     11   N  SGN B   1      57.630  65.796  93.8620  0.00  0.00     0.000 N
ATOM     13  HD  SGN B   1      58.165  66.476  93.8280  0.00  0.00     0.000 HD
ATOM     13   S  SGN B   1      58.720  65.754  95.0450  0.00  0.00     0.000 S
ATOM     14   O  SGN B   1      59.861  66.499  94.6810  0.00  0.00     0.000 OA
ATOM     15   O  SGN B   1      58.061  66.039  96.2750  0.00  0.00     0.000 OA
ATOM     16   O  SGN B   1      59.013  64.222  95.0240  0.00  0.00     0.000 OA
ENDBRANCH 2 13
BRANCH 5 17
ATOM     17   C  SGN B   1      55.861  69.092  89.9380  0.00  0.00     0.000 C
ATOM     18   O  SGN B   1      54.754  68.204  89.6890  0.00  0.00     0.000 O
ATOM     19   S  SGN B   1      54.144  68.239  88.2110  0.00  0.00     0.000 S
ATOM     20   O  SGN B   1      52.928  67.457  88.2880  0.00  0.00     0.000 OA
ATOM     21   O  SGN B   1      53.913  69.643  87.9590  0.00  0.00     0.000 OA
ATOM     22   O  SGN B   1      55.161  67.650  87.3680  0.00  0.00     0.000 OA
ENDBRANCH 5 17
BRANCH 1 23
ATOM     23  O4  IDS B   2      58.367  69.066  93.3520  0.00  0.00     0.000 O
BRANCH 23 27
ATOM     24  C1  IDS B   2      60.308  71.070  90.2780  0.00  0.00     0.000 C
ATOM     25  C2  IDS B   2      61.150  70.007  91.0180  0.00  0.00     0.000 C
ATOM     26  C3  IDS B   2      60.269  69.136  91.9100  0.00  0.00     0.000 C
ATOM     27  C4  IDS B   2      59.424  69.934  92.8940  0.00  0.00     0.000 C
ATOM     28  C5  IDS B   2      58.936  71.239  92.2320  0.00  0.00     0.000 C
ATOM     29  O5  IDS B   2      58.981  71.138  90.8170  0.00  0.00     0.000 O
ATOM     30   O  IDS B   2      61.093  68.256  92.6660  0.00  0.00     0.000 O
ATOM     32  HD  IDS B   2      61.461  68.637  93.3510  0.00  0.00     0.000 HD
BRANCH 25 32
ATOM     32   O  IDS B   2      61.867  69.107  90.0810  0.00  0.00     0.000 O
ATOM     33   S  IDS B   2      63.515  69.027  90.0390  0.00  0.00     0.000 S
ATOM     34   O  IDS B   2      63.851  68.230  88.8700  0.00  0.00     0.000 OA
ATOM     35   O  IDS B   2      64.063  70.372  89.9410  0.00  0.00     0.000 OA
ATOM     36   O  IDS B   2      63.904  68.361  91.2600  0.00  0.00     0.000 OA
ENDBRANCH 25 32
BRANCH 28 37
ATOM     37   C  IDS B   2      57.548  71.777  92.6370  0.00  0.00     0.000 C
ATOM     38   O  IDS B   2      56.811  71.928  91.6910  0.00  0.00     0.000 OA
ATOM     39   O  IDS B   2      57.132  71.992  93.8010  0.00  0.00     0.000 OA
ENDBRANCH 28 37
BRANCH 24 40
ATOM     40  O4  SUS B   3      60.916  71.982  89.4910  0.00  0.00     0.000 O
BRANCH 40 44
ATOM     41  C1  SUS B   3      59.628  73.792  85.9400  0.00  0.00     0.000 C
ATOM     42  C2  SUS B   3      58.900  74.190  87.2390  0.00  0.00     0.000 C
ATOM     43  C3  SUS B   3      59.776  73.834  88.4370  0.00  0.00     0.000 C
ATOM     44  C4  SUS B   3      60.140  72.359  88.3600  0.00  0.00     0.000 C
ATOM     45  C5  SUS B   3      60.928  72.115  87.0890  0.00  0.00     0.000 C
ATOM     46  O5  SUS B   3      60.082  72.434  85.9660  0.00  0.00     0.000 O
BRANCH 42 49
ATOM     47   N  SUS B   3      57.683  74.484  86.4620  0.00  0.00     0.000 N
ATOM     49  HD  SUS B   3      57.778  74.547  85.6030  0.00  0.00     0.000 HD
ATOM     49   S  SUS B   3      56.924  75.798  86.9760  0.00  0.00     0.000 S
ATOM     50   O  SUS B   3      57.796  76.905  86.9280  0.00  0.00     0.000 OA
ATOM     51   O  SUS B   3      55.888  75.869  85.8250  0.00  0.00     0.000 OA
ATOM     52   O  SUS B   3      56.288  75.521  88.2020  0.00  0.00     0.000 OA
ENDBRANCH 42 49
BRANCH 43 53
ATOM     53   O  SUS B   3      58.998  74.095  89.6640  0.00  0.00     0.000 O
ATOM     54   S  SUS B   3      59.534  75.296  90.6500  0.00  0.00     0.000 S
ATOM     55   O  SUS B   3      59.278  76.561  89.9760  0.00  0.00     0.000 OA
ATOM     56   O  SUS B   3      58.768  75.117  91.8700  0.00  0.00     0.000 OA
ATOM     57   O  SUS B   3      60.971  75.073  90.8320  0.00  0.00     0.000 OA
ENDBRANCH 43 53
BRANCH 45 58
ATOM     58   C  SUS B   3      61.413  70.685  86.9890  0.00  0.00     0.000 C
ATOM     59   S  SUS B   3      60.675  68.333  86.2750  0.00  0.00     0.000 S
ATOM     60   O  SUS B   3      60.437  69.899  86.2850  0.00  0.00     0.000 O
ATOM     61   O  SUS B   3      60.245  67.876  87.5820  0.00  0.00     0.000 OA
ATOM     62   O  SUS B   3      59.778  67.934  85.2230  0.00  0.00     0.000 OA
ATOM     63   O  SUS B   3      62.056  68.161  85.9940  0.00  0.00     0.000 OA
ENDBRANCH 45 58
BRANCH 41 64
ATOM     64  O4  IDS B   4      60.583  74.696  85.5420  0.00  0.00     0.000 O
BRANCH 64 68
ATOM     65  C1  IDS B   4      62.340  77.079  83.4180  0.00  0.00     0.000 C
ATOM     66  C2  IDS B   4      60.844  77.258  83.7070  0.00  0.00     0.000 C
ATOM     67  C3  IDS B   4      60.019  75.990  83.5590  0.00  0.00     0.000 C
ATOM     68  C4  IDS B   4      60.722  74.762  84.1050  0.00  0.00     0.000 C
ATOM     69  C5  IDS B   4      62.182  74.798  83.6340  0.00  0.00     0.000 C
ATOM     70  O5  IDS B   4      62.817  75.968  84.1560  0.00  0.00     0.000 O
ATOM     71   O  IDS B   4      59.760  75.818  82.1810  0.00  0.00     0.000 O
ATOM     73  HD  IDS B   4      59.988  76.260  82.8900  0.00  0.00     0.000 HD
BRANCH 66 73
ATOM     73   O  IDS B   4      60.679  77.670  85.1080  0.00  0.00     0.000 O
ATOM     74   S  IDS B   4      60.206  79.189  85.4010  0.00  0.00     0.000 S
ATOM     75   O  IDS B   4      61.170  80.051  84.7510  0.00  0.00     0.000 OA
ATOM     76   O  IDS B   4      60.249  79.240  86.8410  0.00  0.00     0.000 OA
ATOM     77   O  IDS B   4      58.879  79.294  84.8430  0.00  0.00     0.000 OA
ENDBRANCH 66 73
BRANCH 69 78
ATOM     78   C  IDS B   4      62.966  73.523  83.9160  0.00  0.00     0.000 C
ATOM     79   O  IDS B   4      62.391  72.441  83.8110  0.00  0.00     0.000 OA
ATOM     80   O  IDS B   4      64.187  73.612  84.1390  0.00  0.00     0.000 OA
ENDBRANCH 69 78
BRANCH 65 81
ATOM     81  O4  SGN B   5      62.541  77.053  82.0710  0.00  0.00     0.000 O
BRANCH 81 85
ATOM     82  C1  SGN B   5      65.199  78.178  79.0210  0.00  0.00     0.000 C
ATOM     83  C2  SGN B   5      65.668  77.077  79.9840  0.00  0.00     0.000 C
ATOM     84  C3  SGN B   5      64.454  76.476  80.7060  0.00  0.00     0.000 C
ATOM     85  C4  SGN B   5      63.683  77.587  81.3990  0.00  0.00     0.000 C
ATOM     86  C5  SGN B   5      63.253  78.602  80.3430  0.00  0.00     0.000 C
ATOM     87  O5  SGN B   5      64.431  79.143  79.7150  0.00  0.00     0.000 O
ATOM     88   O  SGN B   5      64.882  75.503  81.6340  0.00  0.00     0.000 O
ATOM     90  HD  SGN B   5      64.542  75.339  80.8550  0.00  0.00     0.000 HD
BRANCH 83 92
ATOM     90   N  SGN B   5      66.796  77.165  79.0370  0.00  0.00     0.000 N
ATOM     92  HD  SGN B   5      66.985  77.990  78.8540  0.00  0.00     0.000 HD
ATOM     92   S  SGN B   5      68.061  76.220  79.2860  0.00  0.00     0.000 S
ATOM     93   O  SGN B   5      68.962  76.545  78.2220  0.00  0.00     0.000 OA
ATOM     94   O  SGN B   5      68.446  76.440  80.6380  0.00  0.00     0.000 OA
ATOM     95   O  SGN B   5      67.514  74.812  79.1960  0.00  0.00     0.000 OA
ENDBRANCH 83 92
BRANCH 86 96
ATOM     96   C  SGN B   5      62.458  79.769  80.8920  0.00  0.00     0.000 C
ATOM     97   O  SGN B   5      63.096  80.310  82.0520  0.00  0.00     0.000 O
ATOM     98   S  SGN B   5      63.330  81.896  82.0540  0.00  0.00     0.000 S
ATOM     99   O  SGN B   5      63.785  82.148  83.4000  0.00  0.00     0.000 OA
ATOM    100   O  SGN B   5      64.282  82.187  81.0430  0.00  0.00     0.000 OA
ATOM    101   O  SGN B   5      62.042  82.445  81.7800  0.00  0.00     0.000 OA
ENDBRANCH 86 96
BRANCH 82 102
ATOM    102  O4  IDS B   6      64.497  77.685  77.9620  0.00  0.00     0.000 O
BRANCH 102 106
ATOM    103  C1  IDS B   6      64.222  77.484  74.3370  0.00  0.00     0.000 C
ATOM    104  C2  IDS B   6      65.569  77.797  75.0070  0.00  0.00     0.000 C
ATOM    105  C3  IDS B   6      65.518  78.858  76.0880  0.00  0.00     0.000 C
ATOM    106  C4  IDS B   6      64.294  78.731  76.9780  0.00  0.00     0.000 C
ATOM    107  C5  IDS B   6      63.060  78.440  76.1200  0.00  0.00     0.000 C
ATOM    108  O5  IDS B   6      63.229  77.268  75.3220  0.00  0.00     0.000 O
ATOM    109   O  IDS B   6      65.556  80.130  75.4610  0.00  0.00     0.000 O
ATOM    111  HD  IDS B   6      65.267  79.975  74.6590  0.00  0.00     0.000 HD
BRANCH 104 111
ATOM    111   O  IDS B   6      66.064  76.584  75.6760  0.00  0.00     0.000 O
ATOM    112   S  IDS B   6      67.285  75.797  75.0020  0.00  0.00     0.000 S
ATOM    113   O  IDS B   6      66.806  75.448  73.6740  0.00  0.00     0.000 OA
ATOM    114   O  IDS B   6      68.465  76.669  75.0180  0.00  0.00     0.000 OA
ATOM    115   O  IDS B   6      67.369  74.674  75.9100  0.00  0.00     0.000 OA
ENDBRANCH 104 111
BRANCH 107 116
ATOM    116   C  IDS B   6      61.844  78.279  77.0240  0.00  0.00     0.000 C
ATOM    117   O  IDS B   6      61.431  77.158  77.1820  0.00  0.00     0.000 OA
ATOM    118   O  IDS B   6      61.313  79.243  77.5530  0.00  0.00     0.000 OA
ENDBRANCH 107 116
BRANCH 103 119
ATOM    119  O4  SGN B   7      64.092  78.464  73.4060  0.00  0.00     0.000 O
BRANCH 119 123
ATOM    120  C1  SGN B   7      62.543  78.790  69.5350  0.00  0.00     0.000 C
ATOM    121  C2  SGN B   7      61.539  78.684  70.6980  0.00  0.00     0.000 C
ATOM    122  C3  SGN B   7      62.232  78.977  72.0350  0.00  0.00     0.000 C
ATOM    123  C4  SGN B   7      63.449  78.081  72.1890  0.00  0.00     0.000 C
ATOM    124  C5  SGN B   7      64.382  78.253  70.9800  0.00  0.00     0.000 C
ATOM    125  O5  SGN B   7      63.689  77.967  69.7440  0.00  0.00     0.000 O
ATOM    126   O  SGN B   7      61.296  78.774  73.1000  0.00  0.00     0.000 O
ATOM    128  HD  SGN B   7      61.438  78.844  72.2480  0.00  0.00     0.000 HD
BRANCH 121 130
ATOM    128   N  SGN B   7      60.380  78.263  69.9060  0.00  0.00     0.000 N
ATOM    130  HD  SGN B   7      59.966  78.022  70.6270  0.00  0.00     0.000 HD
ATOM    130   S  SGN B   7      59.005  79.100  69.8840  0.00  0.00     0.000 S
ATOM    131   O  SGN B   7      59.389  80.442  69.6090  0.00  0.00     0.000 OA
ATOM    132   O  SGN B   7      58.088  78.429  69.0350  0.00  0.00     0.000 OA
ATOM    133   O  SGN B   7      58.481  78.818  71.3330  0.00  0.00     0.000 OA
ENDBRANCH 121 130
BRANCH 124 134
ATOM    134   C  SGN B   7      65.559  77.323  70.9830  0.00  0.00     0.000 C
ATOM    135   O  SGN B   7      65.784  76.864  69.6390  0.00  0.00     0.000 O
ATOM    136   S  SGN B   7      67.071  75.996  69.4020  0.00  0.00     0.000 S
ATOM    137   O  SGN B   7      67.026  75.571  68.0230  0.00  0.00     0.000 OA
ATOM    138   O  SGN B   7      66.963  74.897  70.3350  0.00  0.00     0.000 OA
ATOM    139   O  SGN B   7      68.141  76.935  69.6980  0.00  0.00     0.000 OA
ENDBRANCH 124 134
BRANCH 120 140
ATOM    140  O4  IDS B   8      63.154  79.886  69.0720  0.00  0.00     0.000 O
BRANCH 140 144
ATOM    141  C1  IDS B   8      64.911  83.028  69.1370  0.00  0.00     0.000 C
ATOM    142  C2  IDS B   8      63.805  82.708  70.1830  0.00  0.00     0.000 C
ATOM    143  C3  IDS B   8      62.511  82.169  69.5470  0.00  0.00     0.000 C
ATOM    144  C4  IDS B   8      62.795  81.132  68.4610  0.00  0.00     0.000 C
ATOM    145  C5  IDS B   8      63.930  81.618  67.5480  0.00  0.00     0.000 C
ATOM    146  O5  IDS B   8      65.114  81.906  68.2870  0.00  0.00     0.000 O
BRANCH 142 147
ATOM    147   O  IDS B   8      64.299  81.669  71.1250  0.00  0.00     0.000 O
ATOM    148   S  IDS B   8      64.887  82.073  72.5810  0.00  0.00     0.000 S
ATOM    149   O  IDS B   8      65.177  83.489  72.5600  0.00  0.00     0.000 OA
ATOM    150   O  IDS B   8      63.845  81.727  73.5290  0.00  0.00     0.000 OA
ATOM    151   O  IDS B   8      66.089  81.277  72.7410  0.00  0.00     0.000 OA
ENDBRANCH 142 147
BRANCH 145 152
ATOM    152   C  IDS B   8      64.326  80.588  66.5100  0.00  0.00     0.000 C
ATOM    153   O  IDS B   8      65.472  80.155  66.4940  0.00  0.00     0.000 OA
ATOM    154   O  IDS B   8      63.495  80.186  65.7140  0.00  0.00     0.000 OA
ENDBRANCH 145 152
ENDBRANCH 140 144
ENDBRANCH 120 140
ENDBRANCH 119 123
ENDBRANCH 103 119
ENDBRANCH 102 106
ENDBRANCH 82 102
ENDBRANCH 81 85
ENDBRANCH 65 81
ENDBRANCH 64 68
ENDBRANCH 41 64
ENDBRANCH 40 44
ENDBRANCH 24 40
ENDBRANCH 23 27
ENDBRANCH 1 23
TORSDOF 31
ENDMDL
MODEL 82
REMARK VINA RESULT:      -1.2     61.124     66.438
ROOT
ATOM      1  C1  SGN B   1      79.568  50.938   8.2650  0.00  0.00     0.000 C
ATOM      2  C2  SGN B   1      79.105  49.694   9.0400  0.00  0.00     0.000 C
ATOM      3  C3  SGN B   1      77.922  50.033   9.9540  0.00  0.00     0.000 C
ATOM      4  C4  SGN B   1      78.289  51.182  10.8860  0.00  0.00     0.000 C
ATOM      5  C5  SGN B   1      78.873  52.327  10.0610  0.00  0.00     0.000 C
ATOM      6  O5  SGN B   1      79.982  51.842   9.2810  0.00  0.00     0.000 O
ATOM      7   O  SGN B   1      77.525  48.890  10.7030  0.00  0.00     0.000 O
ATOM      9  HD  SGN B   1      78.341  49.001  10.9700  0.00  0.00     0.000 HD
ATOM      9   O  SGN B   1      77.132  51.617  11.5760  0.00  0.00     0.000 O
ATOM     11  HD  SGN B   1      77.948  51.729  11.8440  0.00  0.00     0.000 HD
ENDROOT
BRANCH 2 13
ATOM     11   N  SGN B   1      80.022  48.644   8.5590  0.00  0.00     0.000 N
ATOM     13  HD  SGN B   1      79.583  49.136   7.9970  0.00  0.00     0.000 HD
ATOM     13   S  SGN B   1      79.806  47.893   7.1520  0.00  0.00     0.000 S
ATOM     14   O  SGN B   1      78.684  48.427   6.4840  0.00  0.00     0.000 OA
ATOM     15   O  SGN B   1      81.059  47.832   6.4770  0.00  0.00     0.000 OA
ATOM     16   O  SGN B   1      79.510  46.465   7.7040  0.00  0.00     0.000 OA
ENDBRANCH 2 13
BRANCH 5 17
ATOM     17   C  SGN B   1      79.377  53.485  10.8880  0.00  0.00     0.000 C
ATOM     18   O  SGN B   1      80.066  53.016  12.0640  0.00  0.00     0.000 O
ATOM     19   S  SGN B   1      79.701  53.757  13.4330  0.00  0.00     0.000 S
ATOM     20   O  SGN B   1      80.675  53.278  14.3910  0.00  0.00     0.000 OA
ATOM     21   O  SGN B   1      79.839  55.161  13.1210  0.00  0.00     0.000 OA
ATOM     22   O  SGN B   1      78.345  53.352  13.7320  0.00  0.00     0.000 OA
ENDBRANCH 5 17
BRANCH 1 23
ATOM     23  O4  IDS B   2      79.332  51.599   7.0950  0.00  0.00     0.000 O
BRANCH 23 27
ATOM     24  C1  IDS B   2      76.118  54.216   7.3280  0.00  0.00     0.000 C
ATOM     25  C2  IDS B   2      75.785  52.793   6.8280  0.00  0.00     0.000 C
ATOM     26  C3  IDS B   2      76.957  51.843   7.0620  0.00  0.00     0.000 C
ATOM     27  C4  IDS B   2      78.266  52.334   6.4580  0.00  0.00     0.000 C
ATOM     28  C5  IDS B   2      78.372  53.866   6.6040  0.00  0.00     0.000 C
ATOM     29  O5  IDS B   2      77.514  54.338   7.6310  0.00  0.00     0.000 O
ATOM     30   O  IDS B   2      76.661  50.581   6.4770  0.00  0.00     0.000 O
ATOM     32  HD  IDS B   2      76.780  50.565   5.6190  0.00  0.00     0.000 HD
BRANCH 25 32
ATOM     32   O  IDS B   2      74.600  52.220   7.5120  0.00  0.00     0.000 O
ATOM     33   S  IDS B   2      73.228  51.815   6.6890  0.00  0.00     0.000 S
ATOM     34   O  IDS B   2      72.226  51.508   7.6970  0.00  0.00     0.000 OA
ATOM     35   O  IDS B   2      72.817  52.934   5.8530  0.00  0.00     0.000 OA
ATOM     36   O  IDS B   2      73.570  50.645   5.9130  0.00  0.00     0.000 OA
ENDBRANCH 25 32
BRANCH 28 37
ATOM     37   C  IDS B   2      79.773  54.473   6.8230  0.00  0.00     0.000 C
ATOM     38   O  IDS B   2      80.434  54.500   5.8120  0.00  0.00     0.000 OA
ATOM     39   O  IDS B   2      80.223  54.969   7.8850  0.00  0.00     0.000 OA
ENDBRANCH 28 37
BRANCH 24 40
ATOM     40  O4  SUS B   3      75.231  55.217   7.1480  0.00  0.00     0.000 O
BRANCH 40 44
ATOM     41  C1  SUS B   3      74.358  58.534   9.5520  0.00  0.00     0.000 C
ATOM     42  C2  SUS B   3      75.724  58.522   8.8370  0.00  0.00     0.000 C
ATOM     43  C3  SUS B   3      75.674  57.534   7.6740  0.00  0.00     0.000 C
ATOM     44  C4  SUS B   3      75.240  56.175   8.2010  0.00  0.00     0.000 C
ATOM     45  C5  SUS B   3      73.851  56.300   8.7940  0.00  0.00     0.000 C
ATOM     46  O5  SUS B   3      73.917  57.218   9.9040  0.00  0.00     0.000 O
BRANCH 42 49
ATOM     47   N  SUS B   3      76.021  59.934   8.5440  0.00  0.00     0.000 N
ATOM     49  HD  SUS B   3      76.127  60.142   7.7100  0.00  0.00     0.000 HD
ATOM     49   S  SUS B   3      77.287  60.482   9.3580  0.00  0.00     0.000 S
ATOM     50   O  SUS B   3      78.419  59.691   9.0740  0.00  0.00     0.000 OA
ATOM     51   O  SUS B   3      77.383  61.852   8.6400  0.00  0.00     0.000 OA
ATOM     52   O  SUS B   3      76.933  60.653  10.7110  0.00  0.00     0.000 OA
ENDBRANCH 42 49
BRANCH 43 53
ATOM     53   O  SUS B   3      77.030  57.439   7.0990  0.00  0.00     0.000 O
ATOM     54   S  SUS B   3      77.253  58.069   5.5970  0.00  0.00     0.000 S
ATOM     55   O  SUS B   3      77.186  59.519   5.7180  0.00  0.00     0.000 OA
ATOM     56   O  SUS B   3      78.558  57.574   5.1980  0.00  0.00     0.000 OA
ATOM     57   O  SUS B   3      76.161  57.555   4.7650  0.00  0.00     0.000 OA
ENDBRANCH 43 53
BRANCH 45 58
ATOM     58   C  SUS B   3      73.308  54.964   9.2510  0.00  0.00     0.000 C
ATOM     59   S  SUS B   3      73.349  53.319  11.2200  0.00  0.00     0.000 S
ATOM     60   O  SUS B   3      73.648  54.759  10.6320  0.00  0.00     0.000 O
ATOM     61   O  SUS B   3      74.423  52.478  10.7280  0.00  0.00     0.000 OA
ATOM     62   O  SUS B   3      73.449  53.580  12.6310  0.00  0.00     0.000 OA
ATOM     63   O  SUS B   3      72.050  52.982  10.7550  0.00  0.00     0.000 OA
ENDBRANCH 45 58
BRANCH 41 64
ATOM     64  O4  IDS B   4      73.407  59.294   8.9160  0.00  0.00     0.000 O
BRANCH 64 68
ATOM     65  C1  IDS B   4      70.717  61.707   8.4530  0.00  0.00     0.000 C
ATOM     66  C2  IDS B   4      72.022  62.128   9.1400  0.00  0.00     0.000 C
ATOM     67  C3  IDS B   4      72.513  61.158  10.2020  0.00  0.00     0.000 C
ATOM     68  C4  IDS B   4      72.341  59.706   9.7990  0.00  0.00     0.000 C
ATOM     69  C5  IDS B   4      70.943  59.543   9.1870  0.00  0.00     0.000 C
ATOM     70  O5  IDS B   4      70.842  60.364   8.0210  0.00  0.00     0.000 O
ATOM     71   O  IDS B   4      71.778  61.418  11.3800  0.00  0.00     0.000 O
ATOM     73  HD  IDS B   4      72.091  61.595  10.5920  0.00  0.00     0.000 HD
BRANCH 66 73
ATOM     73   O  IDS B   4      73.092  62.181   8.1340  0.00  0.00     0.000 O
ATOM     74   S  IDS B   4      73.987  63.525   8.0490  0.00  0.00     0.000 S
ATOM     75   O  IDS B   4      73.064  64.619   7.8350  0.00  0.00     0.000 OA
ATOM     76   O  IDS B   4      74.836  63.244   6.9190  0.00  0.00     0.000 OA
ATOM     77   O  IDS B   4      74.684  63.604   9.3100  0.00  0.00     0.000 OA
ENDBRANCH 66 73
BRANCH 69 78
ATOM     78   C  IDS B   4      70.532  58.099   8.9320  0.00  0.00     0.000 C
ATOM     79   O  IDS B   4      70.344  57.734   7.7720  0.00  0.00     0.000 OA
ATOM     80   O  IDS B   4      70.502  57.310   9.8940  0.00  0.00     0.000 OA
ENDBRANCH 69 78
BRANCH 65 81
ATOM     81  O4  SGN B   5      69.664  61.995   9.2660  0.00  0.00     0.000 O
BRANCH 81 85
ATOM     82  C1  SGN B   5      65.698  63.378   9.3030  0.00  0.00     0.000 C
ATOM     83  C2  SGN B   5      65.931  61.939   8.8180  0.00  0.00     0.000 C
ATOM     84  C3  SGN B   5      67.306  61.452   9.2970  0.00  0.00     0.000 C
ATOM     85  C4  SGN B   5      68.373  62.422   8.8230  0.00  0.00     0.000 C
ATOM     86  C5  SGN B   5      68.049  63.804   9.3840  0.00  0.00     0.000 C
ATOM     87  O5  SGN B   5      66.761  64.214   8.8860  0.00  0.00     0.000 O
ATOM     88   O  SGN B   5      67.551  60.152   8.8080  0.00  0.00     0.000 O
ATOM     90  HD  SGN B   5      67.300  60.346   9.6140  0.00  0.00     0.000 HD
BRANCH 83 92
ATOM     90   N  SGN B   5      64.460  62.052   8.7660  0.00  0.00     0.000 N
ATOM     92  HD  SGN B   5      64.219  62.819   8.4460  0.00  0.00     0.000 HD
ATOM     92   S  SGN B   5      63.630  60.800   8.2200  0.00  0.00     0.000 S
ATOM     93   O  SGN B   5      62.264  61.223   8.2890  0.00  0.00     0.000 OA
ATOM     94   O  SGN B   5      64.211  60.469   6.9640  0.00  0.00     0.000 OA
ATOM     95   O  SGN B   5      63.955  59.675   9.1790  0.00  0.00     0.000 OA
ENDBRANCH 83 92
BRANCH 86 96
ATOM     96   C  SGN B   5      69.044  64.879   9.0000  0.00  0.00     0.000 C
ATOM     97   O  SGN B   5      68.516  65.703   7.9580  0.00  0.00     0.000 O
ATOM     98   S  SGN B   5      68.577  67.286   8.2090  0.00  0.00     0.000 S
ATOM     99   O  SGN B   5      68.175  67.826   6.9330  0.00  0.00     0.000 OA
ATOM    100   O  SGN B   5      67.696  67.581   9.2810  0.00  0.00     0.000 OA
ATOM    101   O  SGN B   5      69.945  67.542   8.5260  0.00  0.00     0.000 OA
ENDBRANCH 86 96
BRANCH 82 102
ATOM    102  O4  IDS B   6      65.534  63.456  10.6540  0.00  0.00     0.000 O
BRANCH 102 106
ATOM    103  C1  IDS B   6      63.412  64.559  13.3990  0.00  0.00     0.000 C
ATOM    104  C2  IDS B   6      62.819  64.285  12.0080  0.00  0.00     0.000 C
ATOM    105  C3  IDS B   6      63.583  64.900  10.8510  0.00  0.00     0.000 C
ATOM    106  C4  IDS B   6      65.088  64.788  11.0170  0.00  0.00     0.000 C
ATOM    107  C5  IDS B   6      65.475  65.116  12.4620  0.00  0.00     0.000 C
ATOM    108  O5  IDS B   6      64.798  64.276  13.3990  0.00  0.00     0.000 O
ATOM    109   O  IDS B   6      63.189  66.257  10.7330  0.00  0.00     0.000 O
ATOM    111  HD  IDS B   6      62.890  66.457  11.5210  0.00  0.00     0.000 HD
BRANCH 104 111
ATOM    111   O  IDS B   6      62.833  62.836  11.7570  0.00  0.00     0.000 O
ATOM    112   S  IDS B   6      61.442  62.047  11.8200  0.00  0.00     0.000 S
ATOM    113   O  IDS B   6      60.941  62.294  13.1630  0.00  0.00     0.000 OA
ATOM    114   O  IDS B   6      60.578  62.543  10.7420  0.00  0.00     0.000 OA
ATOM    115   O  IDS B   6      61.928  60.700  11.6120  0.00  0.00     0.000 OA
ENDBRANCH 104 111
BRANCH 107 116
ATOM    116   C  IDS B   6      66.982  64.965  12.6270  0.00  0.00     0.000 C
ATOM    117   O  IDS B   6      67.664  65.876  12.2310  0.00  0.00     0.000 OA
ATOM    118   O  IDS B   6      67.469  63.964  13.1280  0.00  0.00     0.000 OA
ENDBRANCH 107 116
BRANCH 103 119
ATOM    119  O4  SGN B   7      62.943  65.794  13.7110  0.00  0.00     0.000 O
BRANCH 119 123
ATOM    120  C1  SGN B   7      61.701  67.786  17.1730  0.00  0.00     0.000 C
ATOM    121  C2  SGN B   7      63.216  67.608  16.9560  0.00  0.00     0.000 C
ATOM    122  C3  SGN B   7      63.511  67.240  15.4970  0.00  0.00     0.000 C
ATOM    123  C4  SGN B   7      62.686  66.028  15.0960  0.00  0.00     0.000 C
ATOM    124  C5  SGN B   7      61.195  66.301  15.3560  0.00  0.00     0.000 C
ATOM    125  O5  SGN B   7      60.964  66.643  16.7410  0.00  0.00     0.000 O
ATOM    126   O  SGN B   7      64.913  66.986  15.3550  0.00  0.00     0.000 O
ATOM    128  HD  SGN B   7      64.265  67.282  15.8470  0.00  0.00     0.000 HD
BRANCH 121 130
ATOM    128   N  SGN B   7      63.487  67.961  18.3520  0.00  0.00     0.000 N
ATOM    130  HD  SGN B   7      64.209  67.482  18.3400  0.00  0.00     0.000 HD
ATOM    130   S  SGN B   7      64.661  68.983  18.7670  0.00  0.00     0.000 S
ATOM    131   O  SGN B   7      64.464  70.129  17.9470  0.00  0.00     0.000 OA
ATOM    132   O  SGN B   7      64.667  69.104  20.1810  0.00  0.00     0.000 OA
ATOM    133   O  SGN B   7      65.921  68.112  18.4390  0.00  0.00     0.000 OA
ENDBRANCH 121 130
BRANCH 124 134
ATOM    134   C  SGN B   7      60.308  65.119  15.1000  0.00  0.00     0.000 C
ATOM    135   O  SGN B   7      59.276  65.096  16.1010  0.00  0.00     0.000 O
ATOM    136   S  SGN B   7      58.148  64.017  15.9180  0.00  0.00     0.000 S
ATOM    137   O  SGN B   7      57.299  64.117  17.0810  0.00  0.00     0.000 OA
ATOM    138   O  SGN B   7      58.844  62.753  15.8340  0.00  0.00     0.000 OA
ATOM    139   O  SGN B   7      57.510  64.438  14.6810  0.00  0.00     0.000 OA
ENDBRANCH 124 134
BRANCH 120 140
ATOM    140  O4  IDS B   8      60.906  68.744  16.6840  0.00  0.00     0.000 O
BRANCH 140 144
ATOM    141  C1  IDS B   8      59.506  71.048  14.2980  0.00  0.00     0.000 C
ATOM    142  C2  IDS B   8      61.032  70.750  14.3210  0.00  0.00     0.000 C
ATOM    143  C3  IDS B   8      61.644  70.841  15.7310  0.00  0.00     0.000 C
ATOM    144  C4  IDS B   8      60.764  70.166  16.7820  0.00  0.00     0.000 C
ATOM    145  C5  IDS B   8      59.294  70.565  16.5780  0.00  0.00     0.000 C
ATOM    146  O5  IDS B   8      58.839  70.246  15.2650  0.00  0.00     0.000 O
BRANCH 142 147
ATOM    147   O  IDS B   8      61.275  69.370  13.8250  0.00  0.00     0.000 O
ATOM    148   S  IDS B   8      61.733  69.102  12.2920  0.00  0.00     0.000 S
ATOM    149   O  IDS B   8      61.459  70.302  11.5360  0.00  0.00     0.000 OA
ATOM    150   O  IDS B   8      63.149  68.792  12.3600  0.00  0.00     0.000 OA
ATOM    151   O  IDS B   8      60.927  67.982  11.8430  0.00  0.00     0.000 OA
ENDBRANCH 142 147
BRANCH 145 152
ATOM    152   C  IDS B   8      58.358  69.849  17.5290  0.00  0.00     0.000 C
ATOM    153   O  IDS B   8      57.473  69.129  17.0800  0.00  0.00     0.000 OA
ATOM    154   O  IDS B   8      58.505  69.979  18.7310  0.00  0.00     0.000 OA
ENDBRANCH 145 152
ENDBRANCH 140 144
ENDBRANCH 120 140
ENDBRANCH 119 123
ENDBRANCH 103 119
ENDBRANCH 102 106
ENDBRANCH 82 102
ENDBRANCH 81 85
ENDBRANCH 65 81
ENDBRANCH 64 68
ENDBRANCH 41 64
ENDBRANCH 40 44
ENDBRANCH 24 40
ENDBRANCH 23 27
ENDBRANCH 1 23
TORSDOF 31
ENDMDL
MODEL 83
REMARK VINA RESULT:      -1.2     90.448     96.619
ROOT
ATOM      1  C1  SGN B   1      58.350  69.244  93.0070  0.00  0.00     0.000 C
ATOM      2  C2  SGN B   1      58.578  67.795  92.5450  0.00  0.00     0.000 C
ATOM      3  C3  SGN B   1      59.015  67.756  91.0770  0.00  0.00     0.000 C
ATOM      4  C4  SGN B   1      57.994  68.479  90.2040  0.00  0.00     0.000 C
ATOM      5  C5  SGN B   1      57.713  69.856  90.8030  0.00  0.00     0.000 C
ATOM      6  O5  SGN B   1      57.297  69.709  92.1740  0.00  0.00     0.000 O
ATOM      7   O  SGN B   1      59.181  66.412  90.6400  0.00  0.00     0.000 O
ATOM      9  HD  SGN B   1      58.342  66.424  90.8550  0.00  0.00     0.000 HD
ATOM      9   O  SGN B   1      58.508  68.613  88.8920  0.00  0.00     0.000 O
ATOM     11  HD  SGN B   1      57.669  68.626  89.1070  0.00  0.00     0.000 HD
ENDROOT
BRANCH 2 13
ATOM     11   N  SGN B   1      58.290  66.984  93.7430  0.00  0.00     0.000 N
ATOM     13  HD  SGN B   1      58.822  67.665  93.7910  0.00  0.00     0.000 HD
ATOM     13   S  SGN B   1      59.340  66.835  94.9530  0.00  0.00     0.000 S
ATOM     14   O  SGN B   1      60.488  67.614  94.6980  0.00  0.00     0.000 OA
ATOM     15   O  SGN B   1      58.639  67.002  96.1810  0.00  0.00     0.000 OA
ATOM     16   O  SGN B   1      59.643  65.312  94.7990  0.00  0.00     0.000 OA
ENDBRANCH 2 13
BRANCH 5 17
ATOM     17   C  SGN B   1      56.633  70.628  90.0860  0.00  0.00     0.000 C
ATOM     18   O  SGN B   1      55.539  69.763  89.7190  0.00  0.00     0.000 O
ATOM     19   S  SGN B   1      54.978  69.935  88.2310  0.00  0.00     0.000 S
ATOM     20   O  SGN B   1      53.765  69.146  88.1940  0.00  0.00     0.000 OA
ATOM     21   O  SGN B   1      54.748  71.355  88.1030  0.00  0.00     0.000 OA
ATOM     22   O  SGN B   1      56.025  69.429  87.3720  0.00  0.00     0.000 OA
ENDBRANCH 5 17
BRANCH 1 23
ATOM     23  O4  IDS B   2      59.025  70.289  93.5650  0.00  0.00     0.000 O
BRANCH 23 27
ATOM     24  C1  IDS B   2      61.055  72.576  90.7570  0.00  0.00     0.000 C
ATOM     25  C2  IDS B   2      61.878  71.451  91.4230  0.00  0.00     0.000 C
ATOM     26  C3  IDS B   2      60.973  70.499  92.2000  0.00  0.00     0.000 C
ATOM     27  C4  IDS B   2      60.092  71.199  93.2250  0.00  0.00     0.000 C
ATOM     28  C5  IDS B   2      59.619  72.559  92.6720  0.00  0.00     0.000 C
ATOM     29  O5  IDS B   2      59.710  72.590  91.2550  0.00  0.00     0.000 O
ATOM     30   O  IDS B   2      61.776  69.554  92.8980  0.00  0.00     0.000 O
ATOM     32  HD  IDS B   2      62.120  69.871  93.6270  0.00  0.00     0.000 HD
BRANCH 25 32
ATOM     32   O  IDS B   2      62.630  70.644  90.4300  0.00  0.00     0.000 O
ATOM     33   S  IDS B   2      64.279  70.572  90.4360  0.00  0.00     0.000 S
ATOM     34   O  IDS B   2      64.659  69.889  89.2100  0.00  0.00     0.000 OA
ATOM     35   O  IDS B   2      64.822  71.923  90.4820  0.00  0.00     0.000 OA
ATOM     36   O  IDS B   2      64.632  69.796  91.6020  0.00  0.00     0.000 OA
ENDBRANCH 25 32
BRANCH 28 37
ATOM     37   C  IDS B   2      58.215  73.053  93.0780  0.00  0.00     0.000 C
ATOM     38   O  IDS B   2      57.509  73.290  92.1260  0.00  0.00     0.000 OA
ATOM     39   O  IDS B   2      57.759  73.158  94.2430  0.00  0.00     0.000 OA
ENDBRANCH 28 37
BRANCH 24 40
ATOM     40  O4  SUS B   3      61.683  73.559  90.0790  0.00  0.00     0.000 O
BRANCH 40 44
ATOM     41  C1  SUS B   3      60.504  75.689  86.6710  0.00  0.00     0.000 C
ATOM     42  C2  SUS B   3      59.730  75.962  87.9760  0.00  0.00     0.000 C
ATOM     43  C3  SUS B   3      60.569  75.498  89.1650  0.00  0.00     0.000 C
ATOM     44  C4  SUS B   3      60.943  74.038  88.9630  0.00  0.00     0.000 C
ATOM     45  C5  SUS B   3      61.774  73.915  87.7020  0.00  0.00     0.000 C
ATOM     46  O5  SUS B   3      60.963  74.335  86.5860  0.00  0.00     0.000 O
BRANCH 42 49
ATOM     47   N  SUS B   3      58.539  76.325  87.1890  0.00  0.00     0.000 N
ATOM     49  HD  SUS B   3      58.662  76.467  86.3440  0.00  0.00     0.000 HD
ATOM     49   S  SUS B   3      57.756  77.583  87.7980  0.00  0.00     0.000 S
ATOM     50   O  SUS B   3      58.622  78.692  87.8830  0.00  0.00     0.000 OA
ATOM     51   O  SUS B   3      56.758  77.758  86.6240  0.00  0.00     0.000 OA
ATOM     52   O  SUS B   3      57.081  77.190  88.9700  0.00  0.00     0.000 OA
ENDBRANCH 42 49
BRANCH 43 53
ATOM     53   O  SUS B   3      59.749  75.642  90.3840  0.00  0.00     0.000 O
ATOM     54   S  SUS B   3      60.245  76.747  91.4940  0.00  0.00     0.000 S
ATOM     55   O  SUS B   3      60.005  78.069  90.9320  0.00  0.00     0.000 OA
ATOM     56   O  SUS B   3      59.440  76.454  92.6670  0.00  0.00     0.000 OA
ATOM     57   O  SUS B   3      61.677  76.512  91.7030  0.00  0.00     0.000 OA
ENDBRANCH 43 53
BRANCH 45 58
ATOM     58   C  SUS B   3      62.270  72.502  87.4860  0.00  0.00     0.000 C
ATOM     59   S  SUS B   3      61.569  70.225  86.5310  0.00  0.00     0.000 S
ATOM     60   O  SUS B   3      61.322  71.782  86.6800  0.00  0.00     0.000 O
ATOM     61   O  SUS B   3      61.099  69.646  87.7760  0.00  0.00     0.000 OA
ATOM     62   O  SUS B   3      60.710  69.923  85.4180  0.00  0.00     0.000 OA
ATOM     63   O  SUS B   3      62.960  70.083  86.2820  0.00  0.00     0.000 OA
ENDBRANCH 45 58
BRANCH 41 64
ATOM     64  O4  IDS B   4      61.466  76.628  86.3910  0.00  0.00     0.000 O
BRANCH 64 68
ATOM     65  C1  IDS B   4      63.279  79.202  84.5570  0.00  0.00     0.000 C
ATOM     66  C2  IDS B   4      61.773  79.350  84.8120  0.00  0.00     0.000 C
ATOM     67  C3  IDS B   4      60.961  78.100  84.5180  0.00  0.00     0.000 C
ATOM     68  C4  IDS B   4      61.652  76.828  84.9720  0.00  0.00     0.000 C
ATOM     69  C5  IDS B   4      63.126  76.911  84.5550  0.00  0.00     0.000 C
ATOM     70  O5  IDS B   4      63.737  78.029  85.2040  0.00  0.00     0.000 O
ATOM     71   O  IDS B   4      60.748  78.057  83.1220  0.00  0.00     0.000 O
ATOM     73  HD  IDS B   4      60.951  78.431  83.8770  0.00  0.00     0.000 HD
BRANCH 66 73
ATOM     73   O  IDS B   4      61.560  79.630  86.2390  0.00  0.00     0.000 O
ATOM     74   S  IDS B   4      61.069  81.114  86.6560  0.00  0.00     0.000 S
ATOM     75   O  IDS B   4      62.049  82.035  86.1210  0.00  0.00     0.000 OA
ATOM     76   O  IDS B   4      61.064  81.031  88.0940  0.00  0.00     0.000 OA
ATOM     77   O  IDS B   4      59.760  81.267  86.0660  0.00  0.00     0.000 OA
ENDBRANCH 66 73
BRANCH 69 78
ATOM     78   C  IDS B   4      63.907  75.618  84.7430  0.00  0.00     0.000 C
ATOM     79   O  IDS B   4      63.342  74.548  84.5180  0.00  0.00     0.000 OA
ATOM     80   O  IDS B   4      65.120  75.688  85.0140  0.00  0.00     0.000 OA
ENDBRANCH 69 78
BRANCH 65 81
ATOM     81  O4  SGN B   5      63.524  79.303  83.2220  0.00  0.00     0.000 O
BRANCH 81 85
ATOM     82  C1  SGN B   5      66.275  80.714  80.3790  0.00  0.00     0.000 C
ATOM     83  C2  SGN B   5      66.718  79.528  81.2510  0.00  0.00     0.000 C
ATOM     84  C3  SGN B   5      65.484  78.860  81.8730  0.00  0.00     0.000 C
ATOM     85  C4  SGN B   5      64.685  79.900  82.6400  0.00  0.00     0.000 C
ATOM     86  C5  SGN B   5      64.285  81.008  81.6700  0.00  0.00     0.000 C
ATOM     87  O5  SGN B   5      65.480  81.608  81.1340  0.00  0.00     0.000 O
ATOM     88   O  SGN B   5      65.887  77.806  82.7200  0.00  0.00     0.000 O
ATOM     90  HD  SGN B   5      65.574  77.714  81.9180  0.00  0.00     0.000 HD
BRANCH 83 92
ATOM     90   N  SGN B   5      67.877  79.706  80.3540  0.00  0.00     0.000 N
ATOM     92  HD  SGN B   5      68.067  80.546  80.2550  0.00  0.00     0.000 HD
ATOM     92   S  SGN B   5      69.138  78.746  80.5570  0.00  0.00     0.000 S
ATOM     93   O  SGN B   5      70.072  79.171  79.5580  0.00  0.00     0.000 OA
ATOM     94   O  SGN B   5      69.477  78.840  81.9350  0.00  0.00     0.000 OA
ATOM     95   O  SGN B   5      68.602  77.352  80.3180  0.00  0.00     0.000 OA
ENDBRANCH 83 92
BRANCH 86 96
ATOM     96   C  SGN B   5      63.466  82.117  82.2980  0.00  0.00     0.000 C
ATOM     97   O  SGN B   5      64.062  82.548  83.5230  0.00  0.00     0.000 O
ATOM     98   S  SGN B   5      64.287  84.128  83.6810  0.00  0.00     0.000 S
ATOM     99   O  SGN B   5      64.696  84.255  85.0590  0.00  0.00     0.000 OA
ATOM    100   O  SGN B   5      65.270  84.515  82.7330  0.00  0.00     0.000 OA
ATOM    101   O  SGN B   5      63.006  84.698  83.4170  0.00  0.00     0.000 OA
ENDBRANCH 86 96
BRANCH 82 102
ATOM    102  O4  IDS B   6      65.611  80.320  79.2560  0.00  0.00     0.000 O
BRANCH 102 106
ATOM    103  C1  IDS B   6      65.457  80.457  75.6210  0.00  0.00     0.000 C
ATOM    104  C2  IDS B   6      66.780  80.709  76.3620  0.00  0.00     0.000 C
ATOM    105  C3  IDS B   6      66.688  81.665  77.5350  0.00  0.00     0.000 C
ATOM    106  C4  IDS B   6      65.435  81.452  78.3680  0.00  0.00     0.000 C
ATOM    107  C5  IDS B   6      64.231  81.240  77.4460  0.00  0.00     0.000 C
ATOM    108  O5  IDS B   6      64.434  80.147  76.5480  0.00  0.00     0.000 O
ATOM    109   O  IDS B   6      66.738  82.989  77.0310  0.00  0.00     0.000 O
ATOM    111  HD  IDS B   6      66.477  82.909  76.2090  0.00  0.00     0.000 HD
BRANCH 104 111
ATOM    111   O  IDS B   6      67.260  79.440  76.9310  0.00  0.00     0.000 O
ATOM    112   S  IDS B   6      68.506  78.723  76.2280  0.00  0.00     0.000 S
ATOM    113   O  IDS B   6      68.074  78.498  74.8580  0.00  0.00     0.000 OA
ATOM    114   O  IDS B   6      69.680  79.593  76.3650  0.00  0.00     0.000 OA
ATOM    115   O  IDS B   6      68.567  77.520  77.0310  0.00  0.00     0.000 OA
ENDBRANCH 104 111
BRANCH 107 116
ATOM    116   C  IDS B   6      62.988  80.991  78.2900  0.00  0.00     0.000 C
ATOM    117   O  IDS B   6      62.576  79.859  78.3280  0.00  0.00     0.000 OA
ATOM    118   O  IDS B   6      62.434  81.900  78.8880  0.00  0.00     0.000 OA
ENDBRANCH 107 116
BRANCH 103 119
ATOM    119  O4  SGN B   7      65.352  81.519  74.7810  0.00  0.00     0.000 O
BRANCH 119 123
ATOM    120  C1  SGN B   7      63.931  82.200  70.9080  0.00  0.00     0.000 C
ATOM    121  C2  SGN B   7      62.889  81.984  72.0220  0.00  0.00     0.000 C
ATOM    122  C3  SGN B   7      63.536  82.153  73.4030  0.00  0.00     0.000 C
ATOM    123  C4  SGN B   7      64.753  81.249  73.5140  0.00  0.00     0.000 C
ATOM    124  C5  SGN B   7      65.724  81.536  72.3570  0.00  0.00     0.000 C
ATOM    125  O5  SGN B   7      65.074  81.364  71.0780  0.00  0.00     0.000 O
ATOM    126   O  SGN B   7      62.567  81.849  74.4120  0.00  0.00     0.000 O
ATOM    128  HD  SGN B   7      62.736  81.998  73.5760  0.00  0.00     0.000 HD
BRANCH 121 130
ATOM    128   N  SGN B   7      61.760  81.636  71.1560  0.00  0.00     0.000 N
ATOM    130  HD  SGN B   7      61.324  81.327  71.8380  0.00  0.00     0.000 HD
ATOM    130   S  SGN B   7      60.381  82.467  71.1660  0.00  0.00     0.000 S
ATOM    131   O  SGN B   7      60.767  83.830  71.0300  0.00  0.00     0.000 OA
ATOM    132   O  SGN B   7      59.497  81.876  70.2280  0.00  0.00     0.000 OA
ATOM    133   O  SGN B   7      59.811  82.050  72.5640  0.00  0.00     0.000 OA
ENDBRANCH 121 130
BRANCH 124 134
ATOM    134   C  SGN B   7      66.906  80.612  72.3130  0.00  0.00     0.000 C
ATOM    135   O  SGN B   7      67.177  80.281  70.9410  0.00  0.00     0.000 O
ATOM    136   S  SGN B   7      68.477  79.442  70.6670  0.00  0.00     0.000 S
ATOM    137   O  SGN B   7      68.480  79.148  69.2540  0.00  0.00     0.000 OA
ATOM    138   O  SGN B   7      68.344  78.261  71.4890  0.00  0.00     0.000 OA
ATOM    139   O  SGN B   7      69.531  80.352  71.0850  0.00  0.00     0.000 OA
ENDBRANCH 124 134
BRANCH 120 140
ATOM    140  O4  IDS B   8      64.551  83.336  70.5700  0.00  0.00     0.000 O
BRANCH 140 144
ATOM    141  C1  IDS B   8      66.287  86.463  70.9860  0.00  0.00     0.000 C
ATOM    142  C2  IDS B   8      65.149  86.044  71.9600  0.00  0.00     0.000 C
ATOM    143  C3  IDS B   8      63.879  85.563  71.2330  0.00  0.00     0.000 C
ATOM    144  C4  IDS B   8      64.205  84.632  70.0660  0.00  0.00     0.000 C
ATOM    145  C5  IDS B   8      65.366  85.205  69.2400  0.00  0.00     0.000 C
ATOM    146  O5  IDS B   8      66.524  85.426  70.0420  0.00  0.00     0.000 O
BRANCH 142 147
ATOM    147   O  IDS B   8      65.617  84.923  72.8170  0.00  0.00     0.000 O
ATOM    148   S  IDS B   8      66.154  85.191  74.3230  0.00  0.00     0.000 S
ATOM    149   O  IDS B   8      66.437  86.603  74.4440  0.00  0.00     0.000 OA
ATOM    150   O  IDS B   8      65.083  84.756  75.2000  0.00  0.00     0.000 OA
ATOM    151   O  IDS B   8      67.355  84.386  74.4490  0.00  0.00     0.000 OA
ENDBRANCH 142 147
BRANCH 145 152
ATOM    152   C  IDS B   8      65.802  84.277  68.1250  0.00  0.00     0.000 C
ATOM    153   O  IDS B   8      66.951  83.850  68.1070  0.00  0.00     0.000 OA
ATOM    154   O  IDS B   8      65.001  83.948  67.2680  0.00  0.00     0.000 OA
ENDBRANCH 145 152
ENDBRANCH 140 144
ENDBRANCH 120 140
ENDBRANCH 119 123
ENDBRANCH 103 119
ENDBRANCH 102 106
ENDBRANCH 82 102
ENDBRANCH 81 85
ENDBRANCH 65 81
ENDBRANCH 64 68
ENDBRANCH 41 64
ENDBRANCH 40 44
ENDBRANCH 24 40
ENDBRANCH 23 27
ENDBRANCH 1 23
TORSDOF 31
ENDMDL
MODEL 84
REMARK VINA RESULT:      -1.2     58.717     64.162
ROOT
ATOM      1  C1  SGN B   1      46.718  71.926  46.5590  0.00  0.00     0.000 C
ATOM      2  C2  SGN B   1      45.909  72.206  47.8370  0.00  0.00     0.000 C
ATOM      3  C3  SGN B   1      44.654  73.024  47.5160  0.00  0.00     0.000 C
ATOM      4  C4  SGN B   1      45.035  74.309  46.7880  0.00  0.00     0.000 C
ATOM      5  C5  SGN B   1      45.952  73.967  45.6170  0.00  0.00     0.000 C
ATOM      6  O5  SGN B   1      47.086  73.218  46.0950  0.00  0.00     0.000 O
ATOM      7   O  SGN B   1      43.932  73.319  48.7060  0.00  0.00     0.000 O
ATOM      9  HD  SGN B   1      44.690  73.709  48.8590  0.00  0.00     0.000 HD
ATOM      9   O  SGN B   1      43.863  74.950  46.3200  0.00  0.00     0.000 O
ATOM     11  HD  SGN B   1      44.621  75.339  46.4730  0.00  0.00     0.000 HD
ENDROOT
BRANCH 2 13
ATOM     11   N  SGN B   1      46.679  71.541  48.9050  0.00  0.00     0.000 N
ATOM     13  HD  SGN B   1      46.480  71.117  48.1770  0.00  0.00     0.000 HD
ATOM     13   S  SGN B   1      46.627  69.950  49.1390  0.00  0.00     0.000 S
ATOM     14   O  SGN B   1      45.807  69.343  48.1660  0.00  0.00     0.000 OA
ATOM     15   O  SGN B   1      47.958  69.479  49.3270  0.00  0.00     0.000 OA
ATOM     16   O  SGN B   1      45.939  69.954  50.5390  0.00  0.00     0.000 OA
ENDBRANCH 2 13
BRANCH 5 17
ATOM     17   C  SGN B   1      46.486  75.171  44.8820  0.00  0.00     0.000 C
ATOM     18   O  SGN B   1      46.858  76.214  45.8060  0.00  0.00     0.000 O
ATOM     19   S  SGN B   1      46.380  77.692  45.4240  0.00  0.00     0.000 S
ATOM     20   O  SGN B   1      47.065  78.561  46.3570  0.00  0.00     0.000 OA
ATOM     21   O  SGN B   1      46.811  77.859  44.0550  0.00  0.00     0.000 OA
ATOM     22   O  SGN B   1      44.943  77.679  45.5910  0.00  0.00     0.000 OA
ENDBRANCH 5 17
BRANCH 1 23
ATOM     23  O4  IDS B   2      46.823  71.004  45.5600  0.00  0.00     0.000 O
BRANCH 23 27
ATOM     24  C1  IDS B   2      44.115  71.649  42.4810  0.00  0.00     0.000 C
ATOM     25  C2  IDS B   2      43.650  70.675  43.5860  0.00  0.00     0.000 C
ATOM     26  C3  IDS B   2      44.576  70.740  44.7970  0.00  0.00     0.000 C
ATOM     27  C4  IDS B   2      46.041  70.506  44.4550  0.00  0.00     0.000 C
ATOM     28  C5  IDS B   2      46.374  71.153  43.0950  0.00  0.00     0.000 C
ATOM     29  O5  IDS B   2      45.426  72.156  42.7640  0.00  0.00     0.000 O
ATOM     30   O  IDS B   2      44.190  69.744  45.7360  0.00  0.00     0.000 O
ATOM     32  HD  IDS B   2      44.469  68.951  45.5280  0.00  0.00     0.000 HD
BRANCH 25 32
ATOM     32   O  IDS B   2      42.275  70.975  44.0560  0.00  0.00     0.000 O
ATOM     33   S  IDS B   2      41.040  69.893  43.8870  0.00  0.00     0.000 S
ATOM     34   O  IDS B   2      39.825  70.606  44.2450  0.00  0.00     0.000 OA
ATOM     35   O  IDS B   2      40.995  69.422  42.5100  0.00  0.00     0.000 OA
ATOM     36   O  IDS B   2      41.322  68.830  44.8230  0.00  0.00     0.000 OA
ENDBRANCH 25 32
BRANCH 28 37
ATOM     37   C  IDS B   2      47.788  71.739  42.9030  0.00  0.00     0.000 C
ATOM     38   O  IDS B   2      47.771  72.907  42.5930  0.00  0.00     0.000 OA
ATOM     39   O  IDS B   2      48.881  71.154  43.0970  0.00  0.00     0.000 OA
ENDBRANCH 28 37
BRANCH 24 40
ATOM     40  O4  SUS B   3      43.463  71.689  41.3010  0.00  0.00     0.000 O
BRANCH 40 44
ATOM     41  C1  SUS B   3      42.722  74.901  38.7160  0.00  0.00     0.000 C
ATOM     42  C2  SUS B   3      44.179  74.410  38.8310  0.00  0.00     0.000 C
ATOM     43  C3  SUS B   3      44.189  72.993  39.4000  0.00  0.00     0.000 C
ATOM     44  C4  SUS B   3      43.429  72.987  40.7170  0.00  0.00     0.000 C
ATOM     45  C5  SUS B   3      41.994  73.397  40.4570  0.00  0.00     0.000 C
ATOM     46  O5  SUS B   3      41.997  74.744  39.9410  0.00  0.00     0.000 O
BRANCH 42 49
ATOM     47   N  SUS B   3      44.860  74.546  37.5320  0.00  0.00     0.000 N
ATOM     49  HD  SUS B   3      45.248  73.837  37.2220  0.00  0.00     0.000 HD
ATOM     49   S  SUS B   3      45.924  75.743  37.5150  0.00  0.00     0.000 S
ATOM     50   O  SUS B   3      46.880  75.550  38.5330  0.00  0.00     0.000 OA
ATOM     51   O  SUS B   3      46.533  75.423  36.1260  0.00  0.00     0.000 OA
ATOM     52   O  SUS B   3      45.241  76.975  37.4870  0.00  0.00     0.000 OA
ENDBRANCH 42 49
BRANCH 43 53
ATOM     53   O  SUS B   3      45.594  72.605  39.6300  0.00  0.00     0.000 O
ATOM     54   S  SUS B   3      46.184  71.360  38.7340  0.00  0.00     0.000 S
ATOM     55   O  SUS B   3      46.327  71.836  37.3650  0.00  0.00     0.000 OA
ATOM     56   O  SUS B   3      47.445  71.031  39.3750  0.00  0.00     0.000 OA
ATOM     57   O  SUS B   3      45.194  70.282  38.8190  0.00  0.00     0.000 OA
ENDBRANCH 43 53
BRANCH 45 58
ATOM     58   C  SUS B   3      41.147  73.319  41.7080  0.00  0.00     0.000 C
ATOM     59   S  SUS B   3      40.518  74.628  43.8240  0.00  0.00     0.000 S
ATOM     60   O  SUS B   3      41.173  74.588  42.3820  0.00  0.00     0.000 O
ATOM     61   O  SUS B   3      41.502  74.028  44.7050  0.00  0.00     0.000 OA
ATOM     62   O  SUS B   3      40.389  76.047  44.0190  0.00  0.00     0.000 OA
ATOM     63   O  SUS B   3      39.295  73.918  43.7050  0.00  0.00     0.000 OA
ENDBRANCH 45 58
BRANCH 41 64
ATOM     64  O4  IDS B   4      42.063  74.425  37.6090  0.00  0.00     0.000 O
BRANCH 64 68
ATOM     65  C1  IDS B   4      40.043  75.356  34.7230  0.00  0.00     0.000 C
ATOM     66  C2  IDS B   4      40.822  76.427  35.4990  0.00  0.00     0.000 C
ATOM     67  C3  IDS B   4      40.679  76.336  37.0090  0.00  0.00     0.000 C
ATOM     68  C4  IDS B   4      40.704  74.907  37.5190  0.00  0.00     0.000 C
ATOM     69  C5  IDS B   4      39.814  74.057  36.6030  0.00  0.00     0.000 C
ATOM     70  O5  IDS B   4      40.341  74.086  35.2740  0.00  0.00     0.000 O
ATOM     71   O  IDS B   4      39.450  76.943  37.3510  0.00  0.00     0.000 O
ATOM     73  HD  IDS B   4      40.126  76.768  36.8390  0.00  0.00     0.000 HD
BRANCH 66 73
ATOM     73   O  IDS B   4      42.256  76.255  35.2310  0.00  0.00     0.000 O
ATOM     74   S  IDS B   4      43.023  77.431  34.4270  0.00  0.00     0.000 S
ATOM     75   O  IDS B   4      42.312  77.605  33.1780  0.00  0.00     0.000 OA
ATOM     76   O  IDS B   4      44.344  76.876  34.2780  0.00  0.00     0.000 OA
ATOM     77   O  IDS B   4      42.959  78.590  35.2850  0.00  0.00     0.000 OA
ENDBRANCH 66 73
BRANCH 69 78
ATOM     78   C  IDS B   4      39.558  72.644  37.1080  0.00  0.00     0.000 C
ATOM     79   O  IDS B   4      39.503  72.451  38.3220  0.00  0.00     0.000 OA
ATOM     80   O  IDS B   4      39.308  71.751  36.2780  0.00  0.00     0.000 OA
ENDBRANCH 69 78
BRANCH 65 81
ATOM     81  O4  SGN B   5      38.728  75.707  34.6640  0.00  0.00     0.000 O
BRANCH 81 85
ATOM     82  C1  SGN B   5      35.307  75.625  32.2300  0.00  0.00     0.000 C
ATOM     83  C2  SGN B   5      35.804  74.280  32.7810  0.00  0.00     0.000 C
ATOM     84  C3  SGN B   5      36.729  74.527  33.9800  0.00  0.00     0.000 C
ATOM     85  C4  SGN B   5      37.857  75.453  33.5600  0.00  0.00     0.000 C
ATOM     86  C5  SGN B   5      37.244  76.757  33.0550  0.00  0.00     0.000 C
ATOM     87  O5  SGN B   5      36.404  76.464  31.9220  0.00  0.00     0.000 O
ATOM     88   O  SGN B   5      37.235  73.299  34.4560  0.00  0.00     0.000 O
ATOM     90  HD  SGN B   5      36.590  73.750  34.8170  0.00  0.00     0.000 HD
BRANCH 83 92
ATOM     90   N  SGN B   5      34.595  73.883  32.0320  0.00  0.00     0.000 N
ATOM     92  HD  SGN B   5      34.558  74.286  31.2660  0.00  0.00     0.000 HD
ATOM     92   S  SGN B   5      34.204  72.334  32.0020  0.00  0.00     0.000 S
ATOM     93   O  SGN B   5      33.015  72.284  31.2060  0.00  0.00     0.000 OA
ATOM     94   O  SGN B   5      35.376  71.648  31.5770  0.00  0.00     0.000 OA
ATOM     95   O  SGN B   5      33.968  71.969  33.4520  0.00  0.00     0.000 OA
ENDBRANCH 83 92
BRANCH 86 96
ATOM     96   C  SGN B   5      38.259  77.789  32.6100  0.00  0.00     0.000 C
ATOM     97   O  SGN B   5      38.323  77.847  31.1830  0.00  0.00     0.000 O
ATOM     98   S  SGN B   5      38.195  79.305  30.5290  0.00  0.00     0.000 S
ATOM     99   O  SGN B   5      38.497  79.059  29.1400  0.00  0.00     0.000 OA
ATOM    100   O  SGN B   5      36.876  79.768  30.7750  0.00  0.00     0.000 OA
ATOM    101   O  SGN B   5      39.190  80.081  31.1950  0.00  0.00     0.000 OA
ENDBRANCH 86 96
BRANCH 82 102
ATOM    102  O4  IDS B   6      34.450  76.256  33.0810  0.00  0.00     0.000 O
BRANCH 102 106
ATOM    103  C1  IDS B   6      31.171  77.780  33.5080  0.00  0.00     0.000 C
ATOM    104  C2  IDS B   6      31.416  76.739  32.4040  0.00  0.00     0.000 C
ATOM    105  C3  IDS B   6      32.668  76.961  31.5780  0.00  0.00     0.000 C
ATOM    106  C4  IDS B   6      33.855  77.400  32.4180  0.00  0.00     0.000 C
ATOM    107  C5  IDS B   6      33.405  78.449  33.4400  0.00  0.00     0.000 C
ATOM    108  O5  IDS B   6      32.348  77.965  34.2700  0.00  0.00     0.000 O
ATOM    109   O  IDS B   6      32.373  77.925  30.5800  0.00  0.00     0.000 O
ATOM    111  HD  IDS B   6      31.697  78.359  30.9030  0.00  0.00     0.000 HD
BRANCH 104 111
ATOM    111   O  IDS B   6      31.589  75.416  33.0230  0.00  0.00     0.000 O
ATOM    112   S  IDS B   6      30.406  74.349  32.8600  0.00  0.00     0.000 S
ATOM    113   O  IDS B   6      29.243  75.000  33.4430  0.00  0.00     0.000 OA
ATOM    114   O  IDS B   6      30.273  74.016  31.4380  0.00  0.00     0.000 OA
ATOM    115   O  IDS B   6      30.946  73.277  33.6690  0.00  0.00     0.000 OA
ENDBRANCH 104 111
BRANCH 107 116
ATOM    116   C  IDS B   6      34.594  78.856  34.3010  0.00  0.00     0.000 C
ATOM    117   O  IDS B   6      35.399  79.597  33.7970  0.00  0.00     0.000 OA
ATOM    118   O  IDS B   6      34.724  78.440  35.4420  0.00  0.00     0.000 OA
ENDBRANCH 107 116
BRANCH 103 119
ATOM    119  O4  SGN B   7      30.585  78.813  32.8500  0.00  0.00     0.000 O
BRANCH 119 123
ATOM    120  C1  SGN B   7      27.619  81.645  33.6700  0.00  0.00     0.000 C
ATOM    121  C2  SGN B   7      28.992  81.835  34.3420  0.00  0.00     0.000 C
ATOM    122  C3  SGN B   7      30.056  80.979  33.6430  0.00  0.00     0.000 C
ATOM    123  C4  SGN B   7      29.594  79.533  33.5850  0.00  0.00     0.000 C
ATOM    124  C5  SGN B   7      28.217  79.450  32.9060  0.00  0.00     0.000 C
ATOM    125  O5  SGN B   7      27.248  80.270  33.5970  0.00  0.00     0.000 O
ATOM    126   O  SGN B   7      31.294  81.104  34.3520  0.00  0.00     0.000 O
ATOM    128  HD  SGN B   7      30.482  81.382  34.2340  0.00  0.00     0.000 HD
BRANCH 121 130
ATOM    128   N  SGN B   7      28.551  82.731  35.4140  0.00  0.00     0.000 N
ATOM    130  HD  SGN B   7      29.294  82.599  35.8390  0.00  0.00     0.000 HD
ATOM    130   S  SGN B   7      29.173  84.204  35.6130  0.00  0.00     0.000 S
ATOM    131   O  SGN B   7      29.098  84.816  34.3310  0.00  0.00     0.000 OA
ATOM    132   O  SGN B   7      28.544  84.806  36.7330  0.00  0.00     0.000 OA
ATOM    133   O  SGN B   7      30.610  83.836  36.1170  0.00  0.00     0.000 OA
ENDBRANCH 121 130
BRANCH 124 134
ATOM    134   C  SGN B   7      27.623  78.073  32.9040  0.00  0.00     0.000 C
ATOM    135   O  SGN B   7      26.214  78.181  33.1720  0.00  0.00     0.000 O
ATOM    136   S  SGN B   7      25.377  76.857  33.0620  0.00  0.00     0.000 S
ATOM    137   O  SGN B   7      24.033  77.191  33.4720  0.00  0.00     0.000 OA
ATOM    138   O  SGN B   7      26.024  75.924  33.9560  0.00  0.00     0.000 OA
ATOM    139   O  SGN B   7      25.500  76.525  31.6520  0.00  0.00     0.000 OA
ENDBRANCH 124 134
BRANCH 120 140
ATOM    140  O4  IDS B   8      27.241  82.028  32.4450  0.00  0.00     0.000 O
BRANCH 140 144
ATOM    141  C1  IDS B   8      27.439  82.573  28.8920  0.00  0.00     0.000 C
ATOM    142  C2  IDS B   8      28.687  82.760  29.8000  0.00  0.00     0.000 C
ATOM    143  C3  IDS B   8      28.404  83.621  31.0450  0.00  0.00     0.000 C
ATOM    144  C4  IDS B   8      27.081  83.248  31.7100  0.00  0.00     0.000 C
ATOM    145  C5  IDS B   8      25.982  83.085  30.6500  0.00  0.00     0.000 C
ATOM    146  O5  IDS B   8      26.338  82.115  29.6670  0.00  0.00     0.000 O
BRANCH 142 147
ATOM    147   O  IDS B   8      29.155  81.433  30.2800  0.00  0.00     0.000 O
ATOM    148   S  IDS B   8      30.390  80.670  29.5570  0.00  0.00     0.000 S
ATOM    149   O  IDS B   8      30.596  81.293  28.2690  0.00  0.00     0.000 OA
ATOM    150   O  IDS B   8      31.523  80.836  30.4490  0.00  0.00     0.000 OA
ATOM    151   O  IDS B   8      29.964  79.289  29.4290  0.00  0.00     0.000 OA
ENDBRANCH 142 147
BRANCH 145 152
ATOM    152   C  IDS B   8      24.667  82.618  31.2390  0.00  0.00     0.000 C
ATOM    153   O  IDS B   8      24.179  81.557  30.8650  0.00  0.00     0.000 OA
ATOM    154   O  IDS B   8      24.118  83.290  32.0940  0.00  0.00     0.000 OA
ENDBRANCH 145 152
ENDBRANCH 140 144
ENDBRANCH 120 140
ENDBRANCH 119 123
ENDBRANCH 103 119
ENDBRANCH 102 106
ENDBRANCH 82 102
ENDBRANCH 81 85
ENDBRANCH 65 81
ENDBRANCH 64 68
ENDBRANCH 41 64
ENDBRANCH 40 44
ENDBRANCH 24 40
ENDBRANCH 23 27
ENDBRANCH 1 23
TORSDOF 31
ENDMDL
MODEL 85
REMARK VINA RESULT:      -1.2     90.828     97.748
ROOT
ATOM      1  C1  SGN B   1      53.673  90.439  70.8250  0.00  0.00     0.000 C
ATOM      2  C2  SGN B   1      54.033  91.919  71.0330  0.00  0.00     0.000 C
ATOM      3  C3  SGN B   1      54.948  92.090  72.2500  0.00  0.00     0.000 C
ATOM      4  C4  SGN B   1      54.297  91.481  73.4880  0.00  0.00     0.000 C
ATOM      5  C5  SGN B   1      53.839  90.061  73.1640  0.00  0.00     0.000 C
ATOM      6  O5  SGN B   1      52.975  90.085  72.0110  0.00  0.00     0.000 O
ATOM      7   O  SGN B   1      55.242  93.465  72.4660  0.00  0.00     0.000 O
ATOM      9  HD  SGN B   1      54.381  93.453  72.5550  0.00  0.00     0.000 HD
ATOM      9   O  SGN B   1      55.232  91.462  74.5510  0.00  0.00     0.000 O
ATOM     11  HD  SGN B   1      54.370  91.451  74.6390  0.00  0.00     0.000 HD
ENDROOT
BRANCH 2 13
ATOM     11   N  SGN B   1      53.343  92.617  69.9320  0.00  0.00     0.000 N
ATOM     13  HD  SGN B   1      53.832  91.921  69.7730  0.00  0.00     0.000 HD
ATOM     13   S  SGN B   1      53.911  92.620  68.4270  0.00  0.00     0.000 S
ATOM     14   O  SGN B   1      55.083  91.840  68.3490  0.00  0.00     0.000 OA
ATOM     15   O  SGN B   1      52.832  92.353  67.5370  0.00  0.00     0.000 OA
ATOM     16   O  SGN B   1      54.234  94.142  68.3140  0.00  0.00     0.000 OA
ENDBRANCH 2 13
BRANCH 5 17
ATOM     17   C  SGN B   1      53.078  89.391  74.2820  0.00  0.00     0.000 C
ATOM     18   O  SGN B   1      52.171  90.315  74.9130  0.00  0.00     0.000 O
ATOM     19   S  SGN B   1      52.157  90.304  76.5120  0.00  0.00     0.000 S
ATOM     20   O  SGN B   1      51.024  91.124  76.8840  0.00  0.00     0.000 OA
ATOM     21   O  SGN B   1      51.998  88.909  76.8530  0.00  0.00     0.000 OA
ATOM     22   O  SGN B   1      53.432  90.863  76.9050  0.00  0.00     0.000 OA
ENDBRANCH 5 17
BRANCH 1 23
ATOM     23  O4  IDS B   2      54.123  89.327  70.1780  0.00  0.00     0.000 O
BRANCH 23 27
ATOM     24  C1  IDS B   2      57.016  87.271  72.3310  0.00  0.00     0.000 C
ATOM     25  C2  IDS B   2      57.550  88.305  71.3140  0.00  0.00     0.000 C
ATOM     26  C3  IDS B   2      56.424  89.200  70.8040  0.00  0.00     0.000 C
ATOM     27  C4  IDS B   2      55.250  88.426  70.2200  0.00  0.00     0.000 C
ATOM     28  C5  IDS B   2      55.009  87.140  71.0350  0.00  0.00     0.000 C
ATOM     29  O5  IDS B   2      55.583  87.244  72.3290  0.00  0.00     0.000 O
ATOM     30   O  IDS B   2      56.929  90.051  69.7820  0.00  0.00     0.000 O
ATOM     32  HD  IDS B   2      57.004  89.656  69.0140  0.00  0.00     0.000 HD
BRANCH 25 32
ATOM     32   O  IDS B   2      58.591  89.184  71.9010  0.00  0.00     0.000 O
ATOM     33   S  IDS B   2      60.136  89.211  71.3230  0.00  0.00     0.000 S
ATOM     34   O  IDS B   2      60.909  90.001  72.2680  0.00  0.00     0.000 OA
ATOM     35   O  IDS B   2      60.642  87.849  71.2280  0.00  0.00     0.000 OA
ATOM     36   O  IDS B   2      60.059  89.861  70.0350  0.00  0.00     0.000 OA
ENDBRANCH 25 32
BRANCH 28 37
ATOM     37   C  IDS B   2      53.555  86.646  71.1880  0.00  0.00     0.000 C
ATOM     38   O  IDS B   2      53.222  86.522  72.3430  0.00  0.00     0.000 OA
ATOM     39   O  IDS B   2      52.727  86.440  70.2670  0.00  0.00     0.000 OA
ENDBRANCH 28 37
BRANCH 24 40
ATOM     40  O4  SUS B   3      57.849  86.343  72.8470  0.00  0.00     0.000 O
BRANCH 40 44
ATOM     41  C1  SUS B   3      57.934  84.586  76.6490  0.00  0.00     0.000 C
ATOM     42  C2  SUS B   3      56.761  84.207  75.7230  0.00  0.00     0.000 C
ATOM     43  C3  SUS B   3      57.135  84.532  74.2780  0.00  0.00     0.000 C
ATOM     44  C4  SUS B   3      57.542  85.994  74.1920  0.00  0.00     0.000 C
ATOM     45  C5  SUS B   3      58.755  86.218  75.0720  0.00  0.00     0.000 C
ATOM     46  O5  SUS B   3      58.383  85.929  76.4340  0.00  0.00     0.000 O
BRANCH 42 49
ATOM     47   N  SUS B   3      55.917  83.954  76.9030  0.00  0.00     0.000 N
ATOM     49  HD  SUS B   3      56.325  83.891  77.6640  0.00  0.00     0.000 HD
ATOM     49   S  SUS B   3      54.983  82.664  76.7300  0.00  0.00     0.000 S
ATOM     50   O  SUS B   3      55.777  81.530  76.4640  0.00  0.00     0.000 OA
ATOM     51   O  SUS B   3      54.453  82.630  78.1860  0.00  0.00     0.000 OA
ATOM     52   O  SUS B   3      53.942  82.959  75.8280  0.00  0.00     0.000 OA
ENDBRANCH 42 49
BRANCH 43 53
ATOM     53   O  SUS B   3      55.947  84.292  73.4360  0.00  0.00     0.000 O
ATOM     54   S  SUS B   3      56.040  83.071  72.3390  0.00  0.00     0.000 S
ATOM     55   O  SUS B   3      56.019  81.817  73.0790  0.00  0.00     0.000 OA
ATOM     56   O  SUS B   3      54.878  83.270  71.4920  0.00  0.00     0.000 OA
ATOM     57   O  SUS B   3      57.310  83.247  71.6290  0.00  0.00     0.000 OA
ENDBRANCH 43 53
BRANCH 45 58
ATOM     58   C  SUS B   3      59.283  87.631  74.9610  0.00  0.00     0.000 C
ATOM     59   S  SUS B   3      58.933  90.008  75.8650  0.00  0.00     0.000 S
ATOM     60   O  SUS B   3      58.664  88.450  75.9680  0.00  0.00     0.000 O
ATOM     61   O  SUS B   3      58.058  90.475  74.8070  0.00  0.00     0.000 OA
ATOM     62   O  SUS B   3      58.507  90.439  77.1690  0.00  0.00     0.000 OA
ATOM     63   O  SUS B   3      60.323  90.137  75.6060  0.00  0.00     0.000 OA
ENDBRANCH 45 58
BRANCH 41 64
ATOM     64  O4  IDS B   4      58.942  83.654  76.6740  0.00  0.00     0.000 O
BRANCH 64 68
ATOM     65  C1  IDS B   4      61.299  81.224  78.0210  0.00  0.00     0.000 C
ATOM     66  C2  IDS B   4      59.799  81.091  78.3160  0.00  0.00     0.000 C
ATOM     67  C3  IDS B   4      59.127  82.385  78.7440  0.00  0.00     0.000 C
ATOM     68  C4  IDS B   4      59.608  83.588  77.9550  0.00  0.00     0.000 C
ATOM     69  C5  IDS B   4      61.136  83.508  77.8460  0.00  0.00     0.000 C
ATOM     70  O5  IDS B   4      61.496  82.316  77.1420  0.00  0.00     0.000 O
ATOM     71   O  IDS B   4      59.408  82.570  80.1160  0.00  0.00     0.000 O
ATOM     73  HD  IDS B   4      59.341  82.119  79.3790  0.00  0.00     0.000 HD
BRANCH 66 73
ATOM     73   O  IDS B   4      59.110  80.680  77.0860  0.00  0.00     0.000 O
ATOM     74   S  IDS B   4      58.518  79.176  77.0150  0.00  0.00     0.000 S
ATOM     75   O  IDS B   4      59.629  78.285  77.2700  0.00  0.00     0.000 OA
ATOM     76   O  IDS B   4      58.017  79.118  75.6650  0.00  0.00     0.000 OA
ATOM     77   O  IDS B   4      57.494  79.117  78.0310  0.00  0.00     0.000 OA
ENDBRANCH 66 73
BRANCH 69 78
ATOM     78   C  IDS B   4      61.793  84.756  77.2720  0.00  0.00     0.000 C
ATOM     79   O  IDS B   4      61.330  85.857  77.5680  0.00  0.00     0.000 OA
ATOM     80   O  IDS B   4      62.838  84.628  76.6080  0.00  0.00     0.000 OA
ENDBRANCH 69 78
BRANCH 65 81
ATOM     81  O4  SGN B   5      61.991  81.248  79.1940  0.00  0.00     0.000 O
BRANCH 81 85
ATOM     82  C1  SGN B   5      65.567  80.052  81.0430  0.00  0.00     0.000 C
ATOM     83  C2  SGN B   5      65.671  81.129  79.9530  0.00  0.00     0.000 C
ATOM     84  C3  SGN B   5      64.293  81.767  79.7280  0.00  0.00     0.000 C
ATOM     85  C4  SGN B   5      63.286  80.679  79.3980  0.00  0.00     0.000 C
ATOM     86  C5  SGN B   5      63.255  79.687  80.5580  0.00  0.00     0.000 C
ATOM     87  O5  SGN B   5      64.566  79.110  80.7080  0.00  0.00     0.000 O
ATOM     88   O  SGN B   5      64.369  82.718  78.6890  0.00  0.00     0.000 O
ATOM     90  HD  SGN B   5      64.353  82.900  79.5350  0.00  0.00     0.000 HD
BRANCH 83 92
ATOM     90   N  SGN B   5      67.091  80.743  79.8350  0.00  0.00     0.000 N
ATOM     92  HD  SGN B   5      67.187  80.078  79.2890  0.00  0.00     0.000 HD
ATOM     92   S  SGN B   5      68.176  81.907  79.6830  0.00  0.00     0.000 S
ATOM     93   O  SGN B   5      69.426  81.215  79.5870  0.00  0.00     0.000 OA
ATOM     94   O  SGN B   5      67.724  82.716  78.6030  0.00  0.00     0.000 OA
ATOM     95   O  SGN B   5      68.042  82.725  80.9480  0.00  0.00     0.000 OA
ENDBRANCH 83 92
BRANCH 86 96
ATOM     96   C  SGN B   5      62.277  78.545  80.3720  0.00  0.00     0.000 C
ATOM     97   O  SGN B   5      62.412  77.977  79.0670  0.00  0.00     0.000 O
ATOM     98   S  SGN B   5      62.582  76.384  79.0040  0.00  0.00     0.000 S
ATOM     99   O  SGN B   5      62.485  76.109  77.5910  0.00  0.00     0.000 OA
ATOM    100   O  SGN B   5      63.836  76.066  79.5850  0.00  0.00     0.000 OA
ATOM    101   O  SGN B   5      61.477  75.880  79.7550  0.00  0.00     0.000 OA
ENDBRANCH 86 96
BRANCH 82 102
ATOM    102  O4  IDS B   6      65.330  80.577  82.2790  0.00  0.00     0.000 O
BRANCH 102 106
ATOM    103  C1  IDS B   6      65.966  81.342  85.7810  0.00  0.00     0.000 C
ATOM    104  C2  IDS B   6      66.981  81.732  84.6950  0.00  0.00     0.000 C
ATOM    105  C3  IDS B   6      67.308  80.636  83.6980  0.00  0.00     0.000 C
ATOM    106  C4  IDS B   6      66.084  79.843  83.2770  0.00  0.00     0.000 C
ATOM    107  C5  IDS B   6      65.216  79.541  84.5020  0.00  0.00     0.000 C
ATOM    108  O5  IDS B   6      64.834  80.733  85.1910  0.00  0.00     0.000 O
ATOM    109   O  IDS B   6      68.283  79.787  84.2800  0.00  0.00     0.000 O
ATOM    111  HD  IDS B   6      68.187  79.912  85.1310  0.00  0.00     0.000 HD
BRANCH 104 111
ATOM    111   O  IDS B   6      66.426  82.833  83.8930  0.00  0.00     0.000 O
ATOM    112   S  IDS B   6      66.995  84.308  84.1440  0.00  0.00     0.000 S
ATOM    113   O  IDS B   6      66.736  84.565  85.5520  0.00  0.00     0.000 OA
ATOM    114   O  IDS B   6      68.413  84.329  83.7680  0.00  0.00     0.000 OA
ATOM    115   O  IDS B   6      66.135  85.047  83.2450  0.00  0.00     0.000 OA
ENDBRANCH 104 111
BRANCH 107 116
ATOM    116   C  IDS B   6      63.973  78.777  84.0630  0.00  0.00     0.000 C
ATOM    117   O  IDS B   6      64.141  77.653  83.6630  0.00  0.00     0.000 OA
ATOM    118   O  IDS B   6      62.865  79.287  84.1080  0.00  0.00     0.000 OA
ENDBRANCH 107 116
BRANCH 103 119
ATOM    119  O4  SGN B   7      66.719  80.691  86.7050  0.00  0.00     0.000 O
BRANCH 119 123
ATOM    120  C1  SGN B   7      66.786  80.342  90.8720  0.00  0.00     0.000 C
ATOM    121  C2  SGN B   7      65.672  79.597  90.1110  0.00  0.00     0.000 C
ATOM    122  C3  SGN B   7      66.017  79.491  88.6200  0.00  0.00     0.000 C
ATOM    123  C4  SGN B   7      66.324  80.872  88.0650  0.00  0.00     0.000 C
ATOM    124  C5  SGN B   7      67.438  81.533  88.8930  0.00  0.00     0.000 C
ATOM    125  O5  SGN B   7      67.071  81.612  90.2880  0.00  0.00     0.000 O
ATOM    126   O  SGN B   7      64.919  78.883  87.9300  0.00  0.00     0.000 O
ATOM    128  HD  SGN B   7      65.290  79.089  88.6850  0.00  0.00     0.000 HD
BRANCH 121 130
ATOM    128   N  SGN B   7      64.928  79.385  91.3550  0.00  0.00     0.000 N
ATOM    130  HD  SGN B   7      64.183  79.369  90.9150  0.00  0.00     0.000 HD
ATOM    130   S  SGN B   7      64.265  77.966  91.7280  0.00  0.00     0.000 S
ATOM    131   O  SGN B   7      65.304  77.010  91.5490  0.00  0.00     0.000 OA
ATOM    132   O  SGN B   7      63.616  78.092  92.9830  0.00  0.00     0.000 OA
ATOM    133   O  SGN B   7      63.099  77.917  90.6830  0.00  0.00     0.000 OA
ENDBRANCH 121 130
BRANCH 124 134
ATOM    134   C  SGN B   7      67.734  82.948  88.4930  0.00  0.00     0.000 C
ATOM    135   O  SGN B   7      67.963  83.722  89.6830  0.00  0.00     0.000 O
ATOM    136   S  SGN B   7      68.440  85.204  89.4740  0.00  0.00     0.000 S
ATOM    137   O  SGN B   7      68.500  85.800  90.7870  0.00  0.00     0.000 OA
ATOM    138   O  SGN B   7      67.439  85.807  88.6240  0.00  0.00     0.000 OA
ATOM    139   O  SGN B   7      69.739  85.028  88.8430  0.00  0.00     0.000 OA
ENDBRANCH 124 134
BRANCH 120 140
ATOM    140  O4  IDS B   8      68.038  79.934  91.1050  0.00  0.00     0.000 O
BRANCH 140 144
ATOM    141  C1  IDS B   8      71.257  78.460  90.4520  0.00  0.00     0.000 C
ATOM    142  C2  IDS B   8      69.960  77.850  89.8460  0.00  0.00     0.000 C
ATOM    143  C3  IDS B   8      68.839  77.663  90.8850  0.00  0.00     0.000 C
ATOM    144  C4  IDS B   8      68.702  78.874  91.8050  0.00  0.00     0.000 C
ATOM    145  C5  IDS B   8      70.088  79.341  92.2770  0.00  0.00     0.000 C
ATOM    146  O5  IDS B   8      70.945  79.642  91.1780  0.00  0.00     0.000 O
BRANCH 142 147
ATOM    147   O  IDS B   8      69.434  78.754  88.7900  0.00  0.00     0.000 O
ATOM    148   S  IDS B   8      69.738  78.474  87.2220  0.00  0.00     0.000 S
ATOM    149   O  IDS B   8      70.836  77.536  87.1490  0.00  0.00     0.000 OA
ATOM    150   O  IDS B   8      68.504  77.936  86.6780  0.00  0.00     0.000 OA
ATOM    151   O  IDS B   8      70.090  79.765  86.6640  0.00  0.00     0.000 OA
ENDBRANCH 142 147
BRANCH 145 152
ATOM    152   C  IDS B   8      70.025  80.602  93.1150  0.00  0.00     0.000 C
ATOM    153   O  IDS B   8      70.612  81.609  92.7360  0.00  0.00     0.000 OA
ATOM    154   O  IDS B   8      69.375  80.608  94.1450  0.00  0.00     0.000 OA
ENDBRANCH 145 152
ENDBRANCH 140 144
ENDBRANCH 120 140
ENDBRANCH 119 123
ENDBRANCH 103 119
ENDBRANCH 102 106
ENDBRANCH 82 102
ENDBRANCH 81 85
ENDBRANCH 65 81
ENDBRANCH 64 68
ENDBRANCH 41 64
ENDBRANCH 40 44
ENDBRANCH 24 40
ENDBRANCH 23 27
ENDBRANCH 1 23
TORSDOF 31
ENDMDL
MODEL 86
REMARK VINA RESULT:      -1.2     49.807     58.100
ROOT
ATOM      1  C1  SGN B   1       8.458  51.427  58.9940  0.00  0.00     0.000 C
ATOM      2  C2  SGN B   1       7.909  52.505  58.0460  0.00  0.00     0.000 C
ATOM      3  C3  SGN B   1       8.838  53.724  58.0150  0.00  0.00     0.000 C
ATOM      4  C4  SGN B   1       9.050  54.260  59.4260  0.00  0.00     0.000 C
ATOM      5  C5  SGN B   1       9.457  53.108  60.3420  0.00  0.00     0.000 C
ATOM      6  O5  SGN B   1       8.470  52.061  60.2660  0.00  0.00     0.000 O
ATOM      7   O  SGN B   1       8.304  54.738  57.1710  0.00  0.00     0.000 O
ATOM      9  HD  SGN B   1       7.684  54.665  57.7720  0.00  0.00     0.000 HD
ATOM      9   O  SGN B   1      10.063  55.249  59.4070  0.00  0.00     0.000 O
ATOM     11  HD  SGN B   1       9.444  55.176  60.0080  0.00  0.00     0.000 HD
ENDROOT
BRANCH 2 13
ATOM     11   N  SGN B   1       6.668  51.916  57.5090  0.00  0.00     0.000 N
ATOM     13  HD  SGN B   1       7.407  51.465  57.5040  0.00  0.00     0.000 HD
ATOM     13   S  SGN B   1       6.677  50.804  56.3470  0.00  0.00     0.000 S
ATOM     14   O  SGN B   1       8.004  50.477  55.9980  0.00  0.00     0.000 OA
ATOM     15   O  SGN B   1       5.773  49.765  56.7110  0.00  0.00     0.000 OA
ATOM     16   O  SGN B   1       5.987  51.644  55.2280  0.00  0.00     0.000 OA
ENDBRANCH 2 13
BRANCH 5 17
ATOM     17   C  SGN B   1       9.591  53.495  61.7940  0.00  0.00     0.000 C
ATOM     18   O  SGN B   1       8.532  54.390  62.1880  0.00  0.00     0.000 O
ATOM     19   S  SGN B   1       8.973  55.661  63.0510  0.00  0.00     0.000 S
ATOM     20   O  SGN B   1       7.734  56.253  63.5090  0.00  0.00     0.000 OA
ATOM     21   O  SGN B   1       9.775  55.104  64.1150  0.00  0.00     0.000 OA
ATOM     22   O  SGN B   1       9.713  56.501  62.1350  0.00  0.00     0.000 OA
ENDBRANCH 5 17
BRANCH 1 23
ATOM     23  O4  IDS B   2       9.279  50.338  58.9880  0.00  0.00     0.000 O
BRANCH 23 27
ATOM     24  C1  IDS B   2      13.282  51.336  59.4450  0.00  0.00     0.000 C
ATOM     25  C2  IDS B   2      12.790  51.203  57.9870  0.00  0.00     0.000 C
ATOM     26  C3  IDS B   2      11.266  51.132  57.9290  0.00  0.00     0.000 C
ATOM     27  C4  IDS B   2      10.676  50.031  58.7990  0.00  0.00     0.000 C
ATOM     28  C5  IDS B   2      11.483  49.902  60.1060  0.00  0.00     0.000 C
ATOM     29  O5  IDS B   2      12.214  51.090  60.3700  0.00  0.00     0.000 O
ATOM     30   O  IDS B   2      10.859  50.886  56.5880  0.00  0.00     0.000 O
ATOM     32  HD  IDS B   2      10.936  50.055  56.3550  0.00  0.00     0.000 HD
BRANCH 25 32
ATOM     32   O  IDS B   2      13.217  52.347  57.1440  0.00  0.00     0.000 O
ATOM     33   S  IDS B   2      14.208  52.146  55.8390  0.00  0.00     0.000 S
ATOM     34   O  IDS B   2      14.586  53.482  55.4080  0.00  0.00     0.000 OA
ATOM     35   O  IDS B   2      15.372  51.364  56.2310  0.00  0.00     0.000 OA
ATOM     36   O  IDS B   2      13.406  51.477  54.8410  0.00  0.00     0.000 OA
ENDBRANCH 25 32
BRANCH 28 37
ATOM     37   C  IDS B   2      10.721  49.507  61.3880  0.00  0.00     0.000 C
ATOM     38   O  IDS B   2      10.864  50.308  62.2820  0.00  0.00     0.000 OA
ATOM     39   O  IDS B   2       9.962  48.519  61.5410  0.00  0.00     0.000 OA
ENDBRANCH 28 37
BRANCH 24 40
ATOM     40  O4  SUS B   3      14.605  51.345  59.7100  0.00  0.00     0.000 O
BRANCH 40 44
ATOM     41  C1  SUS B   3      16.767  53.388  62.6590  0.00  0.00     0.000 C
ATOM     42  C2  SUS B   3      15.849  52.241  63.1260  0.00  0.00     0.000 C
ATOM     43  C3  SUS B   3      15.538  51.331  61.9400  0.00  0.00     0.000 C
ATOM     44  C4  SUS B   3      14.954  52.172  60.8150  0.00  0.00     0.000 C
ATOM     45  C5  SUS B   3      15.982  53.198  60.3850  0.00  0.00     0.000 C
ATOM     46  O5  SUS B   3      16.250  54.064  61.5070  0.00  0.00     0.000 O
BRANCH 42 49
ATOM     47   N  SUS B   3      15.689  52.906  64.4310  0.00  0.00     0.000 N
ATOM     49  HD  SUS B   3      16.246  53.544  64.6110  0.00  0.00     0.000 HD
ATOM     49   S  SUS B   3      15.701  51.873  65.6560  0.00  0.00     0.000 S
ATOM     50   O  SUS B   3      16.900  51.132  65.6460  0.00  0.00     0.000 OA
ATOM     51   O  SUS B   3      15.725  52.935  66.7850  0.00  0.00     0.000 OA
ATOM     52   O  SUS B   3      14.489  51.155  65.6730  0.00  0.00     0.000 OA
ENDBRANCH 42 49
BRANCH 43 53
ATOM     53   O  SUS B   3      14.549  50.329  62.3820  0.00  0.00     0.000 O
ATOM     54   S  SUS B   3      15.039  48.761  62.4250  0.00  0.00     0.000 S
ATOM     55   O  SUS B   3      15.973  48.626  63.5340  0.00  0.00     0.000 OA
ATOM     56   O  SUS B   3      13.807  48.012  62.6020  0.00  0.00     0.000 OA
ATOM     57   O  SUS B   3      15.697  48.496  61.1420  0.00  0.00     0.000 OA
ENDBRANCH 43 53
BRANCH 45 58
ATOM     58   C  SUS B   3      15.511  54.011  59.1990  0.00  0.00     0.000 C
ATOM     59   S  SUS B   3      14.088  56.051  58.5690  0.00  0.00     0.000 S
ATOM     60   O  SUS B   3      14.837  55.191  59.6670  0.00  0.00     0.000 O
ATOM     61   O  SUS B   3      12.856  55.334  58.3010  0.00  0.00     0.000 OA
ATOM     62   O  SUS B   3      13.872  57.277  59.2900  0.00  0.00     0.000 OA
ATOM     63   O  SUS B   3      14.990  56.139  57.4750  0.00  0.00     0.000 OA
ENDBRANCH 45 58
BRANCH 41 64
ATOM     64  O4  IDS B   4      18.089  53.031  62.5550  0.00  0.00     0.000 O
BRANCH 64 68
ATOM     65  C1  IDS B   4      21.686  53.081  63.1350  0.00  0.00     0.000 C
ATOM     66  C2  IDS B   4      20.714  53.002  64.3190  0.00  0.00     0.000 C
ATOM     67  C3  IDS B   4      19.557  53.984  64.2470  0.00  0.00     0.000 C
ATOM     68  C4  IDS B   4      18.987  54.124  62.8480  0.00  0.00     0.000 C
ATOM     69  C5  IDS B   4      20.159  54.234  61.8640  0.00  0.00     0.000 C
ATOM     70  O5  IDS B   4      20.942  53.040  61.9300  0.00  0.00     0.000 O
ATOM     71   O  IDS B   4      20.040  55.235  64.6930  0.00  0.00     0.000 O
ATOM     73  HD  IDS B   4      20.053  54.374  64.5980  0.00  0.00     0.000 HD
BRANCH 66 73
ATOM     73   O  IDS B   4      20.095  51.670  64.3340  0.00  0.00     0.000 O
ATOM     74   S  IDS B   4      20.521  50.650  65.5160  0.00  0.00     0.000 S
ATOM     75   O  IDS B   4      21.960  50.517  65.4450  0.00  0.00     0.000 OA
ATOM     76   O  IDS B   4      19.802  49.456  65.1500  0.00  0.00     0.000 OA
ATOM     77   O  IDS B   4      20.064  51.267  66.7400  0.00  0.00     0.000 OA
ENDBRANCH 66 73
BRANCH 69 78
ATOM     78   C  IDS B   4      19.755  54.599  60.4420  0.00  0.00     0.000 C
ATOM     79   O  IDS B   4      18.835  55.399  60.2770  0.00  0.00     0.000 OA
ATOM     80   O  IDS B   4      20.436  54.160  59.4980  0.00  0.00     0.000 OA
ENDBRANCH 69 78
BRANCH 65 81
ATOM     81  O4  SGN B   5      22.520  54.145  63.3040  0.00  0.00     0.000 O
BRANCH 81 85
ATOM     82  C1  SGN B   5      26.445  55.504  62.6830  0.00  0.00     0.000 C
ATOM     83  C2  SGN B   5      25.582  55.270  61.4340  0.00  0.00     0.000 C
ATOM     84  C3  SGN B   5      24.100  55.239  61.8330  0.00  0.00     0.000 C
ATOM     85  C4  SGN B   5      23.893  54.186  62.9080  0.00  0.00     0.000 C
ATOM     86  C5  SGN B   5      24.780  54.537  64.0990  0.00  0.00     0.000 C
ATOM     87  O5  SGN B   5      26.155  54.532  63.6690  0.00  0.00     0.000 O
ATOM     88   O  SGN B   5      23.304  54.967  60.7000  0.00  0.00     0.000 O
ATOM     90  HD  SGN B   5      23.419  55.748  61.0570  0.00  0.00     0.000 HD
BRANCH 83 92
ATOM     90   N  SGN B   5      26.850  55.179  60.6850  0.00  0.00     0.000 N
ATOM     92  HD  SGN B   5      27.166  54.373  60.7070  0.00  0.00     0.000 HD
ATOM     92   S  SGN B   5      26.937  55.901  59.2620  0.00  0.00     0.000 S
ATOM     93   O  SGN B   5      28.265  55.624  58.8050  0.00  0.00     0.000 OA
ATOM     94   O  SGN B   5      25.816  55.432  58.5230  0.00  0.00     0.000 OA
ATOM     95   O  SGN B   5      26.702  57.366  59.5600  0.00  0.00     0.000 OA
ENDBRANCH 83 92
BRANCH 86 96
ATOM     96   C  SGN B   5      24.668  53.573  65.2620  0.00  0.00     0.000 C
ATOM     97   O  SGN B   5      24.744  52.221  64.8020  0.00  0.00     0.000 O
ATOM     98   S  SGN B   5      25.800  51.278  65.5550  0.00  0.00     0.000 S
ATOM     99   O  SGN B   5      25.498  49.972  65.0200  0.00  0.00     0.000 OA
ATOM    100   O  SGN B   5      27.098  51.759  65.2440  0.00  0.00     0.000 OA
ATOM    101   O  SGN B   5      25.474  51.412  66.9370  0.00  0.00     0.000 OA
ENDBRANCH 86 96
BRANCH 82 102
ATOM    102  O4  IDS B   6      26.297  56.759  63.1950  0.00  0.00     0.000 O
BRANCH 102 106
ATOM    103  C1  IDS B   6      27.297  60.107  64.2190  0.00  0.00     0.000 C
ATOM    104  C2  IDS B   6      27.531  59.623  62.7790  0.00  0.00     0.000 C
ATOM    105  C3  IDS B   6      28.151  58.244  62.6570  0.00  0.00     0.000 C
ATOM    106  C4  IDS B   6      27.580  57.254  63.6570  0.00  0.00     0.000 C
ATOM    107  C5  IDS B   6      27.443  57.923  65.0280  0.00  0.00     0.000 C
ATOM    108  O5  IDS B   6      26.639  59.102  64.9670  0.00  0.00     0.000 O
ATOM    109   O  IDS B   6      29.553  58.375  62.8220  0.00  0.00     0.000 O
ATOM    111  HD  IDS B   6      29.643  59.114  63.2650  0.00  0.00     0.000 HD
BRANCH 104 111
ATOM    111   O  IDS B   6      26.235  59.529  62.0890  0.00  0.00     0.000 O
ATOM    112   S  IDS B   6      25.859  60.672  61.0330  0.00  0.00     0.000 S
ATOM    113   O  IDS B   6      25.902  61.907  61.8010  0.00  0.00     0.000 OA
ATOM    114   O  IDS B   6      26.814  60.608  59.9210  0.00  0.00     0.000 OA
ATOM    115   O  IDS B   6      24.522  60.241  60.6880  0.00  0.00     0.000 OA
ENDBRANCH 104 111
BRANCH 107 116
ATOM    116   C  IDS B   6      26.836  56.933  66.0130  0.00  0.00     0.000 C
ATOM    117   O  IDS B   6      27.519  55.990  66.3250  0.00  0.00     0.000 OA
ATOM    118   O  IDS B   6      25.709  57.087  66.4560  0.00  0.00     0.000 OA
ENDBRANCH 107 116
BRANCH 103 119
ATOM    119  O4  SGN B   7      28.508  60.590  64.5960  0.00  0.00     0.000 O
BRANCH 119 123
ATOM    120  C1  SGN B   7      29.923  63.736  66.9600  0.00  0.00     0.000 C
ATOM    121  C2  SGN B   7      29.313  62.520  67.6820  0.00  0.00     0.000 C
ATOM    122  C3  SGN B   7      29.222  61.320  66.7310  0.00  0.00     0.000 C
ATOM    123  C4  SGN B   7      28.480  61.721  65.4670  0.00  0.00     0.000 C
ATOM    124  C5  SGN B   7      29.160  62.943  64.8280  0.00  0.00     0.000 C
ATOM    125  O5  SGN B   7      29.223  64.048  65.7570  0.00  0.00     0.000 O
ATOM    126   O  SGN B   7      28.562  60.241  67.4040  0.00  0.00     0.000 O
ATOM    128  HD  SGN B   7      28.930  61.024  67.4530  0.00  0.00     0.000 HD
BRANCH 121 130
ATOM    128   N  SGN B   7      29.223  63.275  68.9340  0.00  0.00     0.000 N
ATOM    130  HD  SGN B   7      28.546  62.795  69.1830  0.00  0.00     0.000 HD
ATOM    130   S  SGN B   7      29.668  62.648  70.3500  0.00  0.00     0.000 S
ATOM    131   O  SGN B   7      30.970  62.118  70.1300  0.00  0.00     0.000 OA
ATOM    132   O  SGN B   7      29.451  63.623  71.3570  0.00  0.00     0.000 OA
ATOM    133   O  SGN B   7      28.525  61.598  70.5630  0.00  0.00     0.000 OA
ENDBRANCH 121 130
BRANCH 124 134
ATOM    134   C  SGN B   7      28.432  63.487  63.6340  0.00  0.00     0.000 C
ATOM    135   O  SGN B   7      28.476  64.923  63.6870  0.00  0.00     0.000 O
ATOM    136   S  SGN B   7      27.899  65.688  62.4420  0.00  0.00     0.000 S
ATOM    137   O  SGN B   7      27.954  67.093  62.7660  0.00  0.00     0.000 OA
ATOM    138   O  SGN B   7      26.549  65.196  62.2880  0.00  0.00     0.000 OA
ATOM    139   O  SGN B   7      28.810  65.289  61.3800  0.00  0.00     0.000 OA
ENDBRANCH 124 134
BRANCH 120 140
ATOM    140  O4  IDS B   8      31.177  63.887  66.5170  0.00  0.00     0.000 O
BRANCH 140 144
ATOM    141  C1  IDS B   8      34.301  63.024  64.9510  0.00  0.00     0.000 C
ATOM    142  C2  IDS B   8      33.515  61.981  65.7950  0.00  0.00     0.000 C
ATOM    143  C3  IDS B   8      33.068  62.526  67.1650  0.00  0.00     0.000 C
ATOM    144  C4  IDS B   8      32.501  63.941  67.0610  0.00  0.00     0.000 C
ATOM    145  C5  IDS B   8      33.403  64.808  66.1690  0.00  0.00     0.000 C
ATOM    146  O5  IDS B   8      33.566  64.239  64.8720  0.00  0.00     0.000 O
BRANCH 142 147
ATOM    147   O  IDS B   8      32.287  61.574  65.0620  0.00  0.00     0.000 O
ATOM    148   S  IDS B   8      32.248  60.204  64.1940  0.00  0.00     0.000 S
ATOM    149   O  IDS B   8      33.613  59.779  63.9830  0.00  0.00     0.000 OA
ATOM    150   O  IDS B   8      31.483  59.263  64.9910  0.00  0.00     0.000 OA
ATOM    151   O  IDS B   8      31.593  60.560  62.9500  0.00  0.00     0.000 OA
ENDBRANCH 142 147
BRANCH 145 152
ATOM    152   C  IDS B   8      32.840  66.198  65.9470  0.00  0.00     0.000 C
ATOM    153   O  IDS B   8      32.626  66.925  66.9100  0.00  0.00     0.000 OA
ATOM    154   O  IDS B   8      32.624  66.585  64.8120  0.00  0.00     0.000 OA
ENDBRANCH 145 152
ENDBRANCH 140 144
ENDBRANCH 120 140
ENDBRANCH 119 123
ENDBRANCH 103 119
ENDBRANCH 102 106
ENDBRANCH 82 102
ENDBRANCH 81 85
ENDBRANCH 65 81
ENDBRANCH 64 68
ENDBRANCH 41 64
ENDBRANCH 40 44
ENDBRANCH 24 40
ENDBRANCH 23 27
ENDBRANCH 1 23
TORSDOF 31
ENDMDL
MODEL 87
REMARK VINA RESULT:      -1.2     71.434     77.327
ROOT
ATOM      1  C1  SGN B   1      66.224  84.625  56.2050  0.00  0.00     0.000 C
ATOM      2  C2  SGN B   1      67.666  84.513  56.7280  0.00  0.00     0.000 C
ATOM      3  C3  SGN B   1      68.301  83.190  56.2870  0.00  0.00     0.000 C
ATOM      4  C4  SGN B   1      67.438  82.016  56.7370  0.00  0.00     0.000 C
ATOM      5  C5  SGN B   1      65.994  82.264  56.3070  0.00  0.00     0.000 C
ATOM      6  O5  SGN B   1      65.550  83.535  56.8190  0.00  0.00     0.000 O
ATOM      7   O  SGN B   1      69.619  83.070  56.8090  0.00  0.00     0.000 O
ATOM      9  HD  SGN B   1      69.146  83.118  57.5330  0.00  0.00     0.000 HD
ATOM      9   O  SGN B   1      67.925  80.823  56.1520  0.00  0.00     0.000 O
ATOM     11  HD  SGN B   1      67.452  80.871  56.8760  0.00  0.00     0.000 HD
ENDROOT
BRANCH 2 13
ATOM     11   N  SGN B   1      67.852  85.781  57.4590  0.00  0.00     0.000 N
ATOM     13  HD  SGN B   1      67.562  85.782  56.6430  0.00  0.00     0.000 HD
ATOM     13   S  SGN B   1      68.192  87.163  56.7100  0.00  0.00     0.000 S
ATOM     14   O  SGN B   1      68.223  86.964  55.3140  0.00  0.00     0.000 OA
ATOM     15   O  SGN B   1      67.361  88.186  57.2530  0.00  0.00     0.000 OA
ATOM     16   O  SGN B   1      69.625  87.382  57.2840  0.00  0.00     0.000 OA
ENDBRANCH 2 13
BRANCH 5 17
ATOM     17   C  SGN B   1      65.021  81.219  56.7920  0.00  0.00     0.000 C
ATOM     18   O  SGN B   1      65.311  80.836  58.1520  0.00  0.00     0.000 O
ATOM     19   S  SGN B   1      65.295  79.267  58.4580  0.00  0.00     0.000 S
ATOM     20   O  SGN B   1      65.377  79.165  59.8990  0.00  0.00     0.000 OA
ATOM     21   O  SGN B   1      64.034  78.815  57.9170  0.00  0.00     0.000 OA
ATOM     22   O  SGN B   1      66.453  78.736  57.7720  0.00  0.00     0.000 OA
ENDBRANCH 5 17
BRANCH 1 23
ATOM     23  O4  IDS B   2      65.527  85.078  55.1240  0.00  0.00     0.000 O
BRANCH 23 27
ATOM     24  C1  IDS B   2      65.366  82.308  52.0370  0.00  0.00     0.000 C
ATOM     25  C2  IDS B   2      66.520  83.331  51.9550  0.00  0.00     0.000 C
ATOM     26  C3  IDS B   2      66.665  84.097  53.2680  0.00  0.00     0.000 C
ATOM     27  C4  IDS B   2      65.378  84.772  53.7220  0.00  0.00     0.000 C
ATOM     28  C5  IDS B   2      64.167  83.876  53.3910  0.00  0.00     0.000 C
ATOM     29  O5  IDS B   2      64.569  82.526  53.2090  0.00  0.00     0.000 O
ATOM     30   O  IDS B   2      67.650  85.111  53.1120  0.00  0.00     0.000 O
ATOM     32  HD  IDS B   2      67.355  85.813  52.6990  0.00  0.00     0.000 HD
BRANCH 25 32
ATOM     32   O  IDS B   2      67.824  82.684  51.6680  0.00  0.00     0.000 O
ATOM     33   S  IDS B   2      68.680  83.020  50.2980  0.00  0.00     0.000 S
ATOM     34   O  IDS B   2      69.765  82.053  50.2500  0.00  0.00     0.000 OA
ATOM     35   O  IDS B   2      67.807  82.898  49.1390  0.00  0.00     0.000 OA
ATOM     36   O  IDS B   2      69.181  84.364  50.4710  0.00  0.00     0.000 OA
ENDBRANCH 25 32
BRANCH 28 37
ATOM     37   C  IDS B   2      62.967  83.898  54.3600  0.00  0.00     0.000 C
ATOM     38   O  IDS B   2      62.687  82.801  54.7830  0.00  0.00     0.000 OA
ATOM     39   O  IDS B   2      62.344  84.909  54.7670  0.00  0.00     0.000 OA
ENDBRANCH 28 37
BRANCH 24 40
ATOM     40  O4  SUS B   3      65.035  81.578  50.9520  0.00  0.00     0.000 O
BRANCH 40 44
ATOM     41  C1  SUS B   3      63.615  77.649  50.6510  0.00  0.00     0.000 C
ATOM     42  C2  SUS B   3      62.657  78.701  51.2440  0.00  0.00     0.000 C
ATOM     43  C3  SUS B   3      63.129  80.096  50.8400  0.00  0.00     0.000 C
ATOM     44  C4  SUS B   3      64.578  80.268  51.2690  0.00  0.00     0.000 C
ATOM     45  C5  SUS B   3      65.427  79.238  50.5510  0.00  0.00     0.000 C
ATOM     46  O5  SUS B   3      64.985  77.928  50.9590  0.00  0.00     0.000 O
BRANCH 42 49
ATOM     47   N  SUS B   3      61.218  78.611  50.9420  0.00  0.00     0.000 N
ATOM     49  HD  SUS B   3      60.809  79.356  50.7790  0.00  0.00     0.000 HD
ATOM     49   S  SUS B   3      60.397  77.829  52.0740  0.00  0.00     0.000 S
ATOM     50   O  SUS B   3      60.580  78.460  53.3210  0.00  0.00     0.000 OA
ATOM     51   O  SUS B   3      58.984  78.130  51.5110  0.00  0.00     0.000 OA
ATOM     52   O  SUS B   3      60.682  76.452  51.9910  0.00  0.00     0.000 OA
ENDBRANCH 42 49
BRANCH 43 53
ATOM     53   O  SUS B   3      62.280  81.083  51.5340  0.00  0.00     0.000 O
ATOM     54   S  SUS B   3      61.408  82.114  50.5960  0.00  0.00     0.000 S
ATOM     55   O  SUS B   3      60.346  81.340  49.9690  0.00  0.00     0.000 OA
ATOM     56   O  SUS B   3      60.929  83.118  51.5290  0.00  0.00     0.000 OA
ATOM     57   O  SUS B   3      62.336  82.650  49.5960  0.00  0.00     0.000 OA
ENDBRANCH 43 53
BRANCH 45 58
ATOM     58   C  SUS B   3      66.900  79.410  50.8510  0.00  0.00     0.000 C
ATOM     59   S  SUS B   3      68.704  78.827  52.5800  0.00  0.00     0.000 S
ATOM     60   O  SUS B   3      67.251  78.607  51.9900  0.00  0.00     0.000 O
ATOM     61   O  SUS B   3      68.619  80.055  53.3490  0.00  0.00     0.000 OA
ATOM     62   O  SUS B   3      68.836  77.660  53.4100  0.00  0.00     0.000 OA
ATOM     63   O  SUS B   3      69.569  78.873  51.4550  0.00  0.00     0.000 OA
ENDBRANCH 45 58
BRANCH 41 64
ATOM     64  O4  IDS B   4      63.381  77.371  49.3270  0.00  0.00     0.000 O
BRANCH 64 68
ATOM     65  C1  IDS B   4      62.137  75.298  46.6010  0.00  0.00     0.000 C
ATOM     66  C2  IDS B   4      61.437  75.280  47.9660  0.00  0.00     0.000 C
ATOM     67  C3  IDS B   4      62.378  75.159  49.1530  0.00  0.00     0.000 C
ATOM     68  C4  IDS B   4      63.638  75.989  48.9940  0.00  0.00     0.000 C
ATOM     69  C5  IDS B   4      64.162  75.793  47.5650  0.00  0.00     0.000 C
ATOM     70  O5  IDS B   4      63.180  76.256  46.6350  0.00  0.00     0.000 O
ATOM     71   O  IDS B   4      62.719  73.794  49.2800  0.00  0.00     0.000 O
ATOM     73  HD  IDS B   4      62.247  74.465  49.0040  0.00  0.00     0.000 HD
BRANCH 66 73
ATOM     73   O  IDS B   4      60.734  76.557  48.1530  0.00  0.00     0.000 O
ATOM     74   S  IDS B   4      59.117  76.544  48.1170  0.00  0.00     0.000 S
ATOM     75   O  IDS B   4      58.740  75.963  46.8470  0.00  0.00     0.000 OA
ATOM     76   O  IDS B   4      58.807  77.946  48.2370  0.00  0.00     0.000 OA
ATOM     77   O  IDS B   4      58.713  75.748  49.2520  0.00  0.00     0.000 OA
ENDBRANCH 66 73
BRANCH 69 78
ATOM     78   C  IDS B   4      65.542  76.386  47.3130  0.00  0.00     0.000 C
ATOM     79   O  IDS B   4      65.706  77.594  47.4830  0.00  0.00     0.000 OA
ATOM     80   O  IDS B   4      66.482  75.615  47.0470  0.00  0.00     0.000 OA
ENDBRANCH 69 78
BRANCH 65 81
ATOM     81  O4  SGN B   5      62.483  74.027  46.2530  0.00  0.00     0.000 O
BRANCH 81 85
ATOM     82  C1  SGN B   5      62.863  71.398  43.0000  0.00  0.00     0.000 C
ATOM     83  C2  SGN B   5      63.966  72.452  43.1780  0.00  0.00     0.000 C
ATOM     84  C3  SGN B   5      63.932  72.993  44.6140  0.00  0.00     0.000 C
ATOM     85  C4  SGN B   5      62.543  73.526  44.9160  0.00  0.00     0.000 C
ATOM     86  C5  SGN B   5      61.542  72.389  44.7280  0.00  0.00     0.000 C
ATOM     87  O5  SGN B   5      61.606  71.938  43.3620  0.00  0.00     0.000 O
ATOM     88   O  SGN B   5      64.906  74.002  44.7690  0.00  0.00     0.000 O
ATOM     90  HD  SGN B   5      64.983  73.184  45.0430  0.00  0.00     0.000 HD
BRANCH 83 92
ATOM     90   N  SGN B   5      64.273  72.240  41.7500  0.00  0.00     0.000 N
ATOM     92  HD  SGN B   5      63.776  72.740  41.2480  0.00  0.00     0.000 HD
ATOM     92   S  SGN B   5      65.809  72.159  41.3160  0.00  0.00     0.000 S
ATOM     93   O  SGN B   5      65.767  71.960  39.8990  0.00  0.00     0.000 OA
ATOM     94   O  SGN B   5      66.424  73.324  41.8540  0.00  0.00     0.000 OA
ATOM     95   O  SGN B   5      66.360  70.969  42.0700  0.00  0.00     0.000 OA
ENDBRANCH 83 92
BRANCH 86 96
ATOM     96   C  SGN B   5      60.104  72.776  45.0090  0.00  0.00     0.000 C
ATOM     97   O  SGN B   5      59.767  73.985  44.3260  0.00  0.00     0.000 O
ATOM     98   S  SGN B   5      58.426  73.949  43.4460  0.00  0.00     0.000 S
ATOM     99   O  SGN B   5      58.257  75.331  43.0680  0.00  0.00     0.000 OA
ATOM    100   O  SGN B   5      58.652  73.062  42.3620  0.00  0.00     0.000 OA
ATOM    101   O  SGN B   5      57.423  73.482  44.3470  0.00  0.00     0.000 OA
ENDBRANCH 86 96
BRANCH 82 102
ATOM    102  O4  IDS B   6      63.109  70.257  43.7030  0.00  0.00     0.000 O
BRANCH 102 106
ATOM    103  C1  IDS B   6      63.753  66.712  44.2330  0.00  0.00     0.000 C
ATOM    104  C2  IDS B   6      64.654  67.545  43.3080  0.00  0.00     0.000 C
ATOM    105  C3  IDS B   6      63.919  68.426  42.3160  0.00  0.00     0.000 C
ATOM    106  C4  IDS B   6      62.703  69.103  42.9230  0.00  0.00     0.000 C
ATOM    107  C5  IDS B   6      61.932  68.103  43.7900  0.00  0.00     0.000 C
ATOM    108  O5  IDS B   6      62.757  67.536  44.8090  0.00  0.00     0.000 O
ATOM    109   O  IDS B   6      63.548  67.626  41.2060  0.00  0.00     0.000 O
ATOM    111  HD  IDS B   6      63.537  66.820  41.5230  0.00  0.00     0.000 HD
BRANCH 104 111
ATOM    111   O  IDS B   6      65.458  68.467  44.1250  0.00  0.00     0.000 O
ATOM    112   S  IDS B   6      67.001  68.113  44.3620  0.00  0.00     0.000 S
ATOM    113   O  IDS B   6      66.983  66.805  44.9980  0.00  0.00     0.000 OA
ATOM    114   O  IDS B   6      67.691  68.156  43.0680  0.00  0.00     0.000 OA
ATOM    115   O  IDS B   6      67.354  69.195  45.2550  0.00  0.00     0.000 OA
ENDBRANCH 104 111
BRANCH 107 116
ATOM    116   C  IDS B   6      60.736  68.802  44.4230  0.00  0.00     0.000 C
ATOM    117   O  IDS B   6      59.849  69.138  43.6790  0.00  0.00     0.000 OA
ATOM    118   O  IDS B   6      60.687  69.017  45.6240  0.00  0.00     0.000 OA
ENDBRANCH 107 116
BRANCH 103 119
ATOM    119  O4  SGN B   7      63.426  65.633  43.4770  0.00  0.00     0.000 O
BRANCH 119 123
ATOM    120  C1  SGN B   7      62.754  61.557  44.1280  0.00  0.00     0.000 C
ATOM    121  C2  SGN B   7      61.666  62.543  44.5940  0.00  0.00     0.000 C
ATOM    122  C3  SGN B   7      61.866  63.914  43.9360  0.00  0.00     0.000 C
ATOM    123  C4  SGN B   7      63.284  64.401  44.1840  0.00  0.00     0.000 C
ATOM    124  C5  SGN B   7      64.291  63.348  43.6930  0.00  0.00     0.000 C
ATOM    125  O5  SGN B   7      64.067  62.075  44.3390  0.00  0.00     0.000 O
ATOM    126   O  SGN B   7      60.900  64.829  44.4650  0.00  0.00     0.000 O
ATOM    128  HD  SGN B   7      61.177  64.012  44.3960  0.00  0.00     0.000 HD
BRANCH 121 130
ATOM    128   N  SGN B   7      61.028  61.499  45.4000  0.00  0.00     0.000 N
ATOM    130  HD  SGN B   7      60.723  62.097  45.9470  0.00  0.00     0.000 HD
ATOM    130   S  SGN B   7      59.434  61.271  45.4050  0.00  0.00     0.000 S
ATOM    131   O  SGN B   7      59.064  61.197  44.0330  0.00  0.00     0.000 OA
ATOM    132   O  SGN B   7      59.139  60.198  46.2860  0.00  0.00     0.000 OA
ATOM    133   O  SGN B   7      58.969  62.554  46.1740  0.00  0.00     0.000 OA
ENDBRANCH 121 130
BRANCH 124 134
ATOM    134   C  SGN B   7      65.720  63.687  44.0000  0.00  0.00     0.000 C
ATOM    135   O  SGN B   7      66.394  62.489  44.4230  0.00  0.00     0.000 O
ATOM    136   S  SGN B   7      67.945  62.599  44.6450  0.00  0.00     0.000 S
ATOM    137   O  SGN B   7      68.373  61.321  45.1600  0.00  0.00     0.000 OA
ATOM    138   O  SGN B   7      68.115  63.676  45.5940  0.00  0.00     0.000 OA
ATOM    139   O  SGN B   7      68.433  62.892  43.3070  0.00  0.00     0.000 OA
ENDBRANCH 124 134
BRANCH 120 140
ATOM    140  O4  IDS B   8      62.928  61.039  42.9070  0.00  0.00     0.000 O
BRANCH 140 144
ATOM    141  C1  IDS B   8      63.113  60.922  39.3140  0.00  0.00     0.000 C
ATOM    142  C2  IDS B   8      62.049  61.801  40.0320  0.00  0.00     0.000 C
ATOM    143  C3  IDS B   8      61.284  61.044  41.1330  0.00  0.00     0.000 C
ATOM    144  C4  IDS B   8      62.215  60.193  41.9960  0.00  0.00     0.000 C
ATOM    145  C5  IDS B   8      63.204  59.423  41.1080  0.00  0.00     0.000 C
ATOM    146  O5  IDS B   8      63.958  60.300  40.2740  0.00  0.00     0.000 O
BRANCH 142 147
ATOM    147   O  IDS B   8      62.719  62.960  40.6790  0.00  0.00     0.000 O
ATOM    148   S  IDS B   8      62.752  64.414  39.9610  0.00  0.00     0.000 S
ATOM    149   O  IDS B   8      62.414  64.223  38.5680  0.00  0.00     0.000 OA
ATOM    150   O  IDS B   8      61.774  65.219  40.6700  0.00  0.00     0.000 OA
ATOM    151   O  IDS B   8      64.111  64.892  40.1280  0.00  0.00     0.000 OA
ENDBRANCH 142 147
BRANCH 145 152
ATOM    152   C  IDS B   8      64.219  58.636  41.9120  0.00  0.00     0.000 C
ATOM    153   O  IDS B   8      65.413  58.883  41.7840  0.00  0.00     0.000 OA
ATOM    154   O  IDS B   8      63.838  57.782  42.6920  0.00  0.00     0.000 OA
ENDBRANCH 145 152
ENDBRANCH 140 144
ENDBRANCH 120 140
ENDBRANCH 119 123
ENDBRANCH 103 119
ENDBRANCH 102 106
ENDBRANCH 82 102
ENDBRANCH 81 85
ENDBRANCH 65 81
ENDBRANCH 64 68
ENDBRANCH 41 64
ENDBRANCH 40 44
ENDBRANCH 24 40
ENDBRANCH 23 27
ENDBRANCH 1 23
TORSDOF 31
ENDMDL
MODEL 88
REMARK VINA RESULT:      -1.2     80.944     87.949
ROOT
ATOM      1  C1  SGN B   1      58.049  57.580  88.4750  0.00  0.00     0.000 C
ATOM      2  C2  SGN B   1      58.384  58.516  89.6470  0.00  0.00     0.000 C
ATOM      3  C3  SGN B   1      59.895  58.556  89.8960  0.00  0.00     0.000 C
ATOM      4  C4  SGN B   1      60.429  57.145  90.1220  0.00  0.00     0.000 C
ATOM      5  C5  SGN B   1      59.940  56.239  88.9940  0.00  0.00     0.000 C
ATOM      6  O5  SGN B   1      58.503  56.306  88.9120  0.00  0.00     0.000 O
ATOM      7   O  SGN B   1      60.197  59.388  91.0100  0.00  0.00     0.000 O
ATOM      9  HD  SGN B   1      59.702  58.779  91.3740  0.00  0.00     0.000 HD
ATOM      9   O  SGN B   1      61.844  57.175  90.1460  0.00  0.00     0.000 O
ATOM     11  HD  SGN B   1      61.348  56.566  90.5110  0.00  0.00     0.000 HD
ENDROOT
BRANCH 2 13
ATOM     11   N  SGN B   1      57.073  59.038  90.0780  0.00  0.00     0.000 N
ATOM     13  HD  SGN B   1      57.300  59.055  89.2430  0.00  0.00     0.000 HD
ATOM     13   S  SGN B   1      56.307  60.205  89.2770  0.00  0.00     0.000 S
ATOM     14   O  SGN B   1      57.045  60.573  88.1330  0.00  0.00     0.000 OA
ATOM     15   O  SGN B   1      54.939  59.832  89.1380  0.00  0.00     0.000 OA
ATOM     16   O  SGN B   1      56.374  61.310  90.3750  0.00  0.00     0.000 OA
ENDBRANCH 2 13
BRANCH 5 17
ATOM     17   C  SGN B   1      60.314  54.788  89.1660  0.00  0.00     0.000 C
ATOM     18   O  SGN B   1      60.160  54.376  90.5390  0.00  0.00     0.000 O
ATOM     19   S  SGN B   1      61.360  53.513  91.1510  0.00  0.00     0.000 S
ATOM     20   O  SGN B   1      60.867  53.036  92.4250  0.00  0.00     0.000 OA
ATOM     21   O  SGN B   1      61.569  52.463  90.1810  0.00  0.00     0.000 OA
ATOM     22   O  SGN B   1      62.468  54.437  91.2660  0.00  0.00     0.000 OA
ENDBRANCH 5 17
BRANCH 1 23
ATOM     23  O4  IDS B   2      57.898  57.601  87.1200  0.00  0.00     0.000 O
BRANCH 23 27
ATOM     24  C1  IDS B   2      61.488  57.186  85.0790  0.00  0.00     0.000 C
ATOM     25  C2  IDS B   2      61.041  58.639  85.3530  0.00  0.00     0.000 C
ATOM     26  C3  IDS B   2      59.887  58.675  86.3510  0.00  0.00     0.000 C
ATOM     27  C4  IDS B   2      58.700  57.815  85.9400  0.00  0.00     0.000 C
ATOM     28  C5  IDS B   2      59.196  56.522  85.2630  0.00  0.00     0.000 C
ATOM     29  O5  IDS B   2      60.544  56.249  85.6150  0.00  0.00     0.000 O
ATOM     30   O  IDS B   2      59.423  60.014  86.4820  0.00  0.00     0.000 O
ATOM     32  HD  IDS B   2      58.908  60.262  85.8310  0.00  0.00     0.000 HD
BRANCH 25 32
ATOM     32   O  IDS B   2      62.139  59.469  85.9060  0.00  0.00     0.000 O
ATOM     33   S  IDS B   2      62.719  60.791  85.1080  0.00  0.00     0.000 S
ATOM     34   O  IDS B   2      63.914  61.206  85.8260  0.00  0.00     0.000 OA
ATOM     35   O  IDS B   2      63.025  60.429  83.7310  0.00  0.00     0.000 OA
ATOM     36   O  IDS B   2      61.678  61.789  85.1970  0.00  0.00     0.000 OA
ENDBRANCH 25 32
BRANCH 28 37
ATOM     37   C  IDS B   2      58.371  55.236  85.4730  0.00  0.00     0.000 C
ATOM     38   O  IDS B   2      57.347  55.227  84.8300  0.00  0.00     0.000 OA
ATOM     39   O  IDS B   2      58.691  54.237  86.1640  0.00  0.00     0.000 OA
ENDBRANCH 28 37
BRANCH 24 40
ATOM     40  O4  SUS B   3      62.454  56.940  84.1700  0.00  0.00     0.000 O
BRANCH 40 44
ATOM     41  C1  SUS B   3      65.432  53.994  84.1030  0.00  0.00     0.000 C
ATOM     42  C2  SUS B   3      63.978  53.532  83.8840  0.00  0.00     0.000 C
ATOM     43  C3  SUS B   3      63.127  54.728  83.4650  0.00  0.00     0.000 C
ATOM     44  C4  SUS B   3      63.276  55.827  84.5050  0.00  0.00     0.000 C
ATOM     45  C5  SUS B   3      64.728  56.257  84.5600  0.00  0.00     0.000 C
ATOM     46  O5  SUS B   3      65.517  55.124  84.9790  0.00  0.00     0.000 O
BRANCH 42 49
ATOM     47   N  SUS B   3      63.712  52.436  82.9360  0.00  0.00     0.000 N
ATOM     49  HD  SUS B   3      63.017  52.526  82.4270  0.00  0.00     0.000 HD
ATOM     49   S  SUS B   3      63.621  51.007  83.6530  0.00  0.00     0.000 S
ATOM     50   O  SUS B   3      62.619  51.030  84.6440  0.00  0.00     0.000 OA
ATOM     51   O  SUS B   3      63.143  50.213  82.4110  0.00  0.00     0.000 OA
ATOM     52   O  SUS B   3      64.912  50.596  84.0400  0.00  0.00     0.000 OA
ENDBRANCH 42 49
BRANCH 43 53
ATOM     53   O  SUS B   3      61.721  54.286  83.4000  0.00  0.00     0.000 O
ATOM     54   S  SUS B   3      60.962  54.409  81.9470  0.00  0.00     0.000 S
ATOM     55   O  SUS B   3      61.533  53.396  81.0690  0.00  0.00     0.000 OA
ATOM     56   O  SUS B   3      59.562  54.190  82.2610  0.00  0.00     0.000 OA
ATOM     57   O  SUS B   3      61.238  55.759  81.4480  0.00  0.00     0.000 OA
ENDBRANCH 43 53
BRANCH 45 58
ATOM     58   C  SUS B   3      64.939  57.420  85.5040  0.00  0.00     0.000 C
ATOM     59   S  SUS B   3      65.286  57.989  87.9830  0.00  0.00     0.000 S
ATOM     60   O  SUS B   3      65.247  56.918  86.8160  0.00  0.00     0.000 O
ATOM     61   O  SUS B   3      63.897  58.254  88.3020  0.00  0.00     0.000 OA
ATOM     62   O  SUS B   3      65.960  57.240  89.0100  0.00  0.00     0.000 OA
ATOM     63   O  SUS B   3      66.011  59.093  87.4610  0.00  0.00     0.000 OA
ENDBRANCH 45 58
BRANCH 41 64
ATOM     64  O4  IDS B   4      66.151  54.129  82.9410  0.00  0.00     0.000 O
BRANCH 64 68
ATOM     65  C1  IDS B   4      68.646  53.064  80.5080  0.00  0.00     0.000 C
ATOM     66  C2  IDS B   4      67.851  52.022  81.3060  0.00  0.00     0.000 C
ATOM     67  C3  IDS B   4      67.760  52.308  82.7960  0.00  0.00     0.000 C
ATOM     68  C4  IDS B   4      67.543  53.778  83.1020  0.00  0.00     0.000 C
ATOM     69  C5  IDS B   4      68.487  54.596  82.2120  0.00  0.00     0.000 C
ATOM     70  O5  IDS B   4      68.167  54.355  80.8400  0.00  0.00     0.000 O
ATOM     71   O  IDS B   4      68.970  51.872  83.3810  0.00  0.00     0.000 O
ATOM     73  HD  IDS B   4      68.365  51.915  82.7630  0.00  0.00     0.000 HD
BRANCH 66 73
ATOM     73   O  IDS B   4      66.463  52.016  80.8240  0.00  0.00     0.000 O
ATOM     74   S  IDS B   4      65.956  50.726  79.9900  0.00  0.00     0.000 S
ATOM     75   O  IDS B   4      66.861  50.582  78.8690  0.00  0.00     0.000 OA
ATOM     76   O  IDS B   4      64.620  51.119  79.6190  0.00  0.00     0.000 OA
ATOM     77   O  IDS B   4      66.014  49.620  80.9160  0.00  0.00     0.000 OA
ENDBRANCH 66 73
BRANCH 69 78
ATOM     78   C  IDS B   4      68.548  56.078  82.5540  0.00  0.00     0.000 C
ATOM     79   O  IDS B   4      67.512  56.739  82.5060  0.00  0.00     0.000 OA
ATOM     80   O  IDS B   4      69.622  56.549  82.9730  0.00  0.00     0.000 OA
ENDBRANCH 69 78
BRANCH 65 81
ATOM     81  O4  SGN B   5      69.979  52.842  80.6770  0.00  0.00     0.000 O
BRANCH 81 85
ATOM     82  C1  SGN B   5      73.702  52.994  78.7390  0.00  0.00     0.000 C
ATOM     83  C2  SGN B   5      73.100  54.330  79.1990  0.00  0.00     0.000 C
ATOM     84  C3  SGN B   5      72.023  54.070  80.2610  0.00  0.00     0.000 C
ATOM     85  C4  SGN B   5      70.988  53.110  79.7010  0.00  0.00     0.000 C
ATOM     86  C5  SGN B   5      71.699  51.818  79.3030  0.00  0.00     0.000 C
ATOM     87  O5  SGN B   5      72.680  52.123  78.2930  0.00  0.00     0.000 O
ATOM     88   O  SGN B   5      71.425  55.288  80.6480  0.00  0.00     0.000 O
ATOM     90  HD  SGN B   5      72.025  54.857  81.1000  0.00  0.00     0.000 HD
BRANCH 83 92
ATOM     90   N  SGN B   5      73.985  54.968  78.2050  0.00  0.00     0.000 N
ATOM     92  HD  SGN B   5      73.612  54.986  77.4230  0.00  0.00     0.000 HD
ATOM     92   S  SGN B   5      74.741  56.311  78.6250  0.00  0.00     0.000 S
ATOM     93   O  SGN B   5      75.497  56.671  77.4620  0.00  0.00     0.000 OA
ATOM     94   O  SGN B   5      73.732  57.185  79.1170  0.00  0.00     0.000 OA
ATOM     95   O  SGN B   5      75.608  55.914  79.8000  0.00  0.00     0.000 OA
ENDBRANCH 83 92
BRANCH 86 96
ATOM     96   C  SGN B   5      70.781  50.755  78.7340  0.00  0.00     0.000 C
ATOM     97   O  SGN B   5      69.938  51.309  77.7210  0.00  0.00     0.000 O
ATOM     98   S  SGN B   5      69.901  50.521  76.3250  0.00  0.00     0.000 S
ATOM     99   O  SGN B   5      68.838  51.188  75.6120  0.00  0.00     0.000 OA
ATOM    100   O  SGN B   5      71.183  50.647  75.7300  0.00  0.00     0.000 OA
ATOM    101   O  SGN B   5      69.584  49.177  76.6850  0.00  0.00     0.000 OA
ENDBRANCH 86 96
BRANCH 82 102
ATOM    102  O4  IDS B   6      74.448  52.394  79.7090  0.00  0.00     0.000 O
BRANCH 102 106
ATOM    103  C1  IDS B   6      77.427  51.005  81.2770  0.00  0.00     0.000 C
ATOM    104  C2  IDS B   6      77.412  52.454  80.7630  0.00  0.00     0.000 C
ATOM    105  C3  IDS B   6      76.848  52.635  79.3670  0.00  0.00     0.000 C
ATOM    106  C4  IDS B   6      75.620  51.778  79.1150  0.00  0.00     0.000 C
ATOM    107  C5  IDS B   6      75.843  50.374  79.6830  0.00  0.00     0.000 C
ATOM    108  O5  IDS B   6      76.161  50.407  81.0760  0.00  0.00     0.000 O
ATOM    109   O  IDS B   6      77.872  52.333  78.4340  0.00  0.00     0.000 O
ATOM    111  HD  IDS B   6      78.414  51.824  78.8780  0.00  0.00     0.000 HD
BRANCH 104 111
ATOM    111   O  IDS B   6      76.550  53.263  81.6380  0.00  0.00     0.000 O
ATOM    112   S  IDS B   6      77.254  54.249  82.6850  0.00  0.00     0.000 S
ATOM    113   O  IDS B   6      78.085  53.380  83.5050  0.00  0.00     0.000 OA
ATOM    114   O  IDS B   6      77.992  55.272  81.9360  0.00  0.00     0.000 OA
ATOM    115   O  IDS B   6      76.078  54.748  83.3640  0.00  0.00     0.000 OA
ENDBRANCH 104 111
BRANCH 107 116
ATOM    116   C  IDS B   6      74.593  49.533  79.4580  0.00  0.00     0.000 C
ATOM    117   O  IDS B   6      74.334  49.242  78.3180  0.00  0.00     0.000 OA
ATOM    118   O  IDS B   6      73.886  49.183  80.3900  0.00  0.00     0.000 OA
ENDBRANCH 107 116
BRANCH 103 119
ATOM    119  O4  SGN B   7      78.551  50.481  80.7260  0.00  0.00     0.000 O
BRANCH 119 123
ATOM    120  C1  SGN B   7      81.500  47.743  81.8640  0.00  0.00     0.000 C
ATOM    121  C2  SGN B   7      80.117  47.184  81.4840  0.00  0.00     0.000 C
ATOM    122  C3  SGN B   7      79.302  48.237  80.7220  0.00  0.00     0.000 C
ATOM    123  C4  SGN B   7      79.245  49.524  81.5270  0.00  0.00     0.000 C
ATOM    124  C5  SGN B   7      80.671  49.995  81.8610  0.00  0.00     0.000 C
ATOM    125  O5  SGN B   7      81.400  48.974  82.5780  0.00  0.00     0.000 O
ATOM    126   O  SGN B   7      77.990  47.720  80.4710  0.00  0.00     0.000 O
ATOM    128  HD  SGN B   7      78.800  47.572  80.7390  0.00  0.00     0.000 HD
BRANCH 121 130
ATOM    128   N  SGN B   7      80.448  45.886  82.0760  0.00  0.00     0.000 N
ATOM    130  HD  SGN B   7      79.611  45.740  82.2440  0.00  0.00     0.000 HD
ATOM    130   S  SGN B   7      80.122  44.494  81.3350  0.00  0.00     0.000 S
ATOM    131   O  SGN B   7      80.647  44.640  80.0210  0.00  0.00     0.000 OA
ATOM    132   O  SGN B   7      80.558  43.432  82.1680  0.00  0.00     0.000 OA
ATOM    133   O  SGN B   7      78.560  44.473  81.4520  0.00  0.00     0.000 OA
ENDBRANCH 121 130
BRANCH 124 134
ATOM    134   C  SGN B   7      80.719  51.199  82.7540  0.00  0.00     0.000 C
ATOM    135   O  SGN B   7      81.783  51.022  83.7050  0.00  0.00     0.000 O
ATOM    136   S  SGN B   7      82.099  52.245  84.6380  0.00  0.00     0.000 S
ATOM    137   O  SGN B   7      83.115  51.800  85.5610  0.00  0.00     0.000 OA
ATOM    138   O  SGN B   7      80.846  52.561  85.2860  0.00  0.00     0.000 OA
ATOM    139   O  SGN B   7      82.558  53.250  83.6910  0.00  0.00     0.000 OA
ENDBRANCH 124 134
BRANCH 120 140
ATOM    140  O4  IDS B   8      82.514  48.057  81.0490  0.00  0.00     0.000 O
BRANCH 140 144
ATOM    141  C1  IDS B   8      84.199  49.402  78.1660  0.00  0.00     0.000 C
ATOM    142  C2  IDS B   8      82.806  48.723  78.0340  0.00  0.00     0.000 C
ATOM    143  C3  IDS B   8      82.730  47.358  78.7440  0.00  0.00     0.000 C
ATOM    144  C4  IDS B   8      83.384  47.394  80.1240  0.00  0.00     0.000 C
ATOM    145  C5  IDS B   8      84.733  48.124  80.0520  0.00  0.00     0.000 C
ATOM    146  O5  IDS B   8      84.591  49.444  79.5330  0.00  0.00     0.000 O
BRANCH 142 147
ATOM    147   O  IDS B   8      81.769  49.595  78.6450  0.00  0.00     0.000 O
ATOM    148   S  IDS B   8      80.856  50.576  77.7300  0.00  0.00     0.000 S
ATOM    149   O  IDS B   8      81.500  50.698  76.4420  0.00  0.00     0.000 OA
ATOM    150   O  IDS B   8      79.558  49.933  77.6510  0.00  0.00     0.000 OA
ATOM    151   O  IDS B   8      80.823  51.839  78.4410  0.00  0.00     0.000 OA
ENDBRANCH 142 147
BRANCH 145 152
ATOM    152   C  IDS B   8      85.386  48.279  81.4110  0.00  0.00     0.000 C
ATOM    153   O  IDS B   8      85.650  47.281  82.0710  0.00  0.00     0.000 OA
ATOM    154   O  IDS B   8      85.661  49.391  81.8230  0.00  0.00     0.000 OA
ENDBRANCH 145 152
ENDBRANCH 140 144
ENDBRANCH 120 140
ENDBRANCH 119 123
ENDBRANCH 103 119
ENDBRANCH 102 106
ENDBRANCH 82 102
ENDBRANCH 81 85
ENDBRANCH 65 81
ENDBRANCH 64 68
ENDBRANCH 41 64
ENDBRANCH 40 44
ENDBRANCH 24 40
ENDBRANCH 23 27
ENDBRANCH 1 23
TORSDOF 31
ENDMDL
MODEL 89
REMARK VINA RESULT:      -1.2     78.258     84.985
ROOT
ATOM      1  C1  SGN B   1      71.537  59.540  82.5730  0.00  0.00     0.000 C
ATOM      2  C2  SGN B   1      71.727  58.485  83.6750  0.00  0.00     0.000 C
ATOM      3  C3  SGN B   1      72.299  57.188  83.0920  0.00  0.00     0.000 C
ATOM      4  C4  SGN B   1      71.408  56.680  81.9630  0.00  0.00     0.000 C
ATOM      5  C5  SGN B   1      71.148  57.820  80.9810  0.00  0.00     0.000 C
ATOM      6  O5  SGN B   1      70.595  58.948  81.6880  0.00  0.00     0.000 O
ATOM      7   O  SGN B   1      72.431  56.199  84.1060  0.00  0.00     0.000 O
ATOM      9  HD  SGN B   1      71.578  56.346  84.1140  0.00  0.00     0.000 HD
ATOM      9   O  SGN B   1      72.052  55.605  81.3030  0.00  0.00     0.000 O
ATOM     11  HD  SGN B   1      71.198  55.752  81.3110  0.00  0.00     0.000 HD
ENDROOT
BRANCH 2 13
ATOM     11   N  SGN B   1      71.281  59.164  84.9060  0.00  0.00     0.000 N
ATOM     13  HD  SGN B   1      71.843  59.548  84.3710  0.00  0.00     0.000 HD
ATOM     13   S  SGN B   1      72.201  60.234  85.6780  0.00  0.00     0.000 S
ATOM     14   O  SGN B   1      73.410  60.431  84.9770  0.00  0.00     0.000 OA
ATOM     15   O  SGN B   1      71.397  61.360  86.0150  0.00  0.00     0.000 OA
ATOM     16   O  SGN B   1      72.432  59.424  86.9910  0.00  0.00     0.000 OA
ENDBRANCH 2 13
BRANCH 5 17
ATOM     17   C  SGN B   1      70.186  57.469  79.8730  0.00  0.00     0.000 C
ATOM     18   O  SGN B   1      69.085  56.686  80.3770  0.00  0.00     0.000 O
ATOM     19   S  SGN B   1      68.678  55.408  79.5060  0.00  0.00     0.000 S
ATOM     20   O  SGN B   1      67.432  54.945  80.0780  0.00  0.00     0.000 OA
ATOM     21   O  SGN B   1      68.541  55.924  78.1640  0.00  0.00     0.000 OA
ATOM     22   O  SGN B   1      69.773  54.476  79.6680  0.00  0.00     0.000 OA
ENDBRANCH 5 17
BRANCH 1 23
ATOM     23  O4  IDS B   2      72.212  60.551  81.9550  0.00  0.00     0.000 O
BRANCH 23 27
ATOM     24  C1  IDS B   2      74.620  59.232  78.8430  0.00  0.00     0.000 C
ATOM     25  C2  IDS B   2      75.311  59.342  80.2200  0.00  0.00     0.000 C
ATOM     26  C3  IDS B   2      74.284  59.542  81.3310  0.00  0.00     0.000 C
ATOM     27  C4  IDS B   2      73.358  60.728  81.0970  0.00  0.00     0.000 C
ATOM     28  C5  IDS B   2      73.019  60.843  79.5970  0.00  0.00     0.000 C
ATOM     29  O5  IDS B   2      73.240  59.609  78.9300  0.00  0.00     0.000 O
ATOM     30   O  IDS B   2      74.962  59.764  82.5620  0.00  0.00     0.000 O
ATOM     32  HD  IDS B   2      75.258  60.573  82.6480  0.00  0.00     0.000 HD
BRANCH 25 32
ATOM     32   O  IDS B   2      76.099  58.130  80.5510  0.00  0.00     0.000 O
ATOM     33   S  IDS B   2      77.733  58.187  80.7740  0.00  0.00     0.000 S
ATOM     34   O  IDS B   2      78.180  56.805  80.8540  0.00  0.00     0.000 OA
ATOM     35   O  IDS B   2      78.351  58.882  79.6540  0.00  0.00     0.000 OA
ATOM     36   O  IDS B   2      77.932  58.878  82.0270  0.00  0.00     0.000 OA
ENDBRANCH 25 32
BRANCH 28 37
ATOM     37   C  IDS B   2      71.617  61.358  79.2120  0.00  0.00     0.000 C
ATOM     38   O  IDS B   2      71.497  62.550  79.3720  0.00  0.00     0.000 OA
ATOM     39   O  IDS B   2      70.676  60.690  78.7180  0.00  0.00     0.000 OA
ENDBRANCH 28 37
BRANCH 24 40
ATOM     40  O4  SUS B   3      75.365  59.119  77.7230  0.00  0.00     0.000 O
BRANCH 40 44
ATOM     41  C1  SUS B   3      74.631  57.022  74.1730  0.00  0.00     0.000 C
ATOM     42  C2  SUS B   3      73.765  58.268  74.4470  0.00  0.00     0.000 C
ATOM     43  C3  SUS B   3      74.465  59.148  75.4810  0.00  0.00     0.000 C
ATOM     44  C4  SUS B   3      74.758  58.315  76.7190  0.00  0.00     0.000 C
ATOM     45  C5  SUS B   3      75.687  57.180  76.3360  0.00  0.00     0.000 C
ATOM     46  O5  SUS B   3      75.006  56.345  75.3770  0.00  0.00     0.000 O
BRANCH 42 49
ATOM     47   N  SUS B   3      73.372  59.128  73.3180  0.00  0.00     0.000 N
ATOM     49  HD  SUS B   3      73.399  59.983  73.4550  0.00  0.00     0.000 HD
ATOM     49   S  SUS B   3      71.925  58.762  72.7370  0.00  0.00     0.000 S
ATOM     50   O  SUS B   3      70.960  58.853  73.7610  0.00  0.00     0.000 OA
ATOM     51   O  SUS B   3      71.810  59.966  71.7680  0.00  0.00     0.000 OA
ATOM     52   O  SUS B   3      72.002  57.552  72.0190  0.00  0.00     0.000 OA
ENDBRANCH 42 49
BRANCH 43 53
ATOM     53   O  SUS B   3      73.553  60.256  75.8270  0.00  0.00     0.000 O
ATOM     54   S  SUS B   3      74.081  61.783  75.5260  0.00  0.00     0.000 S
ATOM     55   O  SUS B   3      74.084  61.968  74.0820  0.00  0.00     0.000 OA
ATOM     56   O  SUS B   3      73.127  62.628  76.2230  0.00  0.00     0.000 OA
ATOM     57   O  SUS B   3      75.437  61.869  76.0750  0.00  0.00     0.000 OA
ENDBRANCH 43 53
BRANCH 45 58
ATOM     58   C  SUS B   3      76.106  56.362  77.5380  0.00  0.00     0.000 C
ATOM     59   S  SUS B   3      75.338  54.442  79.0580  0.00  0.00     0.000 S
ATOM     60   O  SUS B   3      75.181  55.277  77.7210  0.00  0.00     0.000 O
ATOM     61   O  SUS B   3      74.733  55.262  80.0900  0.00  0.00     0.000 OA
ATOM     62   O  SUS B   3      74.554  53.279  78.7410  0.00  0.00     0.000 OA
ATOM     63   O  SUS B   3      76.732  54.214  79.2020  0.00  0.00     0.000 OA
ENDBRANCH 45 58
BRANCH 41 64
ATOM     64  O4  IDS B   4      75.673  57.252  73.3090  0.00  0.00     0.000 O
BRANCH 64 68
ATOM     65  C1  IDS B   4      77.336  57.030  70.0740  0.00  0.00     0.000 C
ATOM     66  C2  IDS B   4      75.807  57.126  70.1520  0.00  0.00     0.000 C
ATOM     67  C3  IDS B   4      75.171  56.197  71.1720  0.00  0.00     0.000 C
ATOM     68  C4  IDS B   4      75.959  56.114  72.4660  0.00  0.00     0.000 C
ATOM     69  C5  IDS B   4      77.446  55.974  72.1110  0.00  0.00     0.000 C
ATOM     70  O5  IDS B   4      77.866  57.131  71.3840  0.00  0.00     0.000 O
ATOM     71   O  IDS B   4      75.088  54.917  70.5800  0.00  0.00     0.000 O
ATOM     73  HD  IDS B   4      75.179  55.778  70.5850  0.00  0.00     0.000 HD
BRANCH 66 73
ATOM     73   O  IDS B   4      75.439  58.484  70.5750  0.00  0.00     0.000 O
ATOM     74   S  IDS B   4      74.738  59.454  69.4870  0.00  0.00     0.000 S
ATOM     75   O  IDS B   4      75.642  59.525  68.3590  0.00  0.00     0.000 OA
ATOM     76   O  IDS B   4      74.619  60.687  70.2220  0.00  0.00     0.000 OA
ATOM     77   O  IDS B   4      73.476  58.828  69.1690  0.00  0.00     0.000 OA
ENDBRANCH 66 73
BRANCH 69 78
ATOM     78   C  IDS B   4      78.349  55.658  73.2950  0.00  0.00     0.000 C
ATOM     79   O  IDS B   4      78.382  56.446  74.2390  0.00  0.00     0.000 OA
ATOM     80   O  IDS B   4      78.941  54.564  73.3170  0.00  0.00     0.000 OA
ENDBRANCH 69 78
BRANCH 65 81
ATOM     81  O4  SGN B   5      77.685  55.928  69.3540  0.00  0.00     0.000 O
BRANCH 81 85
ATOM     82  C1  SGN B   5      80.503  54.424  66.6280  0.00  0.00     0.000 C
ATOM     83  C2  SGN B   5      80.941  54.531  68.0960  0.00  0.00     0.000 C
ATOM     84  C3  SGN B   5      79.701  54.639  68.9950  0.00  0.00     0.000 C
ATOM     85  C4  SGN B   5      78.853  55.812  68.5380  0.00  0.00     0.000 C
ATOM     86  C5  SGN B   5      78.462  55.583  67.0800  0.00  0.00     0.000 C
ATOM     87  O5  SGN B   5      79.661  55.510  66.2870  0.00  0.00     0.000 O
ATOM     88   O  SGN B   5      80.097  54.794  70.3400  0.00  0.00     0.000 O
ATOM     90  HD  SGN B   5      79.815  54.058  69.9810  0.00  0.00     0.000 HD
BRANCH 83 92
ATOM     90   N  SGN B   5      82.327  54.510  67.5900  0.00  0.00     0.000 N
ATOM     92  HD  SGN B   5      82.593  55.306  67.3780  0.00  0.00     0.000 HD
ATOM     92   S  SGN B   5      83.401  53.626  68.3770  0.00  0.00     0.000 S
ATOM     93   O  SGN B   5      84.621  53.821  67.6530  0.00  0.00     0.000 OA
ATOM     94   O  SGN B   5      83.308  54.028  69.7390  0.00  0.00     0.000 OA
ATOM     95   O  SGN B   5      82.874  52.210  68.2880  0.00  0.00     0.000 OA
ENDBRANCH 83 92
BRANCH 86 96
ATOM     96   C  SGN B   5      77.596  56.677  66.4900  0.00  0.00     0.000 C
ATOM     97   O  SGN B   5      78.158  57.963  66.7620  0.00  0.00     0.000 O
ATOM     98   S  SGN B   5      78.328  58.940  65.5020  0.00  0.00     0.000 S
ATOM     99   O  SGN B   5      78.711  60.188  66.1170  0.00  0.00     0.000 OA
ATOM    100   O  SGN B   5      79.312  58.372  64.6520  0.00  0.00     0.000 OA
ATOM    101   O  SGN B   5      77.032  58.978  64.9050  0.00  0.00     0.000 OA
ENDBRANCH 86 96
BRANCH 82 102
ATOM    102  O4  IDS B   6      79.888  53.240  66.3480  0.00  0.00     0.000 O
BRANCH 102 106
ATOM    103  C1  IDS B   6      79.389  50.014  64.7370  0.00  0.00     0.000 C
ATOM    104  C2  IDS B   6      80.693  50.323  65.4890  0.00  0.00     0.000 C
ATOM    105  C3  IDS B   6      81.319  51.666  65.1640  0.00  0.00     0.000 C
ATOM    106  C4  IDS B   6      80.292  52.776  65.0350  0.00  0.00     0.000 C
ATOM    107  C5  IDS B   6      79.083  52.273  64.2400  0.00  0.00     0.000 C
ATOM    108  O5  IDS B   6      78.501  51.111  64.8340  0.00  0.00     0.000 O
ATOM    109   O  IDS B   6      82.064  51.527  63.9650  0.00  0.00     0.000 O
ATOM    111  HD  IDS B   6      81.705  50.842  63.5750  0.00  0.00     0.000 HD
BRANCH 104 111
ATOM    111   O  IDS B   6      80.416  50.363  66.9330  0.00  0.00     0.000 O
ATOM    112   S  IDS B   6      80.873  49.114  67.8230  0.00  0.00     0.000 S
ATOM    113   O  IDS B   6      80.185  47.975  67.2360  0.00  0.00     0.000 OA
ATOM    114   O  IDS B   6      82.338  49.030  67.7860  0.00  0.00     0.000 OA
ATOM    115   O  IDS B   6      80.338  49.529  69.1010  0.00  0.00     0.000 OA
ENDBRANCH 104 111
BRANCH 107 116
ATOM    116   C  IDS B   6      78.043  53.382  64.1470  0.00  0.00     0.000 C
ATOM    117   O  IDS B   6      78.331  54.340  63.4760  0.00  0.00     0.000 OA
ATOM    118   O  IDS B   6      76.976  53.303  64.7350  0.00  0.00     0.000 OA
ENDBRANCH 107 116
BRANCH 103 119
ATOM    119  O4  SGN B   7      79.814  49.553  63.5330  0.00  0.00     0.000 O
BRANCH 119 123
ATOM    120  C1  SGN B   7      78.568  46.672  60.7690  0.00  0.00     0.000 C
ATOM    121  C2  SGN B   7      77.753  47.976  60.8570  0.00  0.00     0.000 C
ATOM    122  C3  SGN B   7      78.549  49.060  61.5940  0.00  0.00     0.000 C
ATOM    123  C4  SGN B   7      79.011  48.531  62.9420  0.00  0.00     0.000 C
ATOM    124  C5  SGN B   7      79.807  47.230  62.7470  0.00  0.00     0.000 C
ATOM    125  O5  SGN B   7      79.019  46.238  62.0510  0.00  0.00     0.000 O
ATOM    126   O  SGN B   7      77.726  50.222  61.7450  0.00  0.00     0.000 O
ATOM    128  HD  SGN B   7      77.840  49.443  61.3840  0.00  0.00     0.000 HD
BRANCH 121 130
ATOM    128   N  SGN B   7      76.656  47.373  60.0960  0.00  0.00     0.000 N
ATOM    130  HD  SGN B   7      76.086  47.891  60.4920  0.00  0.00     0.000 HD
ATOM    130   S  SGN B   7      75.912  48.149  58.8970  0.00  0.00     0.000 S
ATOM    131   O  SGN B   7      76.958  48.624  58.0560  0.00  0.00     0.000 OA
ATOM    132   O  SGN B   7      74.902  47.302  58.3750  0.00  0.00     0.000 OA
ATOM    133   O  SGN B   7      75.134  49.240  59.7080  0.00  0.00     0.000 OA
ENDBRANCH 121 130
BRANCH 124 134
ATOM    134   C  SGN B   7      80.210  46.566  64.0310  0.00  0.00     0.000 C
ATOM    135   O  SGN B   7      80.050  45.145  63.8820  0.00  0.00     0.000 O
ATOM    136   S  SGN B   7      80.565  44.254  65.0690  0.00  0.00     0.000 S
ATOM    137   O  SGN B   7      80.206  42.895  64.7420  0.00  0.00     0.000 OA
ATOM    138   O  SGN B   7      79.881  44.752  66.2400  0.00  0.00     0.000 OA
ATOM    139   O  SGN B   7      81.997  44.509  65.0530  0.00  0.00     0.000 OA
ENDBRANCH 124 134
BRANCH 120 140
ATOM    140  O4  IDS B   8      79.684  46.446  60.0670  0.00  0.00     0.000 O
BRANCH 140 144
ATOM    141  C1  IDS B   8      82.949  47.059  58.6790  0.00  0.00     0.000 C
ATOM    142  C2  IDS B   8      81.911  48.208  58.8170  0.00  0.00     0.000 C
ATOM    143  C3  IDS B   8      80.520  47.834  58.2710  0.00  0.00     0.000 C
ATOM    144  C4  IDS B   8      80.098  46.428  58.6950  0.00  0.00     0.000 C
ATOM    145  C5  IDS B   8      81.263  45.445  58.5080  0.00  0.00     0.000 C
ATOM    146  O5  IDS B   8      82.422  45.858  59.2290  0.00  0.00     0.000 O
BRANCH 142 147
ATOM    147   O  IDS B   8      81.741  48.553  60.2530  0.00  0.00     0.000 O
ATOM    148   S  IDS B   8      82.524  49.813  60.9090  0.00  0.00     0.000 S
ATOM    149   O  IDS B   8      83.591  50.183  60.0070  0.00  0.00     0.000 OA
ATOM    150   O  IDS B   8      81.525  50.856  61.0540  0.00  0.00     0.000 OA
ATOM    151   O  IDS B   8      83.030  49.330  62.1790  0.00  0.00     0.000 OA
ENDBRANCH 142 147
BRANCH 145 152
ATOM    152   C  IDS B   8      80.937  44.051  59.0040  0.00  0.00     0.000 C
ATOM    153   O  IDS B   8      79.987  43.445  58.5220  0.00  0.00     0.000 OA
ATOM    154   O  IDS B   8      81.633  43.540  59.8630  0.00  0.00     0.000 OA
ENDBRANCH 145 152
ENDBRANCH 140 144
ENDBRANCH 120 140
ENDBRANCH 119 123
ENDBRANCH 103 119
ENDBRANCH 102 106
ENDBRANCH 82 102
ENDBRANCH 81 85
ENDBRANCH 65 81
ENDBRANCH 64 68
ENDBRANCH 41 64
ENDBRANCH 40 44
ENDBRANCH 24 40
ENDBRANCH 23 27
ENDBRANCH 1 23
TORSDOF 31
ENDMDL
MODEL 90
REMARK VINA RESULT:      -1.2     49.882     59.065
ROOT
ATOM      1  C1  SGN B   1      16.067  76.419  48.0200  0.00  0.00     0.000 C
ATOM      2  C2  SGN B   1      16.324  76.078  46.5430  0.00  0.00     0.000 C
ATOM      3  C3  SGN B   1      16.834  74.640  46.4000  0.00  0.00     0.000 C
ATOM      4  C4  SGN B   1      18.078  74.434  47.2580  0.00  0.00     0.000 C
ATOM      5  C5  SGN B   1      17.794  74.926  48.6750  0.00  0.00     0.000 C
ATOM      6  O5  SGN B   1      17.345  76.294  48.6290  0.00  0.00     0.000 O
ATOM      7   O  SGN B   1      17.114  74.342  45.0370  0.00  0.00     0.000 O
ATOM      9  HD  SGN B   1      17.661  74.995  45.1900  0.00  0.00     0.000 HD
ATOM      9   O  SGN B   1      18.416  73.060  47.2760  0.00  0.00     0.000 O
ATOM     11  HD  SGN B   1      18.963  73.713  47.4290  0.00  0.00     0.000 HD
ENDROOT
BRANCH 2 13
ATOM     11   N  SGN B   1      15.952  77.307  45.8170  0.00  0.00     0.000 N
ATOM     13  HD  SGN B   1      15.416  76.963  46.4050  0.00  0.00     0.000 HD
ATOM     13   S  SGN B   1      14.419  77.703  45.5290  0.00  0.00     0.000 S
ATOM     14   O  SGN B   1      13.554  76.751  46.1070  0.00  0.00     0.000 OA
ATOM     15   O  SGN B   1      14.246  79.084  45.8350  0.00  0.00     0.000 OA
ATOM     16   O  SGN B   1      14.445  77.577  43.9740  0.00  0.00     0.000 OA
ENDBRANCH 2 13
BRANCH 5 17
ATOM     17   C  SGN B   1      18.989  74.876  49.5940  0.00  0.00     0.000 C
ATOM     18   O  SGN B   1      20.184  75.302  48.9090  0.00  0.00     0.000 O
ATOM     19   S  SGN B   1      21.482  74.396  49.1340  0.00  0.00     0.000 S
ATOM     20   O  SGN B   1      22.571  75.150  48.5500  0.00  0.00     0.000 OA
ATOM     21   O  SGN B   1      21.575  74.264  50.5700  0.00  0.00     0.000 OA
ATOM     22   O  SGN B   1      21.201  73.155  48.4460  0.00  0.00     0.000 OA
ENDBRANCH 5 17
BRANCH 1 23
ATOM     23  O4  IDS B   2      15.077  76.368  48.9560  0.00  0.00     0.000 O
BRANCH 23 27
ATOM     24  C1  IDS B   2      14.815  72.668  50.8190  0.00  0.00     0.000 C
ATOM     25  C2  IDS B   2      13.897  72.863  49.5920  0.00  0.00     0.000 C
ATOM     26  C3  IDS B   2      14.283  74.120  48.8170  0.00  0.00     0.000 C
ATOM     27  C4  IDS B   2      14.311  75.378  49.6740  0.00  0.00     0.000 C
ATOM     28  C5  IDS B   2      14.854  75.047  51.0790  0.00  0.00     0.000 C
ATOM     29  O5  IDS B   2      15.603  73.841  51.0620  0.00  0.00     0.000 O
ATOM     30   O  IDS B   2      13.342  74.333  47.7710  0.00  0.00     0.000 O
ATOM     32  HD  IDS B   2      12.603  74.692  48.0450  0.00  0.00     0.000 HD
BRANCH 25 32
ATOM     32   O  IDS B   2      13.966  71.718  48.6520  0.00  0.00     0.000 O
ATOM     33   S  IDS B   2      12.647  70.786  48.3160  0.00  0.00     0.000 S
ATOM     34   O  IDS B   2      13.137  69.650  47.5510  0.00  0.00     0.000 OA
ATOM     35   O  IDS B   2      12.024  70.360  49.5610  0.00  0.00     0.000 OA
ATOM     36   O  IDS B   2      11.774  71.618  47.5200  0.00  0.00     0.000 OA
ENDBRANCH 25 32
BRANCH 28 37
ATOM     37   C  IDS B   2      15.687  76.125  51.8020  0.00  0.00     0.000 C
ATOM     38   O  IDS B   2      16.782  75.730  52.1270  0.00  0.00     0.000 OA
ATOM     39   O  IDS B   2      15.361  77.320  52.0060  0.00  0.00     0.000 OA
ENDBRANCH 28 37
BRANCH 24 40
ATOM     40  O4  SUS B   3      14.589  71.647  51.6720  0.00  0.00     0.000 O
BRANCH 40 44
ATOM     41  C1  SUS B   3      17.276  69.316  53.8850  0.00  0.00     0.000 C
ATOM     42  C2  SUS B   3      17.104  70.788  54.3100  0.00  0.00     0.000 C
ATOM     43  C3  SUS B   3      15.791  71.324  53.7440  0.00  0.00     0.000 C
ATOM     44  C4  SUS B   3      15.780  71.111  52.2380  0.00  0.00     0.000 C
ATOM     45  C5  SUS B   3      15.862  69.625  51.9540  0.00  0.00     0.000 C
ATOM     46  O5  SUS B   3      17.115  69.136  52.4730  0.00  0.00     0.000 O
BRANCH 42 49
ATOM     47   N  SUS B   3      18.478  70.790  54.8410  0.00  0.00     0.000 N
ATOM     49  HD  SUS B   3      18.855  70.017  54.9430  0.00  0.00     0.000 HD
ATOM     49   S  SUS B   3      18.604  71.591  56.2230  0.00  0.00     0.000 S
ATOM     50   O  SUS B   3      17.727  71.040  57.1790  0.00  0.00     0.000 OA
ATOM     51   O  SUS B   3      20.069  71.190  56.5290  0.00  0.00     0.000 OA
ATOM     52   O  SUS B   3      18.509  72.974  55.9710  0.00  0.00     0.000 OA
ENDBRANCH 42 49
BRANCH 43 53
ATOM     53   O  SUS B   3      15.721  72.767  54.0460  0.00  0.00     0.000 O
ATOM     54   S  SUS B   3      14.545  73.260  55.0830  0.00  0.00     0.000 S
ATOM     55   O  SUS B   3      14.911  72.793  56.4130  0.00  0.00     0.000 OA
ATOM     56   O  SUS B   3      14.542  74.706  54.9500  0.00  0.00     0.000 OA
ATOM     57   O  SUS B   3      13.300  72.636  54.6250  0.00  0.00     0.000 OA
ENDBRANCH 43 53
BRANCH 45 58
ATOM     58   C  SUS B   3      15.756  69.325  50.4750  0.00  0.00     0.000 C
ATOM     59   S  SUS B   3      17.144  69.208  48.3190  0.00  0.00     0.000 S
ATOM     60   O  SUS B   3      17.073  69.294  49.8990  0.00  0.00     0.000 O
ATOM     61   O  SUS B   3      16.864  70.552  47.8530  0.00  0.00     0.000 OA
ATOM     62   O  SUS B   3      18.519  68.830  48.1340  0.00  0.00     0.000 OA
ATOM     63   O  SUS B   3      16.188  68.225  47.9490  0.00  0.00     0.000 OA
ENDBRANCH 45 58
BRANCH 41 64
ATOM     64  O4  IDS B   4      16.556  68.431  54.6490  0.00  0.00     0.000 O
BRANCH 64 68
ATOM     65  C1  IDS B   4      15.866  65.614  56.8550  0.00  0.00     0.000 C
ATOM     66  C2  IDS B   4      16.910  66.666  57.2500  0.00  0.00     0.000 C
ATOM     67  C3  IDS B   4      17.881  67.034  56.1400  0.00  0.00     0.000 C
ATOM     68  C4  IDS B   4      17.210  67.150  54.7840  0.00  0.00     0.000 C
ATOM     69  C5  IDS B   4      16.259  65.957  54.6190  0.00  0.00     0.000 C
ATOM     70  O5  IDS B   4      15.258  66.009  55.6380  0.00  0.00     0.000 O
ATOM     71   O  IDS B   4      18.871  66.028  56.0980  0.00  0.00     0.000 O
ATOM     73  HD  IDS B   4      18.225  66.482  56.4530  0.00  0.00     0.000 HD
BRANCH 66 73
ATOM     73   O  IDS B   4      16.217  67.915  57.5930  0.00  0.00     0.000 O
ATOM     74   S  IDS B   4      16.194  68.368  59.1460  0.00  0.00     0.000 S
ATOM     75   O  IDS B   4      15.611  67.269  59.8850  0.00  0.00     0.000 OA
ATOM     76   O  IDS B   4      15.368  69.548  59.0990  0.00  0.00     0.000 OA
ATOM     77   O  IDS B   4      17.573  68.621  59.4930  0.00  0.00     0.000 OA
ENDBRANCH 66 73
BRANCH 69 78
ATOM     78   C  IDS B   4      15.673  65.809  53.2210  0.00  0.00     0.000 C
ATOM     79   O  IDS B   4      16.384  66.071  52.2520  0.00  0.00     0.000 OA
ATOM     80   O  IDS B   4      14.532  65.326  53.1010  0.00  0.00     0.000 OA
ENDBRANCH 69 78
BRANCH 65 81
ATOM     81  O4  SGN B   5      16.436  64.377  56.8830  0.00  0.00     0.000 O
BRANCH 81 85
ATOM     82  C1  SGN B   5      15.716  60.334  57.7630  0.00  0.00     0.000 C
ATOM     83  C2  SGN B   5      14.987  60.924  56.5460  0.00  0.00     0.000 C
ATOM     84  C3  SGN B   5      15.693  62.212  56.0990  0.00  0.00     0.000 C
ATOM     85  C4  SGN B   5      15.772  63.173  57.2720  0.00  0.00     0.000 C
ATOM     86  C5  SGN B   5      16.534  62.487  58.4030  0.00  0.00     0.000 C
ATOM     87  O5  SGN B   5      15.816  61.301  58.7920  0.00  0.00     0.000 O
ATOM     88   O  SGN B   5      14.995  62.791  55.0180  0.00  0.00     0.000 O
ATOM     90  HD  SGN B   5      15.724  62.328  54.9550  0.00  0.00     0.000 HD
BRANCH 83 92
ATOM     90   N  SGN B   5      14.029  59.812  56.6950  0.00  0.00     0.000 N
ATOM     92  HD  SGN B   5      13.404  60.013  57.2600  0.00  0.00     0.000 HD
ATOM     92   S  SGN B   5      13.531  59.066  55.3720  0.00  0.00     0.000 S
ATOM     93   O  SGN B   5      12.625  58.065  55.8490  0.00  0.00     0.000 OA
ATOM     94   O  SGN B   5      13.066  60.093  54.5030  0.00  0.00     0.000 OA
ATOM     95   O  SGN B   5      14.789  58.491  54.7590  0.00  0.00     0.000 OA
ENDBRANCH 83 92
BRANCH 86 96
ATOM     96   C  SGN B   5      16.703  63.339  59.6440  0.00  0.00     0.000 C
ATOM     97   O  SGN B   5      15.461  63.948  60.0080  0.00  0.00     0.000 O
ATOM     98   S  SGN B   5      15.007  63.768  61.5350  0.00  0.00     0.000 S
ATOM     99   O  SGN B   5      13.862  64.641  61.6310  0.00  0.00     0.000 OA
ATOM    100   O  SGN B   5      14.721  62.392  61.7350  0.00  0.00     0.000 OA
ATOM    101   O  SGN B   5      16.128  64.218  62.2940  0.00  0.00     0.000 OA
ENDBRANCH 86 96
BRANCH 82 102
ATOM    102  O4  IDS B   6      16.950  59.846  57.4480  0.00  0.00     0.000 O
BRANCH 102 106
ATOM    103  C1  IDS B   6      19.581  57.358  57.0690  0.00  0.00     0.000 C
ATOM    104  C2  IDS B   6      18.216  57.169  56.3890  0.00  0.00     0.000 C
ATOM    105  C3  IDS B   6      17.014  57.418  57.2790  0.00  0.00     0.000 C
ATOM    106  C4  IDS B   6      17.195  58.622  58.1860  0.00  0.00     0.000 C
ATOM    107  C5  IDS B   6      18.608  58.617  58.7770  0.00  0.00     0.000 C
ATOM    108  O5  IDS B   6      19.611  58.593  57.7600  0.00  0.00     0.000 O
ATOM    109   O  IDS B   6      16.778  56.245  58.0410  0.00  0.00     0.000 O
ATOM    111  HD  IDS B   6      17.544  55.842  58.0470  0.00  0.00     0.000 HD
BRANCH 104 111
ATOM    111   O  IDS B   6      18.091  58.136  55.2880  0.00  0.00     0.000 O
ATOM    112   S  IDS B   6      18.266  57.598  53.7900  0.00  0.00     0.000 S
ATOM    113   O  IDS B   6      19.599  57.015  53.7640  0.00  0.00     0.000 OA
ATOM    114   O  IDS B   6      17.179  56.655  53.5050  0.00  0.00     0.000 OA
ATOM    115   O  IDS B   6      18.160  58.853  53.0780  0.00  0.00     0.000 OA
ENDBRANCH 104 111
BRANCH 107 116
ATOM    116   C  IDS B   6      18.792  59.847  59.6560  0.00  0.00     0.000 C
ATOM    117   O  IDS B   6      19.578  60.676  59.2710  0.00  0.00     0.000 OA
ATOM    118   O  IDS B   6      18.178  59.978  60.7030  0.00  0.00     0.000 OA
ENDBRANCH 107 116
BRANCH 103 119
ATOM    119  O4  SGN B   7      19.783  56.182  57.7160  0.00  0.00     0.000 O
BRANCH 119 123
ATOM    120  C1  SGN B   7      23.049  53.724  58.6020  0.00  0.00     0.000 C
ATOM    121  C2  SGN B   7      22.906  55.035  59.3980  0.00  0.00     0.000 C
ATOM    122  C3  SGN B   7      21.488  55.601  59.2520  0.00  0.00     0.000 C
ATOM    123  C4  SGN B   7      21.138  55.735  57.7790  0.00  0.00     0.000 C
ATOM    124  C5  SGN B   7      21.318  54.380  57.0740  0.00  0.00     0.000 C
ATOM    125  O5  SGN B   7      22.667  53.886  57.2370  0.00  0.00     0.000 O
ATOM    126   O  SGN B   7      21.420  56.866  59.9210  0.00  0.00     0.000 O
ATOM    128  HD  SGN B   7      21.865  56.140  59.7640  0.00  0.00     0.000 HD
BRANCH 121 130
ATOM    128   N  SGN B   7      24.284  54.924  59.8840  0.00  0.00     0.000 N
ATOM    130  HD  SGN B   7      24.336  55.786  59.9550  0.00  0.00     0.000 HD
ATOM    130   S  SGN B   7      24.676  55.182  61.4240  0.00  0.00     0.000 S
ATOM    131   O  SGN B   7      23.771  54.384  62.1770  0.00  0.00     0.000 OA
ATOM    132   O  SGN B   7      26.077  55.005  61.5640  0.00  0.00     0.000 OA
ATOM    133   O  SGN B   7      24.463  56.732  61.5120  0.00  0.00     0.000 OA
ENDBRANCH 121 130
BRANCH 124 134
ATOM    134   C  SGN B   7      21.107  54.435  55.5900  0.00  0.00     0.000 C
ATOM    135   O  SGN B   7      22.094  53.604  54.9560  0.00  0.00     0.000 O
ATOM    136   S  SGN B   7      21.949  53.404  53.4050  0.00  0.00     0.000 S
ATOM    137   O  SGN B   7      23.095  52.632  52.9860  0.00  0.00     0.000 OA
ATOM    138   O  SGN B   7      21.935  54.739  52.8510  0.00  0.00     0.000 OA
ATOM    139   O  SGN B   7      20.685  52.693  53.2980  0.00  0.00     0.000 OA
ENDBRANCH 124 134
BRANCH 120 140
ATOM    140  O4  IDS B   8      22.464  52.546  58.8450  0.00  0.00     0.000 O
BRANCH 140 144
ATOM    141  C1  IDS B   8      19.862  50.215  59.7170  0.00  0.00     0.000 C
ATOM    142  C2  IDS B   8      19.972  51.594  60.4280  0.00  0.00     0.000 C
ATOM    143  C3  IDS B   8      21.397  51.908  60.9200  0.00  0.00     0.000 C
ATOM    144  C4  IDS B   8      22.455  51.551  59.8760  0.00  0.00     0.000 C
ATOM    145  C5  IDS B   8      22.159  50.169  59.2740  0.00  0.00     0.000 C
ATOM    146  O5  IDS B   8      20.854  50.111  58.7030  0.00  0.00     0.000 O
BRANCH 142 147
ATOM    147   O  IDS B   8      19.586  52.673  59.4810  0.00  0.00     0.000 O
ATOM    148   S  IDS B   8      18.094  53.308  59.5000  0.00  0.00     0.000 S
ATOM    149   O  IDS B   8      17.243  52.406  60.2430  0.00  0.00     0.000 OA
ATOM    150   O  IDS B   8      18.234  54.603  60.1400  0.00  0.00     0.000 OA
ATOM    151   O  IDS B   8      17.700  53.401  58.1070  0.00  0.00     0.000 OA
ENDBRANCH 142 147
BRANCH 145 152
ATOM    152   C  IDS B   8      23.119  49.801  58.1600  0.00  0.00     0.000 C
ATOM    153   O  IDS B   8      24.321  49.748  58.3910  0.00  0.00     0.000 OA
ATOM    154   O  IDS B   8      22.683  49.542  57.0520  0.00  0.00     0.000 OA
ENDBRANCH 145 152
ENDBRANCH 140 144
ENDBRANCH 120 140
ENDBRANCH 119 123
ENDBRANCH 103 119
ENDBRANCH 102 106
ENDBRANCH 82 102
ENDBRANCH 81 85
ENDBRANCH 65 81
ENDBRANCH 64 68
ENDBRANCH 41 64
ENDBRANCH 40 44
ENDBRANCH 24 40
ENDBRANCH 23 27
ENDBRANCH 1 23
TORSDOF 31
ENDMDL
MODEL 91
REMARK VINA RESULT:      -1.2     95.211    100.692
ROOT
ATOM      1  C1  SGN B   1      85.938  88.465  72.9020  0.00  0.00     0.000 C
ATOM      2  C2  SGN B   1      86.149  89.635  73.8760  0.00  0.00     0.000 C
ATOM      3  C3  SGN B   1      84.835  90.388  74.1130  0.00  0.00     0.000 C
ATOM      4  C4  SGN B   1      84.247  90.850  72.7840  0.00  0.00     0.000 C
ATOM      5  C5  SGN B   1      84.198  89.666  71.8210  0.00  0.00     0.000 C
ATOM      6  O5  SGN B   1      85.513  89.091  71.6990  0.00  0.00     0.000 O
ATOM      7   O  SGN B   1      85.044  91.497  74.9790  0.00  0.00     0.000 O
ATOM      9  HD  SGN B   1      85.557  91.697  74.3110  0.00  0.00     0.000 HD
ATOM      9   O  SGN B   1      82.943  91.359  72.9980  0.00  0.00     0.000 O
ATOM     11  HD  SGN B   1      83.457  91.559  72.3300  0.00  0.00     0.000 HD
ENDROOT
BRANCH 2 13
ATOM     11   N  SGN B   1      87.581  89.563  74.2240  0.00  0.00     0.000 N
ATOM     13  HD  SGN B   1      87.081  88.857  74.2680  0.00  0.00     0.000 HD
ATOM     13   S  SGN B   1      88.156  88.493  75.2790  0.00  0.00     0.000 S
ATOM     14   O  SGN B   1      87.117  87.657  75.7380  0.00  0.00     0.000 OA
ATOM     15   O  SGN B   1      89.334  87.909  74.7310  0.00  0.00     0.000 OA
ATOM     16   O  SGN B   1      88.611  89.494  76.3860  0.00  0.00     0.000 OA
ENDBRANCH 2 13
BRANCH 5 17
ATOM     17   C  SGN B   1      83.734  90.024  70.4300  0.00  0.00     0.000 C
ATOM     18   O  SGN B   1      84.304  91.278  70.0040  0.00  0.00     0.000 O
ATOM     19   S  SGN B   1      83.296  92.305  69.3070  0.00  0.00     0.000 S
ATOM     20   O  SGN B   1      84.139  93.354  68.7720  0.00  0.00     0.000 OA
ATOM     21   O  SGN B   1      82.637  91.518  68.2910  0.00  0.00     0.000 OA
ATOM     22   O  SGN B   1      82.418  92.751  70.3670  0.00  0.00     0.000 OA
ENDBRANCH 5 17
BRANCH 1 23
ATOM     23  O4  IDS B   2      85.610  87.141  72.9010  0.00  0.00     0.000 O
BRANCH 23 27
ATOM     24  C1  IDS B   2      81.512  86.485  72.9460  0.00  0.00     0.000 C
ATOM     25  C2  IDS B   2      82.196  86.521  74.3300  0.00  0.00     0.000 C
ATOM     26  C3  IDS B   2      83.621  87.057  74.2200  0.00  0.00     0.000 C
ATOM     27  C4  IDS B   2      84.479  86.302  73.2140  0.00  0.00     0.000 C
ATOM     28  C5  IDS B   2      83.628  85.897  71.9940  0.00  0.00     0.000 C
ATOM     29  O5  IDS B   2      82.464  86.705  71.8970  0.00  0.00     0.000 O
ATOM     30   O  IDS B   2      84.258  86.958  75.4880  0.00  0.00     0.000 O
ATOM     32  HD  IDS B   2      84.541  86.159  75.6670  0.00  0.00     0.000 HD
BRANCH 25 32
ATOM     32   O  IDS B   2      81.467  87.380  75.2940  0.00  0.00     0.000 O
ATOM     33   S  IDS B   2      80.806  86.771  76.6780  0.00  0.00     0.000 S
ATOM     34   O  IDS B   2      79.995  87.837  77.2440  0.00  0.00     0.000 OA
ATOM     35   O  IDS B   2      79.999  85.602  76.3560  0.00  0.00     0.000 OA
ATOM     36   O  IDS B   2      81.924  86.448  77.5350  0.00  0.00     0.000 OA
ENDBRANCH 25 32
BRANCH 28 37
ATOM     37   C  IDS B   2      84.315  85.869  70.6130  0.00  0.00     0.000 C
ATOM     38   O  IDS B   2      85.032  84.907  70.4680  0.00  0.00     0.000 OA
ATOM     39   O  IDS B   2      84.147  86.679  69.6690  0.00  0.00     0.000 OA
ENDBRANCH 28 37
BRANCH 24 40
ATOM     40  O4  SUS B   3      80.268  85.977  72.8240  0.00  0.00     0.000 O
BRANCH 40 44
ATOM     41  C1  SUS B   3      77.125  87.073  70.2800  0.00  0.00     0.000 C
ATOM     42  C2  SUS B   3      78.349  86.392  69.6350  0.00  0.00     0.000 C
ATOM     43  C3  SUS B   3      79.137  85.650  70.7130  0.00  0.00     0.000 C
ATOM     44  C4  SUS B   3      79.488  86.626  71.8250  0.00  0.00     0.000 C
ATOM     45  C5  SUS B   3      78.206  87.154  72.4360  0.00  0.00     0.000 C
ATOM     46  O5  SUS B   3      77.482  87.870  71.4150  0.00  0.00     0.000 O
BRANCH 42 49
ATOM     47   N  SUS B   3      78.074  87.098  68.3720  0.00  0.00     0.000 N
ATOM     49  HD  SUS B   3      77.296  87.472  68.2990  0.00  0.00     0.000 HD
ATOM     49   S  SUS B   3      78.304  86.173  67.0850  0.00  0.00     0.000 S
ATOM     50   O  SUS B   3      77.495  85.022  67.1700  0.00  0.00     0.000 OA
ATOM     51   O  SUS B   3      77.730  87.168  66.0440  0.00  0.00     0.000 OA
ATOM     52   O  SUS B   3      79.686  85.986  66.8850  0.00  0.00     0.000 OA
ENDBRANCH 42 49
BRANCH 43 53
ATOM     53   O  SUS B   3      80.372  85.129  70.0950  0.00  0.00     0.000 O
ATOM     54   S  SUS B   3      80.527  83.496  69.9900  0.00  0.00     0.000 S
ATOM     55   O  SUS B   3      79.585  83.033  68.9800  0.00  0.00     0.000 OA
ATOM     56   O  SUS B   3      81.919  83.297  69.6280  0.00  0.00     0.000 OA
ATOM     57   O  SUS B   3      80.191  82.962  71.3130  0.00  0.00     0.000 OA
ENDBRANCH 43 53
BRANCH 45 58
ATOM     58   C  SUS B   3      78.472  88.057  73.6200  0.00  0.00     0.000 C
ATOM     59   S  SUS B   3      79.061  90.477  74.2390  0.00  0.00     0.000 S
ATOM     60   O  SUS B   3      78.570  89.418  73.1680  0.00  0.00     0.000 O
ATOM     61   O  SUS B   3      80.498  90.296  74.3200  0.00  0.00     0.000 OA
ATOM     62   O  SUS B   3      78.691  91.705  73.5890  0.00  0.00     0.000 OA
ATOM     63   O  SUS B   3      78.342  90.177  75.4270  0.00  0.00     0.000 OA
ENDBRANCH 45 58
BRANCH 41 64
ATOM     64  O4  IDS B   4      76.071  86.222  70.5000  0.00  0.00     0.000 O
BRANCH 64 68
ATOM     65  C1  IDS B   4      72.693  84.867  70.3180  0.00  0.00     0.000 C
ATOM     66  C2  IDS B   4      73.460  85.205  69.0330  0.00  0.00     0.000 C
ATOM     67  C3  IDS B   4      74.145  86.561  69.0500  0.00  0.00     0.000 C
ATOM     68  C4  IDS B   4      74.790  86.880  70.3850  0.00  0.00     0.000 C
ATOM     69  C5  IDS B   4      73.803  86.496  71.4960  0.00  0.00     0.000 C
ATOM     70  O5  IDS B   4      73.543  85.092  71.4290  0.00  0.00     0.000 O
ATOM     71   O  IDS B   4      73.162  87.531  68.7510  0.00  0.00     0.000 O
ATOM     73  HD  IDS B   4      73.496  86.733  68.7840  0.00  0.00     0.000 HD
BRANCH 66 73
ATOM     73   O  IDS B   4      74.539  84.224  68.8540  0.00  0.00     0.000 O
ATOM     74   S  IDS B   4      74.395  83.148  67.6550  0.00  0.00     0.000 S
ATOM     75   O  IDS B   4      73.142  82.458  67.8730  0.00  0.00     0.000 OA
ATOM     76   O  IDS B   4      75.561  82.325  67.8540  0.00  0.00     0.000 OA
ATOM     77   O  IDS B   4      74.416  83.923  66.4370  0.00  0.00     0.000 OA
ENDBRANCH 66 73
BRANCH 69 78
ATOM     78   C  IDS B   4      74.212  86.957  72.8880  0.00  0.00     0.000 C
ATOM     79   O  IDS B   4      74.763  88.050  73.0110  0.00  0.00     0.000 OA
ATOM     80   O  IDS B   4      73.881  86.262  73.8670  0.00  0.00     0.000 OA
ENDBRANCH 69 78
BRANCH 65 81
ATOM     81  O4  SGN B   5      71.498  85.519  70.3170  0.00  0.00     0.000 O
BRANCH 81 85
ATOM     82  C1  SGN B   5      67.468  85.209  71.4570  0.00  0.00     0.000 C
ATOM     83  C2  SGN B   5      68.506  85.304  72.5840  0.00  0.00     0.000 C
ATOM     84  C3  SGN B   5      69.820  85.867  72.0260  0.00  0.00     0.000 C
ATOM     85  C4  SGN B   5      70.280  85.008  70.8620  0.00  0.00     0.000 C
ATOM     86  C5  SGN B   5      69.181  85.009  69.8020  0.00  0.00     0.000 C
ATOM     87  O5  SGN B   5      67.983  84.454  70.3770  0.00  0.00     0.000 O
ATOM     88   O  SGN B   5      70.797  85.904  73.0440  0.00  0.00     0.000 O
ATOM     90  HD  SGN B   5      70.343  86.584  72.7580  0.00  0.00     0.000 HD
BRANCH 83 92
ATOM     90   N  SGN B   5      67.479  84.702  73.4570  0.00  0.00     0.000 N
ATOM     92  HD  SGN B   5      67.500  83.837  73.4110  0.00  0.00     0.000 HD
ATOM     92   S  SGN B   5      67.302  85.297  74.9300  0.00  0.00     0.000 S
ATOM     93   O  SGN B   5      66.255  84.509  75.5070  0.00  0.00     0.000 OA
ATOM     94   O  SGN B   5      68.602  85.290  75.5080  0.00  0.00     0.000 OA
ATOM     95   O  SGN B   5      66.911  86.743  74.7150  0.00  0.00     0.000 OA
ENDBRANCH 83 92
BRANCH 86 96
ATOM     96   C  SGN B   5      69.509  84.195  68.5670  0.00  0.00     0.000 C
ATOM     97   O  SGN B   5      70.022  82.912  68.9330  0.00  0.00     0.000 O
ATOM     98   S  SGN B   5      69.327  81.648  68.2330  0.00  0.00     0.000 S
ATOM     99   O  SGN B   5      70.177  80.554  68.6360  0.00  0.00     0.000 OA
ATOM    100   O  SGN B   5      67.995  81.572  68.7170  0.00  0.00     0.000 OA
ATOM    101   O  SGN B   5      69.396  81.933  66.8370  0.00  0.00     0.000 OA
ENDBRANCH 86 96
BRANCH 82 102
ATOM    102  O4  IDS B   6      67.050  86.432  71.0240  0.00  0.00     0.000 O
BRANCH 102 106
ATOM    103  C1  IDS B   6      64.709  89.140  70.3580  0.00  0.00     0.000 C
ATOM    104  C2  IDS B   6      64.867  88.569  71.7760  0.00  0.00     0.000 C
ATOM    105  C3  IDS B   6      64.851  87.055  71.8640  0.00  0.00     0.000 C
ATOM    106  C4  IDS B   6      65.629  86.393  70.7400  0.00  0.00     0.000 C
ATOM    107  C5  IDS B   6      65.318  87.095  69.4150  0.00  0.00     0.000 C
ATOM    108  O5  IDS B   6      65.603  88.494  69.4730  0.00  0.00     0.000 O
ATOM    109   O  IDS B   6      63.499  86.627  71.8620  0.00  0.00     0.000 O
ATOM    111  HD  IDS B   6      63.074  87.281  71.4860  0.00  0.00     0.000 HD
BRANCH 104 111
ATOM    111   O  IDS B   6      66.175  88.975  72.3140  0.00  0.00     0.000 O
ATOM    112   S  IDS B   6      66.209  90.148  73.4020  0.00  0.00     0.000 S
ATOM    113   O  IDS B   6      65.593  91.285  72.7360  0.00  0.00     0.000 OA
ATOM    114   O  IDS B   6      65.505  89.687  74.6040  0.00  0.00     0.000 OA
ATOM    115   O  IDS B   6      67.642  90.271  73.5690  0.00  0.00     0.000 OA
ENDBRANCH 104 111
BRANCH 107 116
ATOM    116   C  IDS B   6      66.130  86.448  68.3000  0.00  0.00     0.000 C
ATOM    117   O  IDS B   6      65.833  85.320  67.9970  0.00  0.00     0.000 OA
ATOM    118   O  IDS B   6      67.043  87.044  67.7510  0.00  0.00     0.000 OA
ENDBRANCH 107 116
BRANCH 103 119
ATOM    119  O4  SGN B   7      63.367  89.116  70.1500  0.00  0.00     0.000 O
BRANCH 119 123
ATOM    120  C1  SGN B   7      60.554  91.507  68.1870  0.00  0.00     0.000 C
ATOM    121  C2  SGN B   7      61.490  90.647  67.3170  0.00  0.00     0.000 C
ATOM    122  C3  SGN B   7      62.160  89.557  68.1640  0.00  0.00     0.000 C
ATOM    123  C4  SGN B   7      62.843  90.187  69.3660  0.00  0.00     0.000 C
ATOM    124  C5  SGN B   7      61.830  91.027  70.1610  0.00  0.00     0.000 C
ATOM    125  O5  SGN B   7      61.226  92.040  69.3260  0.00  0.00     0.000 O
ATOM    126   O  SGN B   7      63.095  88.842  67.3470  0.00  0.00     0.000 O
ATOM    128  HD  SGN B   7      62.449  89.417  67.3950  0.00  0.00     0.000 HD
BRANCH 121 130
ATOM    128   N  SGN B   7      61.120  91.406  66.1200  0.00  0.00     0.000 N
ATOM    130  HD  SGN B   7      61.891  91.238  65.7660  0.00  0.00     0.000 HD
ATOM    130   S  SGN B   7      60.776  90.690  64.7200  0.00  0.00     0.000 S
ATOM    131   O  SGN B   7      59.821  89.685  65.0400  0.00  0.00     0.000 OA
ATOM    132   O  SGN B   7      60.467  91.695  63.7680  0.00  0.00     0.000 OA
ATOM    133   O  SGN B   7      62.199  90.180  64.3090  0.00  0.00     0.000 OA
ENDBRANCH 121 130
BRANCH 124 134
ATOM    134   C  SGN B   7      62.436  91.785  71.3060  0.00  0.00     0.000 C
ATOM    135   O  SGN B   7      61.833  93.089  71.3620  0.00  0.00     0.000 O
ATOM    136   S  SGN B   7      62.222  93.988  72.5900  0.00  0.00     0.000 S
ATOM    137   O  SGN B   7      61.585  95.266  72.3750  0.00  0.00     0.000 OA
ATOM    138   O  SGN B   7      63.665  94.064  72.5600  0.00  0.00     0.000 OA
ATOM    139   O  SGN B   7      61.681  93.237  73.7120  0.00  0.00     0.000 OA
ENDBRANCH 124 134
BRANCH 120 140
ATOM    140  O4  IDS B   8      59.408  91.141  68.7720  0.00  0.00     0.000 O
BRANCH 140 144
ATOM    141  C1  IDS B   8      57.090  89.080  70.6000  0.00  0.00     0.000 C
ATOM    142  C2  IDS B   8      58.105  88.452  69.6030  0.00  0.00     0.000 C
ATOM    143  C3  IDS B   8      58.126  89.162  68.2360  0.00  0.00     0.000 C
ATOM    144  C4  IDS B   8      58.108  90.682  68.3810  0.00  0.00     0.000 C
ATOM    145  C5  IDS B   8      57.063  91.103  69.4250  0.00  0.00     0.000 C
ATOM    146  O5  IDS B   8      57.300  90.484  70.6870  0.00  0.00     0.000 O
BRANCH 142 147
ATOM    147   O  IDS B   8      59.477  88.543  70.1670  0.00  0.00     0.000 O
ATOM    148   S  IDS B   8      60.155  87.279  70.9250  0.00  0.00     0.000 S
ATOM    149   O  IDS B   8      59.100  86.346  71.2510  0.00  0.00     0.000 OA
ATOM    150   O  IDS B   8      61.116  86.734  69.9840  0.00  0.00     0.000 OA
ATOM    151   O  IDS B   8      60.774  87.834  72.1140  0.00  0.00     0.000 OA
ENDBRANCH 142 147
BRANCH 145 152
ATOM    152   C  IDS B   8      57.066  92.596  69.6850  0.00  0.00     0.000 C
ATOM    153   O  IDS B   8      56.856  93.371  68.7590  0.00  0.00     0.000 OA
ATOM    154   O  IDS B   8      57.258  93.010  70.8140  0.00  0.00     0.000 OA
ENDBRANCH 145 152
ENDBRANCH 140 144
ENDBRANCH 120 140
ENDBRANCH 119 123
ENDBRANCH 103 119
ENDBRANCH 102 106
ENDBRANCH 82 102
ENDBRANCH 81 85
ENDBRANCH 65 81
ENDBRANCH 64 68
ENDBRANCH 41 64
ENDBRANCH 40 44
ENDBRANCH 24 40
ENDBRANCH 23 27
ENDBRANCH 1 23
TORSDOF 31
ENDMDL
MODEL 92
REMARK VINA RESULT:      -1.2     79.298     86.114
ROOT
ATOM      1  C1  SGN B   1      72.828  58.656  83.8180  0.00  0.00     0.000 C
ATOM      2  C2  SGN B   1      73.049  57.698  85.0010  0.00  0.00     0.000 C
ATOM      3  C3  SGN B   1      73.650  56.373  84.5210  0.00  0.00     0.000 C
ATOM      4  C4  SGN B   1      72.766  55.754  83.4430  0.00  0.00     0.000 C
ATOM      5  C5  SGN B   1      72.472  56.804  82.3740  0.00  0.00     0.000 C
ATOM      6  O5  SGN B   1      71.896  57.972  82.9920  0.00  0.00     0.000 O
ATOM      7   O  SGN B   1      73.811  55.473  85.6110  0.00  0.00     0.000 O
ATOM      9  HD  SGN B   1      72.955  55.599  85.6130  0.00  0.00     0.000 HD
ATOM      9   O  SGN B   1      73.431  54.645  82.8680  0.00  0.00     0.000 O
ATOM     11  HD  SGN B   1      72.574  54.771  82.8700  0.00  0.00     0.000 HD
ENDROOT
BRANCH 2 13
ATOM     11   N  SGN B   1      72.594  58.464  86.1760  0.00  0.00     0.000 N
ATOM     13  HD  SGN B   1      73.144  58.817  85.6080  0.00  0.00     0.000 HD
ATOM     13   S  SGN B   1      73.492  59.615  86.8530  0.00  0.00     0.000 S
ATOM     14   O  SGN B   1      74.691  59.783  86.1300  0.00  0.00     0.000 OA
ATOM     15   O  SGN B   1      72.662  60.745  87.1030  0.00  0.00     0.000 OA
ATOM     16   O  SGN B   1      73.749  58.920  88.2250  0.00  0.00     0.000 OA
ENDBRANCH 2 13
BRANCH 5 17
ATOM     17   C  SGN B   1      71.513  56.342  81.3060  0.00  0.00     0.000 C
ATOM     18   O  SGN B   1      70.434  55.576  81.8780  0.00  0.00     0.000 O
ATOM     19   S  SGN B   1      70.054  54.222  81.1170  0.00  0.00     0.000 S
ATOM     20   O  SGN B   1      68.823  53.777  81.7340  0.00  0.00     0.000 OA
ATOM     21   O  SGN B   1      69.898  54.625  79.7390  0.00  0.00     0.000 OA
ATOM     22   O  SGN B   1      71.172  53.333  81.3460  0.00  0.00     0.000 OA
ENDBRANCH 5 17
BRANCH 1 23
ATOM     23  O4  IDS B   2      73.475  59.630  83.1160  0.00  0.00     0.000 O
BRANCH 23 27
ATOM     24  C1  IDS B   2      75.898  58.120  80.1030  0.00  0.00     0.000 C
ATOM     25  C2  IDS B   2      76.593  58.358  81.4620  0.00  0.00     0.000 C
ATOM     26  C3  IDS B   2      75.567  58.623  82.5610  0.00  0.00     0.000 C
ATOM     27  C4  IDS B   2      74.612  59.763  82.2380  0.00  0.00     0.000 C
ATOM     28  C5  IDS B   2      74.262  59.748  80.7360  0.00  0.00     0.000 C
ATOM     29  O5  IDS B   2      74.509  58.470  80.1700  0.00  0.00     0.000 O
ATOM     30   O  IDS B   2      76.247  58.959  83.7650  0.00  0.00     0.000 O
ATOM     32  HD  IDS B   2      76.523  59.780  83.7830  0.00  0.00     0.000 HD
BRANCH 25 32
ATOM     32   O  IDS B   2      77.413  57.195  81.8840  0.00  0.00     0.000 O
ATOM     33   S  IDS B   2      79.046  57.309  82.0900  0.00  0.00     0.000 S
ATOM     34   O  IDS B   2      79.526  55.950  82.2780  0.00  0.00     0.000 OA
ATOM     35   O  IDS B   2      79.640  57.926  80.9130  0.00  0.00     0.000 OA
ATOM     36   O  IDS B   2      79.234  58.104  83.2820  0.00  0.00     0.000 OA
ENDBRANCH 25 32
BRANCH 28 37
ATOM     37   C  IDS B   2      72.846  60.197  80.3210  0.00  0.00     0.000 C
ATOM     38   O  IDS B   2      72.698  61.395  80.3850  0.00  0.00     0.000 OA
ATOM     39   O  IDS B   2      71.919  59.469  79.8890  0.00  0.00     0.000 OA
ENDBRANCH 28 37
BRANCH 24 40
ATOM     40  O4  SUS B   3      76.640  57.935  78.9910  0.00  0.00     0.000 O
BRANCH 40 44
ATOM     41  C1  SUS B   3      75.937  55.540  75.6270  0.00  0.00     0.000 C
ATOM     42  C2  SUS B   3      75.043  56.783  75.8070  0.00  0.00     0.000 C
ATOM     43  C3  SUS B   3      75.726  57.760  76.7610  0.00  0.00     0.000 C
ATOM     44  C4  SUS B   3      76.047  57.037  78.0590  0.00  0.00     0.000 C
ATOM     45  C5  SUS B   3      77.000  55.898  77.7640  0.00  0.00     0.000 C
ATOM     46  O5  SUS B   3      76.336  54.972  76.8800  0.00  0.00     0.000 O
BRANCH 42 49
ATOM     47   N  SUS B   3      74.623  57.539  74.6140  0.00  0.00     0.000 N
ATOM     49  HD  SUS B   3      74.630  58.402  74.6810  0.00  0.00     0.000 HD
ATOM     49   S  SUS B   3      73.182  57.092  74.0750  0.00  0.00     0.000 S
ATOM     50   O  SUS B   3      72.221  57.244  75.0950  0.00  0.00     0.000 OA
ATOM     51   O  SUS B   3      73.033  58.211  73.0130  0.00  0.00     0.000 OA
ATOM     52   O  SUS B   3      73.285  55.830  73.4580  0.00  0.00     0.000 OA
ENDBRANCH 42 49
BRANCH 43 53
ATOM     53   O  SUS B   3      74.790  58.870  77.0220  0.00  0.00     0.000 O
ATOM     54   S  SUS B   3      75.279  60.380  76.5950  0.00  0.00     0.000 S
ATOM     55   O  SUS B   3      75.270  60.447  75.1410  0.00  0.00     0.000 OA
ATOM     56   O  SUS B   3      74.309  61.256  77.2280  0.00  0.00     0.000 OA
ATOM     57   O  SUS B   3      76.636  60.542  77.1250  0.00  0.00     0.000 OA
ENDBRANCH 43 53
BRANCH 45 58
ATOM     58   C  SUS B   3      77.446  55.190  79.0250  0.00  0.00     0.000 C
ATOM     59   S  SUS B   3      76.733  53.382  80.7010  0.00  0.00     0.000 S
ATOM     60   O  SUS B   3      76.549  54.101  79.3020  0.00  0.00     0.000 O
ATOM     61   O  SUS B   3      76.113  54.268  81.6670  0.00  0.00     0.000 OA
ATOM     62   O  SUS B   3      75.975  52.178  80.4840  0.00  0.00     0.000 OA
ATOM     63   O  SUS B   3      78.133  53.199  80.8530  0.00  0.00     0.000 OA
ENDBRANCH 45 58
BRANCH 41 64
ATOM     64  O4  IDS B   4      76.969  55.723  74.7400  0.00  0.00     0.000 O
BRANCH 64 68
ATOM     65  C1  IDS B   4      78.619  55.280  71.5220  0.00  0.00     0.000 C
ATOM     66  C2  IDS B   4      77.089  55.345  71.6030  0.00  0.00     0.000 C
ATOM     67  C3  IDS B   4      76.481  54.487  72.7000  0.00  0.00     0.000 C
ATOM     68  C4  IDS B   4      77.278  54.528  73.9900  0.00  0.00     0.000 C
ATOM     69  C5  IDS B   4      78.766  54.396  73.6360  0.00  0.00     0.000 C
ATOM     70  O5  IDS B   4      79.154  55.499  72.8150  0.00  0.00     0.000 O
ATOM     71   O  IDS B   4      76.426  53.162  72.2140  0.00  0.00     0.000 O
ATOM     73  HD  IDS B   4      76.496  54.022  72.1480  0.00  0.00     0.000 HD
BRANCH 66 73
ATOM     73   O  IDS B   4      76.690  56.724  71.9180  0.00  0.00     0.000 O
ATOM     74   S  IDS B   4      75.960  57.585  70.7600  0.00  0.00     0.000 S
ATOM     75   O  IDS B   4      76.857  57.586  69.6230  0.00  0.00     0.000 OA
ATOM     76   O  IDS B   4      75.815  58.871  71.3940  0.00  0.00     0.000 OA
ATOM     77   O  IDS B   4      74.713  56.906  70.5020  0.00  0.00     0.000 OA
ENDBRANCH 66 73
BRANCH 69 78
ATOM     78   C  IDS B   4      79.683  54.198  74.8360  0.00  0.00     0.000 C
ATOM     79   O  IDS B   4      79.702  55.060  75.7130  0.00  0.00     0.000 OA
ATOM     80   O  IDS B   4      80.302  53.124  74.9420  0.00  0.00     0.000 OA
ENDBRANCH 69 78
BRANCH 65 81
ATOM     81  O4  SGN B   5      78.991  54.131  70.8910  0.00  0.00     0.000 O
BRANCH 81 85
ATOM     82  C1  SGN B   5      81.829  52.480  68.2730  0.00  0.00     0.000 C
ATOM     83  C2  SGN B   5      82.273  52.715  69.7250  0.00  0.00     0.000 C
ATOM     84  C3  SGN B   5      81.036  52.866  70.6210  0.00  0.00     0.000 C
ATOM     85  C4  SGN B   5      80.156  53.978  70.0780  0.00  0.00     0.000 C
ATOM     86  C5  SGN B   5      79.763  53.622  68.6470  0.00  0.00     0.000 C
ATOM     87  O5  SGN B   5      80.959  53.513  67.8520  0.00  0.00     0.000 O
ATOM     88   O  SGN B   5      81.435  53.139  71.9470  0.00  0.00     0.000 O
ATOM     90  HD  SGN B   5      81.169  52.370  71.6510  0.00  0.00     0.000 HD
BRANCH 83 92
ATOM     90   N  SGN B   5      83.656  52.686  69.2120  0.00  0.00     0.000 N
ATOM     92  HD  SGN B   5      83.901  53.469  68.9340  0.00  0.00     0.000 HD
ATOM     92   S  SGN B   5      84.756  51.895  70.0590  0.00  0.00     0.000 S
ATOM     93   O  SGN B   5      85.966  52.060  69.3120  0.00  0.00     0.000 OA
ATOM     94   O  SGN B   5      84.661  52.403  71.3850  0.00  0.00     0.000 OA
ATOM     95   O  SGN B   5      84.263  50.464  70.0880  0.00  0.00     0.000 OA
ENDBRANCH 83 92
BRANCH 86 96
ATOM     96   C  SGN B   5      78.868  54.644  67.9760  0.00  0.00     0.000 C
ATOM     97   O  SGN B   5      79.401  55.961  68.1370  0.00  0.00     0.000 O
ATOM     98   S  SGN B   5      79.539  56.835  66.8000  0.00  0.00     0.000 S
ATOM     99   O  SGN B   5      79.896  58.138  67.3070  0.00  0.00     0.000 OA
ATOM    100   O  SGN B   5      80.530  56.222  65.9900  0.00  0.00     0.000 OA
ATOM    101   O  SGN B   5      78.238  56.793  66.2130  0.00  0.00     0.000 OA
ENDBRANCH 86 96
BRANCH 82 102
ATOM    102  O4  IDS B   6      81.242  51.263  68.0950  0.00  0.00     0.000 O
BRANCH 102 106
ATOM    103  C1  IDS B   6      80.809  47.905  66.7530  0.00  0.00     0.000 C
ATOM    104  C2  IDS B   6      82.109  48.304  67.4700  0.00  0.00     0.000 C
ATOM    105  C3  IDS B   6      82.703  49.629  67.0340  0.00  0.00     0.000 C
ATOM    106  C4  IDS B   6      81.650  50.703  66.8210  0.00  0.00     0.000 C
ATOM    107  C5  IDS B   6      80.450  50.110  66.0770  0.00  0.00     0.000 C
ATOM    108  O5  IDS B   6      79.897  48.987  66.7660  0.00  0.00     0.000 O
ATOM    109   O  IDS B   6      83.446  49.410  65.8460  0.00  0.00     0.000 O
ATOM    111  HD  IDS B   6      83.101  48.688  65.5140  0.00  0.00     0.000 HD
BRANCH 104 111
ATOM    111   O  IDS B   6      81.837  48.455  68.9080  0.00  0.00     0.000 O
ATOM    112   S  IDS B   6      82.328  47.294  69.8930  0.00  0.00     0.000 S
ATOM    113   O  IDS B   6      81.665  46.094  69.4050  0.00  0.00     0.000 OA
ATOM    114   O  IDS B   6      83.794  47.242  69.8550  0.00  0.00     0.000 OA
ATOM    115   O  IDS B   6      81.789  47.798  71.1370  0.00  0.00     0.000 OA
ENDBRANCH 104 111
BRANCH 107 116
ATOM    116   C  IDS B   6      79.385  51.184  65.9010  0.00  0.00     0.000 C
ATOM    117   O  IDS B   6      78.355  51.030  66.5060  0.00  0.00     0.000 OA
ATOM    118   O  IDS B   6      79.569  52.148  65.1730  0.00  0.00     0.000 OA
ENDBRANCH 107 116
BRANCH 103 119
ATOM    119  O4  SGN B   7      81.240  47.358  65.5880  0.00  0.00     0.000 O
BRANCH 119 123
ATOM    120  C1  SGN B   7      80.050  44.235  63.0740  0.00  0.00     0.000 C
ATOM    121  C2  SGN B   7      79.203  45.522  63.0630  0.00  0.00     0.000 C
ATOM    122  C3  SGN B   7      79.978  46.681  63.7040  0.00  0.00     0.000 C
ATOM    123  C4  SGN B   7      80.459  46.273  65.0870  0.00  0.00     0.000 C
ATOM    124  C5  SGN B   7      81.285  44.979  64.9920  0.00  0.00     0.000 C
ATOM    125  O5  SGN B   7      80.517  43.917  64.3840  0.00  0.00     0.000 O
ATOM    126   O  SGN B   7      79.128  47.832  63.7660  0.00  0.00     0.000 O
ATOM    128  HD  SGN B   7      79.258  47.029  63.4690  0.00  0.00     0.000 HD
BRANCH 121 130
ATOM    128   N  SGN B   7      78.115  44.835  62.3630  0.00  0.00     0.000 N
ATOM    130  HD  SGN B   7      77.537  45.374  62.7170  0.00  0.00     0.000 HD
ATOM    130   S  SGN B   7      77.350  45.493  61.1080  0.00  0.00     0.000 S
ATOM    131   O  SGN B   7      78.381  45.916  60.2230  0.00  0.00     0.000 OA
ATOM    132   O  SGN B   7      76.354  44.585  60.6660  0.00  0.00     0.000 OA
ATOM    133   O  SGN B   7      76.554  46.632  61.8300  0.00  0.00     0.000 OA
ENDBRANCH 121 130
BRANCH 124 134
ATOM    134   C  SGN B   7      81.709  44.432  66.3230  0.00  0.00     0.000 C
ATOM    135   O  SGN B   7      81.583  43.000  66.2900  0.00  0.00     0.000 O
ATOM    136   S  SGN B   7      82.125  42.220  67.5410  0.00  0.00     0.000 S
ATOM    137   O  SGN B   7      81.798  40.831  67.3280  0.00  0.00     0.000 OA
ATOM    138   O  SGN B   7      81.434  42.795  68.6740  0.00  0.00     0.000 OA
ATOM    139   O  SGN B   7      83.550  42.507  67.4960  0.00  0.00     0.000 OA
ENDBRANCH 124 134
BRANCH 120 140
ATOM    140  O4  IDS B   8      81.167  43.979  62.3850  0.00  0.00     0.000 O
BRANCH 140 144
ATOM    141  C1  IDS B   8      84.410  44.553  60.9310  0.00  0.00     0.000 C
ATOM    142  C2  IDS B   8      83.345  45.685  60.9830  0.00  0.00     0.000 C
ATOM    143  C3  IDS B   8      81.962  45.236  60.4780  0.00  0.00     0.000 C
ATOM    144  C4  IDS B   8      81.574  43.860  61.0170  0.00  0.00     0.000 C
ATOM    145  C5  IDS B   8      82.762  42.892  60.9010  0.00  0.00     0.000 C
ATOM    146  O5  IDS B   8      83.913  43.388  61.5790  0.00  0.00     0.000 O
BRANCH 142 147
ATOM    147   O  IDS B   8      83.174  46.141  62.3870  0.00  0.00     0.000 O
ATOM    148   S  IDS B   8      83.930  47.468  62.9340  0.00  0.00     0.000 S
ATOM    149   O  IDS B   8      84.985  47.788  61.9980  0.00  0.00     0.000 OA
ATOM    150   O  IDS B   8      82.908  48.495  63.0010  0.00  0.00     0.000 OA
ATOM    151   O  IDS B   8      84.454  47.100  64.2350  0.00  0.00     0.000 OA
ENDBRANCH 142 147
BRANCH 145 152
ATOM    152   C  IDS B   8      82.471  41.536  61.5110  0.00  0.00     0.000 C
ATOM    153   O  IDS B   8      81.533  40.871  61.0850  0.00  0.00     0.000 OA
ATOM    154   O  IDS B   8      83.183  41.112  62.4030  0.00  0.00     0.000 OA
ENDBRANCH 145 152
ENDBRANCH 140 144
ENDBRANCH 120 140
ENDBRANCH 119 123
ENDBRANCH 103 119
ENDBRANCH 102 106
ENDBRANCH 82 102
ENDBRANCH 81 85
ENDBRANCH 65 81
ENDBRANCH 64 68
ENDBRANCH 41 64
ENDBRANCH 40 44
ENDBRANCH 24 40
ENDBRANCH 23 27
ENDBRANCH 1 23
TORSDOF 31
ENDMDL
MODEL 93
REMARK VINA RESULT:      -1.2     97.675    102.708
ROOT
ATOM      1  C1  SGN B   1      91.150  84.058  66.3730  0.00  0.00     0.000 C
ATOM      2  C2  SGN B   1      92.132  84.977  67.1180  0.00  0.00     0.000 C
ATOM      3  C3  SGN B   1      91.544  85.425  68.4610  0.00  0.00     0.000 C
ATOM      4  C4  SGN B   1      90.189  86.091  68.2470  0.00  0.00     0.000 C
ATOM      5  C5  SGN B   1      89.318  85.183  67.3810  0.00  0.00     0.000 C
ATOM      6  O5  SGN B   1      90.010  84.877  66.1550  0.00  0.00     0.000 O
ATOM      7   O  SGN B   1      92.436  86.311  69.1270  0.00  0.00     0.000 O
ATOM      9  HD  SGN B   1      92.266  86.747  68.3990  0.00  0.00     0.000 HD
ATOM      9   O  SGN B   1      89.570  86.312  69.5000  0.00  0.00     0.000 O
ATOM     11  HD  SGN B   1      89.400  86.748  68.7720  0.00  0.00     0.000 HD
ENDROOT
BRANCH 2 13
ATOM     11   N  SGN B   1      93.301  85.059  66.2230  0.00  0.00     0.000 N
ATOM     13  HD  SGN B   1      92.958  84.291  66.4300  0.00  0.00     0.000 HD
ATOM     13   S  SGN B   1      94.386  83.875  66.1150  0.00  0.00     0.000 S
ATOM     14   O  SGN B   1      94.008  82.794  66.9390  0.00  0.00     0.000 OA
ATOM     15   O  SGN B   1      94.663  83.642  64.7380  0.00  0.00     0.000 OA
ATOM     16   O  SGN B   1      95.610  84.639  66.7080  0.00  0.00     0.000 OA
ENDBRANCH 2 13
BRANCH 5 17
ATOM     17   C  SGN B   1      87.986  85.785  67.0080  0.00  0.00     0.000 C
ATOM     18   O  SGN B   1      88.126  87.180  66.6750  0.00  0.00     0.000 O
ATOM     19   S  SGN B   1      87.039  88.166  67.3090  0.00  0.00     0.000 S
ATOM     20   O  SGN B   1      87.252  89.436  66.6480  0.00  0.00     0.000 OA
ATOM     21   O  SGN B   1      85.773  87.550  66.9840  0.00  0.00     0.000 OA
ATOM     22   O  SGN B   1      87.334  88.193  68.7250  0.00  0.00     0.000 OA
ENDBRANCH 5 17
BRANCH 1 23
ATOM     23  O4  IDS B   2      90.829  82.738  66.2510  0.00  0.00     0.000 O
BRANCH 23 27
ATOM     24  C1  IDS B   2      88.207  81.428  69.1900  0.00  0.00     0.000 C
ATOM     25  C2  IDS B   2      89.707  81.241  69.5040  0.00  0.00     0.000 C
ATOM     26  C3  IDS B   2      90.573  82.014  68.5120  0.00  0.00     0.000 C
ATOM     27  C4  IDS B   2      90.280  81.674  67.0570  0.00  0.00     0.000 C
ATOM     28  C5  IDS B   2      88.768  81.443  66.8630  0.00  0.00     0.000 C
ATOM     29  O5  IDS B   2      88.024  82.048  67.9100  0.00  0.00     0.000 O
ATOM     30   O  IDS B   2      91.943  81.717  68.7560  0.00  0.00     0.000 O
ATOM     32  HD  IDS B   2      92.191  80.956  68.4250  0.00  0.00     0.000 HD
BRANCH 25 32
ATOM     32   O  IDS B   2      90.059  81.710  70.8660  0.00  0.00     0.000 O
ATOM     33   S  IDS B   2      90.651  80.685  72.0160  0.00  0.00     0.000 S
ATOM     34   O  IDS B   2      90.661  81.435  73.2610  0.00  0.00     0.000 OA
ATOM     35   O  IDS B   2      89.791  79.513  72.1080  0.00  0.00     0.000 OA
ATOM     36   O  IDS B   2      91.991  80.353  71.5900  0.00  0.00     0.000 OA
ENDBRANCH 25 32
BRANCH 28 37
ATOM     37   C  IDS B   2      88.141  81.862  65.5180  0.00  0.00     0.000 C
ATOM     38   O  IDS B   2      88.403  81.094  64.6210  0.00  0.00     0.000 OA
ATOM     39   O  IDS B   2      87.378  82.837  65.3110  0.00  0.00     0.000 OA
ENDBRANCH 28 37
BRANCH 24 40
ATOM     40  O4  SUS B   3      87.280  80.768  69.9150  0.00  0.00     0.000 O
BRANCH 40 44
ATOM     41  C1  SUS B   3      83.425  81.915  71.0860  0.00  0.00     0.000 C
ATOM     42  C2  SUS B   3      83.649  81.620  69.5900  0.00  0.00     0.000 C
ATOM     43  C3  SUS B   3      84.914  80.780  69.4260  0.00  0.00     0.000 C
ATOM     44  C4  SUS B   3      86.074  81.501  70.0940  0.00  0.00     0.000 C
ATOM     45  C5  SUS B   3      85.774  81.648  71.5720  0.00  0.00     0.000 C
ATOM     46  O5  SUS B   3      84.592  82.462  71.7120  0.00  0.00     0.000 O
BRANCH 42 49
ATOM     47   N  SUS B   3      82.564  82.555  69.2450  0.00  0.00     0.000 N
ATOM     49  HD  SUS B   3      82.046  82.803  69.8940  0.00  0.00     0.000 HD
ATOM     49   S  SUS B   3      81.643  82.019  68.0500  0.00  0.00     0.000 S
ATOM     50   O  SUS B   3      81.097  80.765  68.3900  0.00  0.00     0.000 OA
ATOM     51   O  SUS B   3      80.564  83.128  68.1440  0.00  0.00     0.000 OA
ATOM     52   O  SUS B   3      82.351  82.115  66.8350  0.00  0.00     0.000 OA
ENDBRANCH 42 49
BRANCH 43 53
ATOM     53   O  SUS B   3      85.179  80.633  67.9820  0.00  0.00     0.000 O
ATOM     54   S  SUS B   3      85.057  79.122  67.3470  0.00  0.00     0.000 S
ATOM     55   O  SUS B   3      83.644  78.768  67.3300  0.00  0.00     0.000 OA
ATOM     56   O  SUS B   3      85.646  79.247  66.0250  0.00  0.00     0.000 OA
ATOM     57   O  SUS B   3      85.815  78.236  68.2360  0.00  0.00     0.000 OA
ENDBRANCH 43 53
BRANCH 45 58
ATOM     58   C  SUS B   3      86.929  82.270  72.3250  0.00  0.00     0.000 C
ATOM     59   S  SUS B   3      87.985  84.532  72.9220  0.00  0.00     0.000 S
ATOM     60   O  SUS B   3      86.761  83.697  72.3620  0.00  0.00     0.000 O
ATOM     61   O  SUS B   3      88.944  84.575  71.8350  0.00  0.00     0.000 OA
ATOM     62   O  SUS B   3      87.355  85.803  73.1590  0.00  0.00     0.000 OA
ATOM     63   O  SUS B   3      88.415  83.841  74.0860  0.00  0.00     0.000 OA
ENDBRANCH 45 58
BRANCH 41 64
ATOM     64  O4  IDS B   4      82.853  80.875  71.7760  0.00  0.00     0.000 O
BRANCH 64 68
ATOM     65  C1  IDS B   4      80.453  79.068  73.8380  0.00  0.00     0.000 C
ATOM     66  C2  IDS B   4      79.983  79.828  72.5920  0.00  0.00     0.000 C
ATOM     67  C3  IDS B   4      80.545  81.233  72.4630  0.00  0.00     0.000 C
ATOM     68  C4  IDS B   4      82.007  81.322  72.8580  0.00  0.00     0.000 C
ATOM     69  C5  IDS B   4      82.200  80.525  74.1550  0.00  0.00     0.000 C
ATOM     70  O5  IDS B   4      81.864  79.155  73.9200  0.00  0.00     0.000 O
ATOM     71   O  IDS B   4      79.773  82.072  73.2980  0.00  0.00     0.000 O
ATOM     73  HD  IDS B   4      79.943  81.355  72.8430  0.00  0.00     0.000 HD
BRANCH 66 73
ATOM     73   O  IDS B   4      80.447  79.110  71.3970  0.00  0.00     0.000 O
ATOM     74   S  IDS B   4      79.344  78.345  70.4950  0.00  0.00     0.000 S
ATOM     75   O  IDS B   4      78.658  77.426  71.3780  0.00  0.00     0.000 OA
ATOM     76   O  IDS B   4      80.167  77.701  69.5020  0.00  0.00     0.000 OA
ATOM     77   O  IDS B   4      78.486  79.382  69.9730  0.00  0.00     0.000 OA
ENDBRANCH 66 73
BRANCH 69 78
ATOM     78   C  IDS B   4      83.568  80.696  74.8010  0.00  0.00     0.000 C
ATOM     79   O  IDS B   4      84.105  81.802  74.7630  0.00  0.00     0.000 OA
ATOM     80   O  IDS B   4      84.050  79.742  75.4390  0.00  0.00     0.000 OA
ENDBRANCH 69 78
BRANCH 65 81
ATOM     81  O4  SGN B   5      79.749  79.497  74.9230  0.00  0.00     0.000 O
BRANCH 81 85
ATOM     82  C1  SGN B   5      78.035  78.263  78.5530  0.00  0.00     0.000 C
ATOM     83  C2  SGN B   5      79.568  78.260  78.4690  0.00  0.00     0.000 C
ATOM     84  C3  SGN B   5      80.020  79.150  77.3020  0.00  0.00     0.000 C
ATOM     85  C4  SGN B   5      79.351  78.676  76.0240  0.00  0.00     0.000 C
ATOM     86  C5  SGN B   5      77.839  78.746  76.2200  0.00  0.00     0.000 C
ATOM     87  O5  SGN B   5      77.475  77.880  77.3110  0.00  0.00     0.000 O
ATOM     88   O  SGN B   5      81.426  79.107  77.1830  0.00  0.00     0.000 O
ATOM     90  HD  SGN B   5      80.971  79.750  77.5430  0.00  0.00     0.000 HD
BRANCH 83 92
ATOM     90   N  SGN B   5      79.332  77.842  79.8640  0.00  0.00     0.000 N
ATOM     92  HD  SGN B   5      78.684  77.269  79.9110  0.00  0.00     0.000 HD
ATOM     92   S  SGN B   5      80.602  77.502  80.7730  0.00  0.00     0.000 S
ATOM     93   O  SGN B   5      80.044  77.132  82.0380  0.00  0.00     0.000 OA
ATOM     94   O  SGN B   5      81.369  76.563  80.0290  0.00  0.00     0.000 OA
ATOM     95   O  SGN B   5      81.393  78.791  80.8240  0.00  0.00     0.000 OA
ENDBRANCH 83 92
BRANCH 86 96
ATOM     96   C  SGN B   5      77.036  78.311  75.0110  0.00  0.00     0.000 C
ATOM     97   O  SGN B   5      77.539  77.079  74.4900  0.00  0.00     0.000 O
ATOM     98   S  SGN B   5      76.457  75.921  74.2480  0.00  0.00     0.000 S
ATOM     99   O  SGN B   5      77.219  74.915  73.5470  0.00  0.00     0.000 OA
ATOM    100   O  SGN B   5      75.972  75.517  75.5180  0.00  0.00     0.000 OA
ATOM    101   O  SGN B   5      75.455  76.535  73.4400  0.00  0.00     0.000 OA
ENDBRANCH 86 96
BRANCH 82 102
ATOM    102  O4  IDS B   6      77.533  79.467  78.9480  0.00  0.00     0.000 O
BRANCH 102 106
ATOM    103  C1  IDS B   6      75.445  81.253  81.3370  0.00  0.00     0.000 C
ATOM    104  C2  IDS B   6      76.069  79.896  81.6990  0.00  0.00     0.000 C
ATOM    105  C3  IDS B   6      75.914  78.816  80.6460  0.00  0.00     0.000 C
ATOM    106  C4  IDS B   6      76.117  79.339  79.2350  0.00  0.00     0.000 C
ATOM    107  C5  IDS B   6      75.405  80.685  79.0740  0.00  0.00     0.000 C
ATOM    108  O5  IDS B   6      75.849  81.641  80.0370  0.00  0.00     0.000 O
ATOM    109   O  IDS B   6      74.625  78.242  80.7890  0.00  0.00     0.000 O
ATOM    111  HD  IDS B   6      74.166  78.856  81.1920  0.00  0.00     0.000 HD
BRANCH 104 111
ATOM    111   O  IDS B   6      77.520  80.066  81.8700  0.00  0.00     0.000 O
ATOM    112   S  IDS B   6      78.114  80.016  83.3560  0.00  0.00     0.000 S
ATOM    113   O  IDS B   6      77.421  81.082  84.0630  0.00  0.00     0.000 OA
ATOM    114   O  IDS B   6      77.888  78.672  83.9000  0.00  0.00     0.000 OA
ATOM    115   O  IDS B   6      79.500  80.309  83.0630  0.00  0.00     0.000 OA
ENDBRANCH 104 111
BRANCH 107 116
ATOM    116   C  IDS B   6      75.646  81.218  77.6670  0.00  0.00     0.000 C
ATOM    117   O  IDS B   6      75.022  80.699  76.7770  0.00  0.00     0.000 OA
ATOM    118   O  IDS B   6      76.441  82.120  77.4570  0.00  0.00     0.000 OA
ENDBRANCH 107 116
BRANCH 103 119
ATOM    119  O4  SGN B   7      74.133  81.098  81.6520  0.00  0.00     0.000 O
BRANCH 119 123
ATOM    120  C1  SGN B   7      71.075  83.497  83.1940  0.00  0.00     0.000 C
ATOM    121  C2  SGN B   7      71.487  83.722  81.7270  0.00  0.00     0.000 C
ATOM    122  C3  SGN B   7      72.303  82.531  81.2090  0.00  0.00     0.000 C
ATOM    123  C4  SGN B   7      73.472  82.264  82.1430  0.00  0.00     0.000 C
ATOM    124  C5  SGN B   7      72.959  82.061  83.5780  0.00  0.00     0.000 C
ATOM    125  O5  SGN B   7      72.198  83.205  84.0240  0.00  0.00     0.000 O
ATOM    126   O  SGN B   7      72.752  82.817  79.8790  0.00  0.00     0.000 O
ATOM    128  HD  SGN B   7      72.249  83.037  80.5490  0.00  0.00     0.000 HD
BRANCH 121 130
ATOM    128   N  SGN B   7      70.766  84.997  81.6950  0.00  0.00     0.000 N
ATOM    130  HD  SGN B   7      71.312  85.299  81.0940  0.00  0.00     0.000 HD
ATOM    130   S  SGN B   7      69.820  85.418  80.4610  0.00  0.00     0.000 S
ATOM    131   O  SGN B   7      68.960  84.304  80.2540  0.00  0.00     0.000 OA
ATOM    132   O  SGN B   7      69.279  86.701  80.7310  0.00  0.00     0.000 OA
ATOM    133   O  SGN B   7      70.899  85.669  79.3530  0.00  0.00     0.000 OA
ENDBRANCH 121 130
BRANCH 124 134
ATOM    134   C  SGN B   7      74.049  81.905  84.5960  0.00  0.00     0.000 C
ATOM    135   O  SGN B   7      73.681  82.637  85.7770  0.00  0.00     0.000 O
ATOM    136   S  SGN B   7      74.623  82.475  87.0230  0.00  0.00     0.000 S
ATOM    137   O  SGN B   7      74.116  83.371  88.0350  0.00  0.00     0.000 OA
ATOM    138   O  SGN B   7      75.939  82.841  86.5520  0.00  0.00     0.000 OA
ATOM    139   O  SGN B   7      74.471  81.066  87.3500  0.00  0.00     0.000 OA
ENDBRANCH 124 134
BRANCH 120 140
ATOM    140  O4  IDS B   8      70.216  82.592  83.6790  0.00  0.00     0.000 O
BRANCH 140 144
ATOM    141  C1  IDS B   8      68.578  79.411  84.0750  0.00  0.00     0.000 C
ATOM    142  C2  IDS B   8      69.035  79.906  82.6730  0.00  0.00     0.000 C
ATOM    143  C3  IDS B   8      68.601  81.353  82.3730  0.00  0.00     0.000 C
ATOM    144  C4  IDS B   8      68.823  82.277  83.5690  0.00  0.00     0.000 C
ATOM    145  C5  IDS B   8      68.331  81.602  84.8580  0.00  0.00     0.000 C
ATOM    146  O5  IDS B   8      68.971  80.346  85.0720  0.00  0.00     0.000 O
BRANCH 142 147
ATOM    147   O  IDS B   8      70.519  79.866  82.5930  0.00  0.00     0.000 O
ATOM    148   S  IDS B   8      71.285  78.623  81.8860  0.00  0.00     0.000 S
ATOM    149   O  IDS B   8      70.341  77.535  81.7710  0.00  0.00     0.000 OA
ATOM    150   O  IDS B   8      71.726  79.123  80.5970  0.00  0.00     0.000 OA
ATOM    151   O  IDS B   8      72.383  78.296  82.7750  0.00  0.00     0.000 OA
ENDBRANCH 142 147
BRANCH 145 152
ATOM    152   C  IDS B   8      68.615  82.430  86.0950  0.00  0.00     0.000 C
ATOM    153   O  IDS B   8      68.151  83.561  86.1840  0.00  0.00     0.000 OA
ATOM    154   O  IDS B   8      69.283  81.957  86.9960  0.00  0.00     0.000 OA
ENDBRANCH 145 152
ENDBRANCH 140 144
ENDBRANCH 120 140
ENDBRANCH 119 123
ENDBRANCH 103 119
ENDBRANCH 102 106
ENDBRANCH 82 102
ENDBRANCH 81 85
ENDBRANCH 65 81
ENDBRANCH 64 68
ENDBRANCH 41 64
ENDBRANCH 40 44
ENDBRANCH 24 40
ENDBRANCH 23 27
ENDBRANCH 1 23
TORSDOF 31
ENDMDL
MODEL 94
REMARK VINA RESULT:      -1.2     47.358     55.724
ROOT
ATOM      1  C1  SGN B   1      10.811  50.446  57.1500  0.00  0.00     0.000 C
ATOM      2  C2  SGN B   1      10.393  51.585  56.2050  0.00  0.00     0.000 C
ATOM      3  C3  SGN B   1      11.430  52.712  56.2210  0.00  0.00     0.000 C
ATOM      4  C4  SGN B   1      11.649  53.206  57.6480  0.00  0.00     0.000 C
ATOM      5  C5  SGN B   1      11.920  52.008  58.5540  0.00  0.00     0.000 C
ATOM      6  O5  SGN B   1      10.843  51.058  58.4320  0.00  0.00     0.000 O
ATOM      7   O  SGN B   1      11.018  53.783  55.3800  0.00  0.00     0.000 O
ATOM      9  HD  SGN B   1      10.377  53.759  55.9620  0.00  0.00     0.000 HD
ATOM      9   O  SGN B   1      12.749  54.097  57.6740  0.00  0.00     0.000 O
ATOM     11  HD  SGN B   1      12.108  54.073  58.2550  0.00  0.00     0.000 HD
ENDROOT
BRANCH 2 13
ATOM     11   N  SGN B   1       9.119  51.121  55.6220  0.00  0.00     0.000 N
ATOM     13  HD  SGN B   1       9.813  50.603  55.6310  0.00  0.00     0.000 HD
ATOM     13   S  SGN B   1       9.061  50.029  54.4420  0.00  0.00     0.000 S
ATOM     14   O  SGN B   1      10.362  49.586  54.1260  0.00  0.00     0.000 OA
ATOM     15   O  SGN B   1       8.054  49.073  54.7620  0.00  0.00     0.000 OA
ATOM     16   O  SGN B   1       8.485  50.946  53.3190  0.00  0.00     0.000 OA
ENDBRANCH 2 13
BRANCH 5 17
ATOM     17   C  SGN B   1      12.045  52.359  60.0160  0.00  0.00     0.000 C
ATOM     18   O  SGN B   1      11.061  53.342  60.3950  0.00  0.00     0.000 O
ATOM     19   S  SGN B   1      11.590  54.555  61.2930  0.00  0.00     0.000 S
ATOM     20   O  SGN B   1      10.397  55.251  61.7250  0.00  0.00     0.000 OA
ATOM     21   O  SGN B   1      12.306  53.911  62.3690  0.00  0.00     0.000 OA
ATOM     22   O  SGN B   1      12.431  55.337  60.4130  0.00  0.00     0.000 OA
ENDBRANCH 5 17
BRANCH 1 23
ATOM     23  O4  IDS B   2      11.527  49.286  57.1490  0.00  0.00     0.000 O
BRANCH 23 27
ATOM     24  C1  IDS B   2      15.590  49.901  57.7370  0.00  0.00     0.000 C
ATOM     25  C2  IDS B   2      15.132  49.837  56.2640  0.00  0.00     0.000 C
ATOM     26  C3  IDS B   2      13.610  49.909  56.1610  0.00  0.00     0.000 C
ATOM     27  C4  IDS B   2      12.895  48.853  56.9940  0.00  0.00     0.000 C
ATOM     28  C5  IDS B   2      13.647  48.631  58.3220  0.00  0.00     0.000 C
ATOM     29  O5  IDS B   2      14.477  49.741  58.6270  0.00  0.00     0.000 O
ATOM     30   O  IDS B   2      13.223  49.721  54.8050  0.00  0.00     0.000 O
ATOM     32  HD  IDS B   2      13.230  48.891  54.5600  0.00  0.00     0.000 HD
BRANCH 25 32
ATOM     32   O  IDS B   2      15.688  50.948  55.4540  0.00  0.00     0.000 O
ATOM     33   S  IDS B   2      16.695  50.676  54.1750  0.00  0.00     0.000 S
ATOM     34   O  IDS B   2      17.207  51.978  53.7790  0.00  0.00     0.000 OA
ATOM     35   O  IDS B   2      17.770  49.784  54.5860  0.00  0.00     0.000 OA
ATOM     36   O  IDS B   2      15.866  50.100  53.1420  0.00  0.00     0.000 OA
ENDBRANCH 25 32
BRANCH 28 37
ATOM     37   C  IDS B   2      12.814  48.289  59.5740  0.00  0.00     0.000 C
ATOM     38   O  IDS B   2      13.001  49.060  60.4850  0.00  0.00     0.000 OA
ATOM     39   O  IDS B   2      11.964  47.372  59.6880  0.00  0.00     0.000 OA
ENDBRANCH 28 37
BRANCH 24 40
ATOM     40  O4  SUS B   3      16.900  49.783  58.0400  0.00  0.00     0.000 O
BRANCH 40 44
ATOM     41  C1  SUS B   3      19.152  51.571  61.0860  0.00  0.00     0.000 C
ATOM     42  C2  SUS B   3      18.118  50.507  61.5060  0.00  0.00     0.000 C
ATOM     43  C3  SUS B   3      17.760  49.649  60.2950  0.00  0.00     0.000 C
ATOM     44  C4  SUS B   3      17.290  50.557  59.1690  0.00  0.00     0.000 C
ATOM     45  C5  SUS B   3      18.421  51.490  58.7880  0.00  0.00     0.000 C
ATOM     46  O5  SUS B   3      18.734  52.309  59.9330  0.00  0.00     0.000 O
BRANCH 42 49
ATOM     47   N  SUS B   3      17.977  51.164  62.8170  0.00  0.00     0.000 N
ATOM     49  HD  SUS B   3      18.583  51.747  63.0250  0.00  0.00     0.000 HD
ATOM     49   S  SUS B   3      17.861  50.116  64.0230  0.00  0.00     0.000 S
ATOM     50   O  SUS B   3      18.988  49.270  64.0350  0.00  0.00     0.000 OA
ATOM     51   O  SUS B   3      17.944  51.154  65.1710  0.00  0.00     0.000 OA
ATOM     52   O  SUS B   3      16.590  49.509  63.9930  0.00  0.00     0.000 OA
ENDBRANCH 42 49
BRANCH 43 53
ATOM     53   O  SUS B   3      16.670  48.736  60.6910  0.00  0.00     0.000 O
ATOM     54   S  SUS B   3      17.011  47.128  60.7200  0.00  0.00     0.000 S
ATOM     55   O  SUS B   3      17.895  46.890  61.8520  0.00  0.00     0.000 OA
ATOM     56   O  SUS B   3      15.711  46.495  60.8480  0.00  0.00     0.000 OA
ATOM     57   O  SUS B   3      17.680  46.824  59.4510  0.00  0.00     0.000 OA
ENDBRANCH 43 53
BRANCH 45 58
ATOM     58   C  SUS B   3      18.063  52.360  57.6040  0.00  0.00     0.000 C
ATOM     59   S  SUS B   3      16.854  54.533  56.9700  0.00  0.00     0.000 S
ATOM     60   O  SUS B   3      17.487  53.591  58.0740  0.00  0.00     0.000 O
ATOM     61   O  SUS B   3      15.569  53.938  56.6540  0.00  0.00     0.000 OA
ATOM     62   O  SUS B   3      16.731  55.763  57.7060  0.00  0.00     0.000 OA
ATOM     63   O  SUS B   3      17.792  54.555  55.9040  0.00  0.00     0.000 OA
ENDBRANCH 45 58
BRANCH 41 64
ATOM     64  O4  IDS B   4      20.438  51.094  61.0130  0.00  0.00     0.000 O
BRANCH 64 68
ATOM     65  C1  IDS B   4      24.005  50.802  61.6960  0.00  0.00     0.000 C
ATOM     66  C2  IDS B   4      22.994  50.796  62.8500  0.00  0.00     0.000 C
ATOM     67  C3  IDS B   4      21.936  51.882  62.7640  0.00  0.00     0.000 C
ATOM     68  C4  IDS B   4      21.423  52.095  61.3520  0.00  0.00     0.000 C
ATOM     69  C5  IDS B   4      22.629  52.110  60.4030  0.00  0.00     0.000 C
ATOM     70  O5  IDS B   4      23.297  50.847  60.4700  0.00  0.00     0.000 O
ATOM     71   O  IDS B   4      22.519  53.075  63.2450  0.00  0.00     0.000 O
ATOM     73  HD  IDS B   4      22.455  52.219  63.1350  0.00  0.00     0.000 HD
BRANCH 66 73
ATOM     73   O  IDS B   4      22.255  49.526  62.8250  0.00  0.00     0.000 O
ATOM     74   S  IDS B   4      22.550  48.453  63.9990  0.00  0.00     0.000 S
ATOM     75   O  IDS B   4      23.973  48.189  63.9650  0.00  0.00     0.000 OA
ATOM     76   O  IDS B   4      21.735  47.337  63.5920  0.00  0.00     0.000 OA
ATOM     77   O  IDS B   4      22.117  49.090  65.2200  0.00  0.00     0.000 OA
ENDBRANCH 66 73
BRANCH 69 78
ATOM     78   C  IDS B   4      22.303  52.533  58.9770  0.00  0.00     0.000 C
ATOM     79   O  IDS B   4      21.466  53.417  58.7990  0.00  0.00     0.000 OA
ATOM     80   O  IDS B   4      22.969  52.047  58.0450  0.00  0.00     0.000 OA
ENDBRANCH 69 78
BRANCH 65 81
ATOM     81  O4  SGN B   5      24.928  51.781  61.9070  0.00  0.00     0.000 O
BRANCH 81 85
ATOM     82  C1  SGN B   5      28.978  52.779  61.4220  0.00  0.00     0.000 C
ATOM     83  C2  SGN B   5      28.135  52.646  60.1450  0.00  0.00     0.000 C
ATOM     84  C3  SGN B   5      26.645  52.746  60.5010  0.00  0.00     0.000 C
ATOM     85  C4  SGN B   5      26.310  51.701  61.5510  0.00  0.00     0.000 C
ATOM     86  C5  SGN B   5      27.190  51.949  62.7730  0.00  0.00     0.000 C
ATOM     87  O5  SGN B   5      28.570  51.823  62.3820  0.00  0.00     0.000 O
ATOM     88   O  SGN B   5      25.862  52.567  59.3420  0.00  0.00     0.000 O
ATOM     90  HD  SGN B   5      26.038  53.328  59.7160  0.00  0.00     0.000 HD
BRANCH 83 92
ATOM     90   N  SGN B   5      29.411  52.448  59.4310  0.00  0.00     0.000 N
ATOM     92  HD  SGN B   5      29.651  51.616  59.4470  0.00  0.00     0.000 HD
ATOM     92   S  SGN B   5      29.607  53.181  58.0250  0.00  0.00     0.000 S
ATOM     93   O  SGN B   5      30.917  52.789  57.6000  0.00  0.00     0.000 OA
ATOM     94   O  SGN B   5      28.470  52.830  57.2450  0.00  0.00     0.000 OA
ATOM     95   O  SGN B   5      29.500  54.657  58.3420  0.00  0.00     0.000 OA
ENDBRANCH 83 92
BRANCH 86 96
ATOM     96   C  SGN B   5      26.954  50.981  63.9150  0.00  0.00     0.000 C
ATOM     97   O  SGN B   5      26.921  49.636  63.4330  0.00  0.00     0.000 O
ATOM     98   S  SGN B   5      27.863  48.588  64.1990  0.00  0.00     0.000 S
ATOM     99   O  SGN B   5      27.459  47.324  63.6320  0.00  0.00     0.000 OA
ATOM    100   O  SGN B   5      29.208  48.953  63.9350  0.00  0.00     0.000 OA
ATOM    101   O  SGN B   5      27.508  48.731  65.5740  0.00  0.00     0.000 OA
ENDBRANCH 86 96
BRANCH 82 102
ATOM    102  O4  IDS B   6      28.932  54.034  61.9520  0.00  0.00     0.000 O
BRANCH 102 106
ATOM    103  C1  IDS B   6      30.205  57.259  63.0660  0.00  0.00     0.000 C
ATOM    104  C2  IDS B   6      30.434  56.779  61.6240  0.00  0.00     0.000 C
ATOM    105  C3  IDS B   6      30.928  55.351  61.4930  0.00  0.00     0.000 C
ATOM    106  C4  IDS B   6      30.241  54.401  62.4580  0.00  0.00     0.000 C
ATOM    107  C5  IDS B   6      30.128  55.058  63.8370  0.00  0.00     0.000 C
ATOM    108  O5  IDS B   6      29.437  56.307  63.7780  0.00  0.00     0.000 O
ATOM    109   O  IDS B   6      32.332  55.349  61.6980  0.00  0.00     0.000 O
ATOM    111  HD  IDS B   6      32.476  56.070  62.1570  0.00  0.00     0.000 HD
BRANCH 104 111
ATOM    111   O  IDS B   6      29.155  56.815  60.8980  0.00  0.00     0.000 O
ATOM    112   S  IDS B   6      28.917  58.005  59.8530  0.00  0.00     0.000 S
ATOM    113   O  IDS B   6      29.052  59.219  60.6430  0.00  0.00     0.000 OA
ATOM    114   O  IDS B   6      29.893  57.870  58.7660  0.00  0.00     0.000 OA
ATOM    115   O  IDS B   6      27.556  57.705  59.4650  0.00  0.00     0.000 OA
ENDBRANCH 104 111
BRANCH 107 116
ATOM    116   C  IDS B   6      29.405  54.112  64.7870  0.00  0.00     0.000 C
ATOM    117   O  IDS B   6      28.315  54.456  65.1700  0.00  0.00     0.000 OA
ATOM    118   O  IDS B   6      29.913  53.062  65.1470  0.00  0.00     0.000 OA
ENDBRANCH 107 116
BRANCH 103 119
ATOM    119  O4  SGN B   7      31.444  57.622  63.4850  0.00  0.00     0.000 O
BRANCH 119 123
ATOM    120  C1  SGN B   7      33.074  60.586  65.9440  0.00  0.00     0.000 C
ATOM    121  C2  SGN B   7      32.333  59.421  66.6260  0.00  0.00     0.000 C
ATOM    122  C3  SGN B   7      32.160  58.249  65.6510  0.00  0.00     0.000 C
ATOM    123  C4  SGN B   7      31.495  58.737  64.3750  0.00  0.00     0.000 C
ATOM    124  C5  SGN B   7      32.304  59.900  63.7770  0.00  0.00     0.000 C
ATOM    125  O5  SGN B   7      32.441  60.980  64.7270  0.00  0.00     0.000 O
ATOM    126   O  SGN B   7      31.383  57.226  66.2860  0.00  0.00     0.000 O
ATOM    128  HD  SGN B   7      31.820  57.971  66.3590  0.00  0.00     0.000 HD
BRANCH 121 130
ATOM    128   N  SGN B   7      32.273  60.161  67.8890  0.00  0.00     0.000 N
ATOM    130  HD  SGN B   7      31.550  59.739  68.1110  0.00  0.00     0.000 HD
ATOM    130   S  SGN B   7      32.619  59.475  69.3040  0.00  0.00     0.000 S
ATOM    131   O  SGN B   7      33.876  58.836  69.1100  0.00  0.00     0.000 OA
ATOM    132   O  SGN B   7      32.460  60.449  70.3230  0.00  0.00     0.000 OA
ATOM    133   O  SGN B   7      31.384  58.526  69.4670  0.00  0.00     0.000 OA
ENDBRANCH 121 130
BRANCH 124 134
ATOM    134   C  SGN B   7      31.664  60.528  62.5730  0.00  0.00     0.000 C
ATOM    135   O  SGN B   7      31.839  61.953  62.6530  0.00  0.00     0.000 O
ATOM    136   S  SGN B   7      31.373  62.786  61.4060  0.00  0.00     0.000 S
ATOM    137   O  SGN B   7      31.548  64.175  61.7570  0.00  0.00     0.000 OA
ATOM    138   O  SGN B   7      29.987  62.425  61.2070  0.00  0.00     0.000 OA
ATOM    139   O  SGN B   7      32.273  62.320  60.3630  0.00  0.00     0.000 OA
ENDBRANCH 124 134
BRANCH 120 140
ATOM    140  O4  IDS B   8      34.348  60.627  65.5390  0.00  0.00     0.000 O
BRANCH 140 144
ATOM    141  C1  IDS B   8      37.424  59.503  64.0440  0.00  0.00     0.000 C
ATOM    142  C2  IDS B   8      36.521  58.524  64.8460  0.00  0.00     0.000 C
ATOM    143  C3  IDS B   8      36.086  59.086  66.2130  0.00  0.00     0.000 C
ATOM    144  C4  IDS B   8      35.656  60.549  66.1190  0.00  0.00     0.000 C
ATOM    145  C5  IDS B   8      36.659  61.343  65.2690  0.00  0.00     0.000 C
ATOM    146  O5  IDS B   8      36.807  60.782  63.9670  0.00  0.00     0.000 O
BRANCH 142 147
ATOM    147   O  IDS B   8      35.283  58.244  64.0720  0.00  0.00     0.000 O
ATOM    148   S  IDS B   8      35.142  56.898  63.1780  0.00  0.00     0.000 S
ATOM    149   O  IDS B   8      36.468  56.352  62.9980  0.00  0.00     0.000 OA
ATOM    150   O  IDS B   8      34.272  56.019  63.9360  0.00  0.00     0.000 OA
ATOM    151   O  IDS B   8      34.560  57.332  61.9230  0.00  0.00     0.000 OA
ENDBRANCH 142 147
BRANCH 145 152
ATOM    152   C  IDS B   8      36.233  62.782  65.0570  0.00  0.00     0.000 C
ATOM    153   O  IDS B   8      36.043  63.194  63.9180  0.00  0.00     0.000 OA
ATOM    154   O  IDS B   8      36.065  63.508  66.0200  0.00  0.00     0.000 OA
ENDBRANCH 145 152
ENDBRANCH 140 144
ENDBRANCH 120 140
ENDBRANCH 119 123
ENDBRANCH 103 119
ENDBRANCH 102 106
ENDBRANCH 82 102
ENDBRANCH 81 85
ENDBRANCH 65 81
ENDBRANCH 64 68
ENDBRANCH 41 64
ENDBRANCH 40 44
ENDBRANCH 24 40
ENDBRANCH 23 27
ENDBRANCH 1 23
TORSDOF 31
ENDMDL
MODEL 95
REMARK VINA RESULT:      -1.2     16.293     26.026
ROOT
ATOM      1  C1  SGN B   1      50.344  28.931  26.0140  0.00  0.00     0.000 C
ATOM      2  C2  SGN B   1      51.040  29.735  24.9040  0.00  0.00     0.000 C
ATOM      3  C3  SGN B   1      50.654  29.199  23.5210  0.00  0.00     0.000 C
ATOM      4  C4  SGN B   1      50.966  27.709  23.4280  0.00  0.00     0.000 C
ATOM      5  C5  SGN B   1      50.363  26.996  24.6370  0.00  0.00     0.000 C
ATOM      6  O5  SGN B   1      50.844  27.611  25.8480  0.00  0.00     0.000 O
ATOM      7   O  SGN B   1      51.335  29.916  22.4990  0.00  0.00     0.000 O
ATOM      9  HD  SGN B   1      51.995  29.572  22.9420  0.00  0.00     0.000 HD
ATOM      9   O  SGN B   1      50.420  27.187  22.2310  0.00  0.00     0.000 O
ATOM     11  HD  SGN B   1      51.080  26.843  22.6740  0.00  0.00     0.000 HD
ENDROOT
BRANCH 2 13
ATOM     11   N  SGN B   1      50.830  31.194  24.9460  0.00  0.00     0.000 N
ATOM     13  HD  SGN B   1      51.436  30.823  25.4400  0.00  0.00     0.000 HD
ATOM     13   S  SGN B   1      51.148  32.071  26.2570  0.00  0.00     0.000 S
ATOM     14   O  SGN B   1      51.681  31.250  27.2730  0.00  0.00     0.000 OA
ATOM     15   O  SGN B   1      51.858  33.239  25.8560  0.00  0.00     0.000 OA
ATOM     16   O  SGN B   1      49.689  32.511  26.5900  0.00  0.00     0.000 OA
ENDBRANCH 2 13
BRANCH 5 17
ATOM     17   C  SGN B   1      50.700  25.527  24.7140  0.00  0.00     0.000 C
ATOM     18   O  SGN B   1      52.076  25.295  24.3550  0.00  0.00     0.000 O
ATOM     19   S  SGN B   1      52.345  24.075  23.3570  0.00  0.00     0.000 S
ATOM     20   O  SGN B   1      53.782  23.908  23.3460  0.00  0.00     0.000 OA
ATOM     21   O  SGN B   1      51.639  22.967  23.9570  0.00  0.00     0.000 OA
ATOM     22   O  SGN B   1      51.800  24.500  22.0860  0.00  0.00     0.000 OA
ENDBRANCH 5 17
BRANCH 1 23
ATOM     23  O4  IDS B   2      49.194  28.924  26.7470  0.00  0.00     0.000 O
BRANCH 23 27
ATOM     24  C1  IDS B   2      45.952  27.511  24.5740  0.00  0.00     0.000 C
ATOM     25  C2  IDS B   2      46.120  29.046  24.5990  0.00  0.00     0.000 C
ATOM     26  C3  IDS B   2      47.484  29.437  25.1610  0.00  0.00     0.000 C
ATOM     27  C4  IDS B   2      47.769  28.842  26.5330  0.00  0.00     0.000 C
ATOM     28  C5  IDS B   2      47.194  27.414  26.6180  0.00  0.00     0.000 C
ATOM     29  O5  IDS B   2      46.994  26.870  25.3220  0.00  0.00     0.000 O
ATOM     30   O  IDS B   2      47.552  30.853  25.2850  0.00  0.00     0.000 O
ATOM     32  HD  IDS B   2      47.143  31.154  25.9860  0.00  0.00     0.000 HD
BRANCH 25 32
ATOM     32   O  IDS B   2      46.003  29.646  23.2470  0.00  0.00     0.000 O
ATOM     33   S  IDS B   2      44.814  30.727  22.8730  0.00  0.00     0.000 S
ATOM     34   O  IDS B   2      44.877  30.916  21.4320  0.00  0.00     0.000 OA
ATOM     35   O  IDS B   2      43.524  30.189  23.2820  0.00  0.00     0.000 OA
ATOM     36   O  IDS B   2      45.153  31.941  23.5780  0.00  0.00     0.000 OA
ENDBRANCH 25 32
BRANCH 28 37
ATOM     37   C  IDS B   2      47.959  26.377  27.4660  0.00  0.00     0.000 C
ATOM     38   O  IDS B   2      48.050  25.302  26.9210  0.00  0.00     0.000 OA
ATOM     39   O  IDS B   2      48.514  26.571  28.5750  0.00  0.00     0.000 OA
ENDBRANCH 28 37
BRANCH 24 40
ATOM     40  O4  SUS B   3      44.783  26.969  24.1730  0.00  0.00     0.000 O
BRANCH 40 44
ATOM     41  C1  SUS B   3      44.031  23.477  21.9850  0.00  0.00     0.000 C
ATOM     42  C2  SUS B   3      44.388  23.312  23.4750  0.00  0.00     0.000 C
ATOM     43  C3  SUS B   3      44.153  24.636  24.1990  0.00  0.00     0.000 C
ATOM     44  C4  SUS B   3      44.940  25.728  23.4920  0.00  0.00     0.000 C
ATOM     45  C5  SUS B   3      44.435  25.854  22.0700  0.00  0.00     0.000 C
ATOM     46  O5  SUS B   3      44.683  24.606  21.3920  0.00  0.00     0.000 O
BRANCH 42 49
ATOM     47   N  SUS B   3      43.639  22.097  23.8400  0.00  0.00     0.000 N
ATOM     49  HD  SUS B   3      43.009  22.192  24.4270  0.00  0.00     0.000 HD
ATOM     49   S  SUS B   3      44.594  20.905  24.3250  0.00  0.00     0.000 S
ATOM     50   O  SUS B   3      45.372  21.329  25.4210  0.00  0.00     0.000 OA
ATOM     51   O  SUS B   3      43.466  19.950  24.7930  0.00  0.00     0.000 OA
ATOM     52   O  SUS B   3      45.271  20.368  23.2120  0.00  0.00     0.000 OA
ENDBRANCH 42 49
BRANCH 43 53
ATOM     53   O  SUS B   3      44.635  24.488  25.5860  0.00  0.00     0.000 O
ATOM     54   S  SUS B   3      43.498  24.436  26.7720  0.00  0.00     0.000 S
ATOM     55   O  SUS B   3      42.809  23.158  26.6610  0.00  0.00     0.000 OA
ATOM     56   O  SUS B   3      44.262  24.584  27.9980  0.00  0.00     0.000 OA
ATOM     57   O  SUS B   3      42.585  25.555  26.5220  0.00  0.00     0.000 OA
ENDBRANCH 43 53
BRANCH 45 58
ATOM     58   C  SUS B   3      45.103  26.993  21.3300  0.00  0.00     0.000 C
ATOM     59   S  SUS B   3      47.242  27.610  20.0530  0.00  0.00     0.000 S
ATOM     60   O  SUS B   3      46.298  26.511  20.6930  0.00  0.00     0.000 O
ATOM     61   O  SUS B   3      47.956  28.195  21.1720  0.00  0.00     0.000 OA
ATOM     62   O  SUS B   3      48.084  26.789  19.2250  0.00  0.00     0.000 OA
ATOM     63   O  SUS B   3      46.377  28.493  19.3540  0.00  0.00     0.000 OA
ENDBRANCH 45 58
BRANCH 41 64
ATOM     64  O4  IDS B   4      42.683  23.407  21.7270  0.00  0.00     0.000 O
BRANCH 64 68
ATOM     65  C1  IDS B   4      39.569  22.667  19.9880  0.00  0.00     0.000 C
ATOM     66  C2  IDS B   4      40.557  21.540  20.3150  0.00  0.00     0.000 C
ATOM     67  C3  IDS B   4      42.004  21.857  19.9770  0.00  0.00     0.000 C
ATOM     68  C4  IDS B   4      42.391  23.284  20.3180  0.00  0.00     0.000 C
ATOM     69  C5  IDS B   4      41.263  24.211  19.8450  0.00  0.00     0.000 C
ATOM     70  O5  IDS B   4      40.058  23.877  20.5380  0.00  0.00     0.000 O
ATOM     71   O  IDS B   4      42.169  21.636  18.5910  0.00  0.00     0.000 O
ATOM     73  HD  IDS B   4      41.775  21.564  19.3590  0.00  0.00     0.000 HD
BRANCH 66 73
ATOM     73   O  IDS B   4      40.538  21.300  21.7640  0.00  0.00     0.000 O
ATOM     74   S  IDS B   4      40.112  19.828  22.2830  0.00  0.00     0.000 S
ATOM     75   O  IDS B   4      38.802  19.562  21.7290  0.00  0.00     0.000 OA
ATOM     76   O  IDS B   4      40.119  20.005  23.7140  0.00  0.00     0.000 OA
ATOM     77   O  IDS B   4      41.133  18.935  21.7900  0.00  0.00     0.000 OA
ENDBRANCH 66 73
BRANCH 69 78
ATOM     78   C  IDS B   4      41.596  25.695  19.9160  0.00  0.00     0.000 C
ATOM     79   O  IDS B   4      42.298  26.186  19.0340  0.00  0.00     0.000 OA
ATOM     80   O  IDS B   4      41.060  26.383  20.8040  0.00  0.00     0.000 OA
ENDBRANCH 69 78
BRANCH 65 81
ATOM     81  O4  SGN B   5      39.304  22.663  18.6520  0.00  0.00     0.000 O
BRANCH 81 85
ATOM     82  C1  SGN B   5      36.388  24.009  15.9450  0.00  0.00     0.000 C
ATOM     83  C2  SGN B   5      37.748  24.721  15.9160  0.00  0.00     0.000 C
ATOM     84  C3  SGN B   5      38.805  23.839  16.5960  0.00  0.00     0.000 C
ATOM     85  C4  SGN B   5      38.340  23.494  18.0010  0.00  0.00     0.000 C
ATOM     86  C5  SGN B   5      36.999  22.773  17.8990  0.00  0.00     0.000 C
ATOM     87  O5  SGN B   5      36.047  23.655  17.2720  0.00  0.00     0.000 O
ATOM     88   O  SGN B   5      40.045  24.511  16.6250  0.00  0.00     0.000 O
ATOM     90  HD  SGN B   5      39.827  23.883  16.0700  0.00  0.00     0.000 HD
BRANCH 83 92
ATOM     90   N  SGN B   5      37.878  25.042  14.4820  0.00  0.00     0.000 N
ATOM     92  HD  SGN B   5      37.425  24.486  13.9970  0.00  0.00     0.000 HD
ATOM     92   S  SGN B   5      37.763  26.574  14.0410  0.00  0.00     0.000 S
ATOM     93   O  SGN B   5      37.922  26.547  12.6190  0.00  0.00     0.000 OA
ATOM     94   O  SGN B   5      36.551  27.050  14.6140  0.00  0.00     0.000 OA
ATOM     95   O  SGN B   5      38.903  27.267  14.7560  0.00  0.00     0.000 OA
ENDBRANCH 83 92
BRANCH 86 96
ATOM     96   C  SGN B   5      36.416  22.355  19.2330  0.00  0.00     0.000 C
ATOM     97   O  SGN B   5      35.200  21.628  19.0430  0.00  0.00     0.000 O
ATOM     98   S  SGN B   5      35.093  20.220  19.8040  0.00  0.00     0.000 S
ATOM     99   O  SGN B   5      33.716  19.845  19.5880  0.00  0.00     0.000 OA
ATOM    100   O  SGN B   5      36.044  19.345  19.2170  0.00  0.00     0.000 OA
ATOM    101   O  SGN B   5      35.388  20.529  21.1650  0.00  0.00     0.000 OA
ENDBRANCH 86 96
BRANCH 82 102
ATOM    102  O4  IDS B   6      36.354  22.911  15.1380  0.00  0.00     0.000 O
BRANCH 102 106
ATOM    103  C1  IDS B   6      35.423  20.965  12.2040  0.00  0.00     0.000 C
ATOM    104  C2  IDS B   6      36.005  22.380  12.0570  0.00  0.00     0.000 C
ATOM    105  C3  IDS B   6      35.387  23.427  12.9630  0.00  0.00     0.000 C
ATOM    106  C4  IDS B   6      35.126  22.908  14.3660  0.00  0.00     0.000 C
ATOM    107  C5  IDS B   6      34.531  21.498  14.2940  0.00  0.00     0.000 C
ATOM    108  O5  IDS B   6      35.375  20.601  13.5710  0.00  0.00     0.000 O
ATOM    109   O  IDS B   6      34.184  23.878  12.3610  0.00  0.00     0.000 O
ATOM    111  HD  IDS B   6      33.958  23.228  11.8360  0.00  0.00     0.000 HD
BRANCH 104 111
ATOM    111   O  IDS B   6      37.431  22.351  12.4130  0.00  0.00     0.000 O
ATOM    112   S  IDS B   6      38.503  22.630  11.2570  0.00  0.00     0.000 S
ATOM    113   O  IDS B   6      38.239  21.605  10.2590  0.00  0.00     0.000 OA
ATOM    114   O  IDS B   6      38.325  24.007  10.7820  0.00  0.00     0.000 OA
ATOM    115   O  IDS B   6      39.720  22.418  12.0100  0.00  0.00     0.000 OA
ENDBRANCH 104 111
BRANCH 107 116
ATOM    116   C  IDS B   6      34.307  20.973  15.7060  0.00  0.00     0.000 C
ATOM    117   O  IDS B   6      35.080  20.138  16.1030  0.00  0.00     0.000 OA
ATOM    118   O  IDS B   6      33.382  21.374  16.3940  0.00  0.00     0.000 OA
ENDBRANCH 107 116
BRANCH 103 119
ATOM    119  O4  SGN B   7      34.299  20.999  11.4430  0.00  0.00     0.000 O
BRANCH 119 123
ATOM    120  C1  SGN B   7      32.198  18.316   9.0180  0.00  0.00     0.000 C
ATOM    121  C2  SGN B   7      31.993  18.213  10.5410  0.00  0.00     0.000 C
ATOM    122  C3  SGN B   7      32.492  19.485  11.2390  0.00  0.00     0.000 C
ATOM    123  C4  SGN B   7      33.929  19.764  10.8290  0.00  0.00     0.000 C
ATOM    124  C5  SGN B   7      34.030  19.841   9.2970  0.00  0.00     0.000 C
ATOM    125  O5  SGN B   7      33.551  18.624   8.6830  0.00  0.00     0.000 O
ATOM    126   O  SGN B   7      32.377  19.314  12.6560  0.00  0.00     0.000 O
ATOM    128  HD  SGN B   7      32.194  19.020  11.8630  0.00  0.00     0.000 HD
BRANCH 121 130
ATOM    128   N  SGN B   7      30.770  17.499  10.1660  0.00  0.00     0.000 N
ATOM    130  HD  SGN B   7      31.211  16.756  10.1110  0.00  0.00     0.000 HD
ATOM    130   S  SGN B   7      30.013  16.500  11.1770  0.00  0.00     0.000 S
ATOM    131   O  SGN B   7      29.861  17.238  12.3840  0.00  0.00     0.000 OA
ATOM    132   O  SGN B   7      28.877  15.969  10.5130  0.00  0.00     0.000 OA
ATOM    133   O  SGN B   7      31.036  15.316  11.2200  0.00  0.00     0.000 OA
ENDBRANCH 121 130
BRANCH 124 134
ATOM    134   C  SGN B   7      35.433  20.000   8.7890  0.00  0.00     0.000 C
ATOM    135   O  SGN B   7      35.760  18.854   7.9840  0.00  0.00     0.000 O
ATOM    136   S  SGN B   7      37.138  18.899   7.2300  0.00  0.00     0.000 S
ATOM    137   O  SGN B   7      37.289  17.617   6.5840  0.00  0.00     0.000 OA
ATOM    138   O  SGN B   7      38.125  19.134   8.2590  0.00  0.00     0.000 OA
ATOM    139   O  SGN B   7      36.954  20.009   6.3080  0.00  0.00     0.000 OA
ENDBRANCH 124 134
BRANCH 120 140
ATOM    140  O4  IDS B   8      31.579  19.131   8.1570  0.00  0.00     0.000 O
BRANCH 140 144
ATOM    141  C1  IDS B   8      29.526  20.740   5.6750  0.00  0.00     0.000 C
ATOM    142  C2  IDS B   8      31.078  20.813   5.5990  0.00  0.00     0.000 C
ATOM    143  C3  IDS B   8      31.729  21.214   6.9360  0.00  0.00     0.000 C
ATOM    144  C4  IDS B   8      31.102  20.482   8.1210  0.00  0.00     0.000 C
ATOM    145  C5  IDS B   8      29.570  20.497   8.0020  0.00  0.00     0.000 C
ATOM    146  O5  IDS B   8      29.131  19.925   6.7730  0.00  0.00     0.000 O
BRANCH 142 147
ATOM    147   O  IDS B   8      31.619  19.479   5.2280  0.00  0.00     0.000 O
ATOM    148   S  IDS B   8      33.017  19.341   4.4160  0.00  0.00     0.000 S
ATOM    149   O  IDS B   8      33.324  20.635   3.8490  0.00  0.00     0.000 OA
ATOM    150   O  IDS B   8      33.994  18.912   5.3990  0.00  0.00     0.000 OA
ATOM    151   O  IDS B   8      32.766  18.346   3.3910  0.00  0.00     0.000 OA
ENDBRANCH 142 147
BRANCH 145 152
ATOM    152   C  IDS B   8      28.892  19.701   9.0980  0.00  0.00     0.000 C
ATOM    153   O  IDS B   8      28.218  18.720   8.8040  0.00  0.00     0.000 OA
ATOM    154   O  IDS B   8      29.040  20.031  10.2610  0.00  0.00     0.000 OA
ENDBRANCH 145 152
ENDBRANCH 140 144
ENDBRANCH 120 140
ENDBRANCH 119 123
ENDBRANCH 103 119
ENDBRANCH 102 106
ENDBRANCH 82 102
ENDBRANCH 81 85
ENDBRANCH 65 81
ENDBRANCH 64 68
ENDBRANCH 41 64
ENDBRANCH 40 44
ENDBRANCH 24 40
ENDBRANCH 23 27
ENDBRANCH 1 23
TORSDOF 31
ENDMDL
MODEL 96
REMARK VINA RESULT:      -0.7     17.956     22.609
ROOT
ATOM      1  C1  SGN B   1      51.314  25.731  31.0790  0.00  0.00     0.000 C
ATOM      2  C2  SGN B   1      51.819  24.301  31.3340  0.00  0.00     0.000 C
ATOM      3  C3  SGN B   1      50.698  23.281  31.1080  0.00  0.00     0.000 C
ATOM      4  C4  SGN B   1      49.492  23.623  31.9760  0.00  0.00     0.000 C
ATOM      5  C5  SGN B   1      49.135  25.095  31.7770  0.00  0.00     0.000 C
ATOM      6  O5  SGN B   1      50.290  25.911  32.0480  0.00  0.00     0.000 O
ATOM      7   O  SGN B   1      51.156  21.964  31.3870  0.00  0.00     0.000 O
ATOM      9  HD  SGN B   1      51.258  22.352  32.1550  0.00  0.00     0.000 HD
ATOM      9   O  SGN B   1      48.399  22.802  31.6090  0.00  0.00     0.000 O
ATOM     11  HD  SGN B   1      48.500  23.190  32.3760  0.00  0.00     0.000 HD
ENDROOT
BRANCH 2 13
ATOM     11   N  SGN B   1      53.237  24.486  31.6950  0.00  0.00     0.000 N
ATOM     13  HD  SGN B   1      52.912  24.858  30.9830  0.00  0.00     0.000 HD
ATOM     13   S  SGN B   1      54.377  24.756  30.5920  0.00  0.00     0.000 S
ATOM     14   O  SGN B   1      53.800  24.832  29.3060  0.00  0.00     0.000 OA
ATOM     15   O  SGN B   1      55.206  25.820  31.0510  0.00  0.00     0.000 OA
ATOM     16   O  SGN B   1      55.182  23.433  30.7750  0.00  0.00     0.000 OA
ENDBRANCH 2 13
BRANCH 5 17
ATOM     17   C  SGN B   1      48.021  25.582  32.6700  0.00  0.00     0.000 C
ATOM     18   O  SGN B   1      48.072  24.936  33.9570  0.00  0.00     0.000 O
ATOM     19   S  SGN B   1      46.678  24.403  34.5310  0.00  0.00     0.000 S
ATOM     20   O  SGN B   1      46.955  24.023  35.9000  0.00  0.00     0.000 OA
ATOM     21   O  SGN B   1      45.791  25.537  34.4130  0.00  0.00     0.000 OA
ATOM     22   O  SGN B   1      46.322  23.288  33.6810  0.00  0.00     0.000 OA
ENDBRANCH 5 17
BRANCH 1 23
ATOM     23  O4  IDS B   2      51.193  26.641  30.0710  0.00  0.00     0.000 O
BRANCH 23 27
ATOM     24  C1  IDS B   2      47.771  26.060  27.7950  0.00  0.00     0.000 C
ATOM     25  C2  IDS B   2      49.052  25.384  27.2580  0.00  0.00     0.000 C
ATOM     26  C3  IDS B   2      50.162  25.407  28.3060  0.00  0.00     0.000 C
ATOM     27  C4  IDS B   2      50.470  26.802  28.8330  0.00  0.00     0.000 C
ATOM     28  C5  IDS B   2      49.167  27.618  28.9570  0.00  0.00     0.000 C
ATOM     29  O5  IDS B   2      48.036  26.762  29.0170  0.00  0.00     0.000 O
ATOM     30   O  IDS B   2      51.357  24.891  27.7330  0.00  0.00     0.000 O
ATOM     32  HD  IDS B   2      51.774  25.465  27.2360  0.00  0.00     0.000 HD
BRANCH 25 32
ATOM     32   O  IDS B   2      48.823  23.967  26.8800  0.00  0.00     0.000 O
ATOM     33   S  IDS B   2      49.024  23.436  25.3310  0.00  0.00     0.000 S
ATOM     34   O  IDS B   2      48.500  22.079  25.2970  0.00  0.00     0.000 OA
ATOM     35   O  IDS B   2      48.296  24.309  24.4210  0.00  0.00     0.000 OA
ATOM     36   O  IDS B   2      50.448  23.456  25.0930  0.00  0.00     0.000 OA
ENDBRANCH 25 32
BRANCH 28 37
ATOM     37   C  IDS B   2      49.063  28.639  30.1090  0.00  0.00     0.000 C
ATOM     38   O  IDS B   2      48.049  28.514  30.7550  0.00  0.00     0.000 OA
ATOM     39   O  IDS B   2      49.924  29.489  30.4450  0.00  0.00     0.000 OA
ENDBRANCH 28 37
BRANCH 24 40
ATOM     40  O4  SUS B   3      46.697  26.199  26.9910  0.00  0.00     0.000 O
BRANCH 40 44
ATOM     41  C1  SUS B   3      42.606  26.103  27.8860  0.00  0.00     0.000 C
ATOM     42  C2  SUS B   3      43.408  27.321  28.3860  0.00  0.00     0.000 C
ATOM     43  C3  SUS B   3      44.705  27.431  27.5870  0.00  0.00     0.000 C
ATOM     44  C4  SUS B   3      45.457  26.113  27.6840  0.00  0.00     0.000 C
ATOM     45  C5  SUS B   3      44.604  25.016  27.0810  0.00  0.00     0.000 C
ATOM     46  O5  SUS B   3      43.394  24.908  27.8570  0.00  0.00     0.000 O
BRANCH 42 49
ATOM     47   N  SUS B   3      43.425  28.108  29.6300  0.00  0.00     0.000 N
ATOM     49  HD  SUS B   3      43.546  27.667  30.3660  0.00  0.00     0.000 HD
ATOM     49   S  SUS B   3      42.117  29.017  29.8040  0.00  0.00     0.000 S
ATOM     50   O  SUS B   3      40.963  28.208  29.7710  0.00  0.00     0.000 OA
ATOM     51   O  SUS B   3      42.415  29.485  31.2520  0.00  0.00     0.000 OA
ATOM     52   O  SUS B   3      42.179  30.102  28.9070  0.00  0.00     0.000 OA
ENDBRANCH 42 49
BRANCH 43 53
ATOM     53   O  SUS B   3      45.513  28.515  28.1780  0.00  0.00     0.000 O
ATOM     54   S  SUS B   3      45.932  29.762  27.1920  0.00  0.00     0.000 S
ATOM     55   O  SUS B   3      44.725  30.532  26.9270  0.00  0.00     0.000 OA
ATOM     56   O  SUS B   3      46.935  30.488  27.9500  0.00  0.00     0.000 OA
ATOM     57   O  SUS B   3      46.458  29.160  25.9640  0.00  0.00     0.000 OA
ENDBRANCH 43 53
BRANCH 45 58
ATOM     58   C  SUS B   3      45.327  23.688  27.0500  0.00  0.00     0.000 C
ATOM     59   S  SUS B   3      45.895  21.649  28.5020  0.00  0.00     0.000 S
ATOM     60   O  SUS B   3      45.050  22.967  28.2630  0.00  0.00     0.000 O
ATOM     61   O  SUS B   3      47.195  22.108  28.9550  0.00  0.00     0.000 OA
ATOM     62   O  SUS B   3      45.130  21.026  29.5490  0.00  0.00     0.000 OA
ATOM     63   O  SUS B   3      45.892  20.965  27.2580  0.00  0.00     0.000 OA
ENDBRANCH 45 58
BRANCH 41 64
ATOM     64  O4  IDS B   4      41.902  26.340  26.7310  0.00  0.00     0.000 O
BRANCH 64 68
ATOM     65  C1  IDS B   4      38.718  26.460  24.9640  0.00  0.00     0.000 C
ATOM     66  C2  IDS B   4      38.759  26.588  26.4930  0.00  0.00     0.000 C
ATOM     67  C3  IDS B   4      39.640  25.562  27.1850  0.00  0.00     0.000 C
ATOM     68  C4  IDS B   4      40.938  25.303  26.4430  0.00  0.00     0.000 C
ATOM     69  C5  IDS B   4      40.615  25.167  24.9490  0.00  0.00     0.000 C
ATOM     70  O5  IDS B   4      40.046  26.390  24.4770  0.00  0.00     0.000 O
ATOM     71   O  IDS B   4      38.896  24.364  27.2770  0.00  0.00     0.000 O
ATOM     73  HD  IDS B   4      39.007  25.216  27.1660  0.00  0.00     0.000 HD
BRANCH 66 73
ATOM     73   O  IDS B   4      39.331  27.895  26.8430  0.00  0.00     0.000 O
ATOM     74   S  IDS B   4      38.329  29.036  27.4020  0.00  0.00     0.000 S
ATOM     75   O  IDS B   4      37.302  29.208  26.3970  0.00  0.00     0.000 OA
ATOM     76   O  IDS B   4      39.213  30.166  27.5380  0.00  0.00     0.000 OA
ATOM     77   O  IDS B   4      37.823  28.524  28.6540  0.00  0.00     0.000 OA
ENDBRANCH 66 73
BRANCH 69 78
ATOM     78   C  IDS B   4      41.780  24.688  24.0940  0.00  0.00     0.000 C
ATOM     79   O  IDS B   4      42.601  23.918  24.5920  0.00  0.00     0.000 OA
ATOM     80   O  IDS B   4      41.807  25.004  22.8910  0.00  0.00     0.000 OA
ENDBRANCH 69 78
BRANCH 65 81
ATOM     81  O4  SGN B   5      37.882  25.443  24.6170  0.00  0.00     0.000 O
BRANCH 81 85
ATOM     82  C1  SGN B   5      34.948  24.262  21.8530  0.00  0.00     0.000 C
ATOM     83  C2  SGN B   5      36.362  24.511  21.3070  0.00  0.00     0.000 C
ATOM     84  C3  SGN B   5      37.374  24.469  22.4600  0.00  0.00     0.000 C
ATOM     85  C4  SGN B   5      36.960  25.470  23.5250  0.00  0.00     0.000 C
ATOM     86  C5  SGN B   5      35.557  25.107  24.0050  0.00  0.00     0.000 C
ATOM     87  O5  SGN B   5      34.652  25.182  22.8860  0.00  0.00     0.000 O
ATOM     88   O  SGN B   5      38.667  24.754  21.9750  0.00  0.00     0.000 O
ATOM     90  HD  SGN B   5      38.365  23.965  22.1650  0.00  0.00     0.000 HD
BRANCH 83 92
ATOM     90   N  SGN B   5      35.648  24.523  20.0150  0.00  0.00     0.000 N
ATOM     92  HD  SGN B   5      35.205  25.260  19.9120  0.00  0.00     0.000 HD
ATOM     92   S  SGN B   5      36.434  24.019  18.7180  0.00  0.00     0.000 S
ATOM     93   O  SGN B   5      35.487  24.159  17.6530  0.00  0.00     0.000 OA
ATOM     94   O  SGN B   5      37.650  24.756  18.6920  0.00  0.00     0.000 OA
ATOM     95   O  SGN B   5      36.785  22.578  19.0170  0.00  0.00     0.000 OA
ENDBRANCH 83 92
BRANCH 86 96
ATOM     96   C  SGN B   5      35.015  26.020  25.0850  0.00  0.00     0.000 C
ATOM     97   O  SGN B   5      34.270  25.271  26.0490  0.00  0.00     0.000 O
ATOM     98   S  SGN B   5      34.663  25.510  27.5850  0.00  0.00     0.000 S
ATOM     99   O  SGN B   5      33.628  24.795  28.2930  0.00  0.00     0.000 OA
ATOM    100   O  SGN B   5      35.972  24.999  27.7750  0.00  0.00     0.000 OA
ATOM    101   O  SGN B   5      34.588  26.925  27.7540  0.00  0.00     0.000 OA
ENDBRANCH 86 96
BRANCH 82 102
ATOM    102  O4  IDS B   6      34.774  22.983  22.2920  0.00  0.00     0.000 O
BRANCH 102 106
ATOM    103  C1  IDS B   6      32.265  20.348  22.4170  0.00  0.00     0.000 C
ATOM    104  C2  IDS B   6      32.086  21.559  21.4890  0.00  0.00     0.000 C
ATOM    105  C3  IDS B   6      32.345  22.907  22.1350  0.00  0.00     0.000 C
ATOM    106  C4  IDS B   6      33.548  22.892  23.0610  0.00  0.00     0.000 C
ATOM    107  C5  IDS B   6      33.531  21.617  23.9100  0.00  0.00     0.000 C
ATOM    108  O5  IDS B   6      33.499  20.440  23.1020  0.00  0.00     0.000 O
ATOM    109   O  IDS B   6      31.174  23.293  22.8350  0.00  0.00     0.000 O
ATOM    111  HD  IDS B   6      30.765  22.545  22.9860  0.00  0.00     0.000 HD
BRANCH 104 111
ATOM    111   O  IDS B   6      33.054  21.465  20.3860  0.00  0.00     0.000 O
ATOM    112   S  IDS B   6      32.537  21.768  18.9020  0.00  0.00     0.000 S
ATOM    113   O  IDS B   6      31.468  20.806  18.6830  0.00  0.00     0.000 OA
ATOM    114   O  IDS B   6      32.119  23.173  18.8340  0.00  0.00     0.000 OA
ATOM    115   O  IDS B   6      33.749  21.478  18.1670  0.00  0.00     0.000 OA
ENDBRANCH 104 111
BRANCH 107 116
ATOM    116   C  IDS B   6      34.760  21.595  24.8100  0.00  0.00     0.000 C
ATOM    117   O  IDS B   6      34.674  22.181  25.8590  0.00  0.00     0.000 OA
ATOM    118   O  IDS B   6      35.781  21.016  24.4750  0.00  0.00     0.000 OA
ENDBRANCH 107 116
BRANCH 103 119
ATOM    119  O4  SGN B   7      31.087  20.281  23.0890  0.00  0.00     0.000 O
BRANCH 119 123
ATOM    120  C1  SGN B   7      28.648  17.267  24.6580  0.00  0.00     0.000 C
ATOM    121  C2  SGN B   7      29.973  17.564  25.3850  0.00  0.00     0.000 C
ATOM    122  C3  SGN B   7      30.536  18.922  24.9460  0.00  0.00     0.000 C
ATOM    123  C4  SGN B   7      30.642  18.968  23.4310  0.00  0.00     0.000 C
ATOM    124  C5  SGN B   7      29.275  18.653  22.8010  0.00  0.00     0.000 C
ATOM    125  O5  SGN B   7      28.785  17.367  23.2410  0.00  0.00     0.000 O
ATOM    126   O  SGN B   7      31.812  19.119  25.5650  0.00  0.00     0.000 O
ATOM    128  HD  SGN B   7      31.084  18.654  25.5130  0.00  0.00     0.000 HD
BRANCH 121 130
ATOM    128   N  SGN B   7      29.593  16.427  26.2270  0.00  0.00     0.000 N
ATOM    130  HD  SGN B   7      30.378  16.076  26.1200  0.00  0.00     0.000 HD
ATOM    130   S  SGN B   7      30.159  16.237  27.7220  0.00  0.00     0.000 S
ATOM    131   O  SGN B   7      29.936  17.486  28.3660  0.00  0.00     0.000 OA
ATOM    132   O  SGN B   7      29.610  15.045  28.2600  0.00  0.00     0.000 OA
ATOM    133   O  SGN B   7      31.653  15.880  27.4140  0.00  0.00     0.000 OA
ENDBRANCH 121 130
BRANCH 124 134
ATOM    134   C  SGN B   7      29.303  18.561  21.3040  0.00  0.00     0.000 C
ATOM    135   O  SGN B   7      27.954  18.409  20.8300  0.00  0.00     0.000 O
ATOM    136   S  SGN B   7      27.751  18.448  19.2730  0.00  0.00     0.000 S
ATOM    137   O  SGN B   7      26.354  18.174  19.0380  0.00  0.00     0.000 OA
ATOM    138   O  SGN B   7      28.623  17.420  18.7520  0.00  0.00     0.000 OA
ATOM    139   O  SGN B   7      28.153  19.806  18.9380  0.00  0.00     0.000 OA
ENDBRANCH 124 134
BRANCH 120 140
ATOM    140  O4  IDS B   8      27.474  17.892  24.7990  0.00  0.00     0.000 O
BRANCH 140 144
ATOM    141  C1  IDS B   8      24.404  19.764  24.6150  0.00  0.00     0.000 C
ATOM    142  C2  IDS B   8      25.764  20.480  24.8590  0.00  0.00     0.000 C
ATOM    143  C3  IDS B   8      26.602  19.821  25.9700  0.00  0.00     0.000 C
ATOM    144  C4  IDS B   8      26.601  18.297  25.8610  0.00  0.00     0.000 C
ATOM    145  C5  IDS B   8      25.177  17.785  25.5970  0.00  0.00     0.000 C
ATOM    146  O5  IDS B   8      24.616  18.371  24.4240  0.00  0.00     0.000 O
BRANCH 142 147
ATOM    147   O  IDS B   8      26.575  20.440  23.6140  0.00  0.00     0.000 O
ATOM    148   S  IDS B   8      26.965  21.803  22.8260  0.00  0.00     0.000 S
ATOM    149   O  IDS B   8      26.096  22.852  23.3090  0.00  0.00     0.000 OA
ATOM    150   O  IDS B   8      28.362  22.043  23.1360  0.00  0.00     0.000 OA
ATOM    151   O  IDS B   8      26.735  21.512  21.4230  0.00  0.00     0.000 OA
ENDBRANCH 142 147
BRANCH 145 152
ATOM    152   C  IDS B   8      25.126  16.287  25.3800  0.00  0.00     0.000 C
ATOM    153   O  IDS B   8      24.629  15.841  24.3520  0.00  0.00     0.000 OA
ATOM    154   O  IDS B   8      25.598  15.541  26.2200  0.00  0.00     0.000 OA
ENDBRANCH 145 152
ENDBRANCH 140 144
ENDBRANCH 120 140
ENDBRANCH 119 123
ENDBRANCH 103 119
ENDBRANCH 102 106
ENDBRANCH 82 102
ENDBRANCH 81 85
ENDBRANCH 65 81
ENDBRANCH 64 68
ENDBRANCH 41 64
ENDBRANCH 40 44
ENDBRANCH 24 40
ENDBRANCH 23 27
ENDBRANCH 1 23
TORSDOF 31
ENDMDL
MODEL 97
REMARK VINA RESULT:      -0.7     32.166     41.950
ROOT
ATOM      1  C1  SGN B   1      54.731  26.316  28.8980  0.00  0.00     0.000 C
ATOM      2  C2  SGN B   1      55.267  27.483  29.7450  0.00  0.00     0.000 C
ATOM      3  C3  SGN B   1      54.864  27.316  31.2140  0.00  0.00     0.000 C
ATOM      4  C4  SGN B   1      53.350  27.173  31.3320  0.00  0.00     0.000 C
ATOM      5  C5  SGN B   1      52.873  26.096  30.3600  0.00  0.00     0.000 C
ATOM      6  O5  SGN B   1      53.320  26.416  29.0280  0.00  0.00     0.000 O
ATOM      7   O  SGN B   1      55.323  28.419  31.9870  0.00  0.00     0.000 O
ATOM      9  HD  SGN B   1      54.795  28.808  31.4210  0.00  0.00     0.000 HD
ATOM      9   O  SGN B   1      53.013  26.817  32.6600  0.00  0.00     0.000 O
ATOM     11  HD  SGN B   1      52.485  27.206  32.0940  0.00  0.00     0.000 HD
ENDROOT
BRANCH 2 13
ATOM     11   N  SGN B   1      56.004  28.336  28.7940  0.00  0.00     0.000 N
ATOM     13  HD  SGN B   1      56.136  27.480  28.8100  0.00  0.00     0.000 HD
ATOM     13   S  SGN B   1      57.467  27.948  28.2470  0.00  0.00     0.000 S
ATOM     14   O  SGN B   1      57.864  26.699  28.7670  0.00  0.00     0.000 OA
ATOM     15   O  SGN B   1      57.492  28.160  26.8390  0.00  0.00     0.000 OA
ATOM     16   O  SGN B   1      58.267  29.116  28.9020  0.00  0.00     0.000 OA
ENDBRANCH 2 13
BRANCH 5 17
ATOM     17   C  SGN B   1      51.374  25.938  30.3060  0.00  0.00     0.000 C
ATOM     18   O  SGN B   1      50.984  24.598  30.6650  0.00  0.00     0.000 O
ATOM     19   S  SGN B   1      49.886  23.911  29.7260  0.00  0.00     0.000 S
ATOM     20   O  SGN B   1      49.503  22.700  30.4200  0.00  0.00     0.000 OA
ATOM     21   O  SGN B   1      48.828  24.891  29.6460  0.00  0.00     0.000 OA
ATOM     22   O  SGN B   1      50.561  23.671  28.4700  0.00  0.00     0.000 OA
ENDBRANCH 5 17
BRANCH 1 23
ATOM     23  O4  IDS B   2      55.091  25.073  28.4700  0.00  0.00     0.000 O
BRANCH 23 27
ATOM     24  C1  IDS B   2      55.511  21.449  26.4900  0.00  0.00     0.000 C
ATOM     25  C2  IDS B   2      54.947  22.610  25.6430  0.00  0.00     0.000 C
ATOM     26  C3  IDS B   2      55.113  23.944  26.3660  0.00  0.00     0.000 C
ATOM     27  C4  IDS B   2      54.511  23.956  27.7640  0.00  0.00     0.000 C
ATOM     28  C5  IDS B   2      54.730  22.589  28.4440  0.00  0.00     0.000 C
ATOM     29  O5  IDS B   2      55.795  21.881  27.8270  0.00  0.00     0.000 O
ATOM     30   O  IDS B   2      54.471  24.967  25.6130  0.00  0.00     0.000 O
ATOM     32  HD  IDS B   2      53.612  24.982  25.7200  0.00  0.00     0.000 HD
BRANCH 25 32
ATOM     32   O  IDS B   2      55.623  22.726  24.3270  0.00  0.00     0.000 O
ATOM     33   S  IDS B   2      54.800  22.563  22.9060  0.00  0.00     0.000 S
ATOM     34   O  IDS B   2      55.808  22.511  21.8590  0.00  0.00     0.000 OA
ATOM     35   O  IDS B   2      54.007  21.343  22.9430  0.00  0.00     0.000 OA
ATOM     36   O  IDS B   2      53.982  23.748  22.7920  0.00  0.00     0.000 OA
ENDBRANCH 25 32
BRANCH 28 37
ATOM     37   C  IDS B   2      54.954  22.570  29.9700  0.00  0.00     0.000 C
ATOM     38   O  IDS B   2      56.085  22.272  30.2730  0.00  0.00     0.000 OA
ATOM     39   O  IDS B   2      54.125  22.884  30.8590  0.00  0.00     0.000 OA
ENDBRANCH 28 37
BRANCH 24 40
ATOM     40  O4  SUS B   3      55.397  20.178  26.0510  0.00  0.00     0.000 O
BRANCH 40 44
ATOM     41  C1  SUS B   3      58.013  16.928  26.4340  0.00  0.00     0.000 C
ATOM     42  C2  SUS B   3      57.274  17.392  27.7050  0.00  0.00     0.000 C
ATOM     43  C3  SUS B   3      56.054  18.219  27.3040  0.00  0.00     0.000 C
ATOM     44  C4  SUS B   3      56.505  19.357  26.4020  0.00  0.00     0.000 C
ATOM     45  C5  SUS B   3      57.130  18.772  25.1520  0.00  0.00     0.000 C
ATOM     46  O5  SUS B   3      58.292  18.013  25.5420  0.00  0.00     0.000 O
BRANCH 42 49
ATOM     47   N  SUS B   3      57.209  17.448  29.1760  0.00  0.00     0.000 N
ATOM     49  HD  SUS B   3      57.529  18.160  29.5510  0.00  0.00     0.000 HD
ATOM     49   S  SUS B   3      57.883  16.172  29.8720  0.00  0.00     0.000 S
ATOM     50   O  SUS B   3      59.227  16.056  29.4610  0.00  0.00     0.000 OA
ATOM     51   O  SUS B   3      57.801  16.699  31.3280  0.00  0.00     0.000 OA
ATOM     52   O  SUS B   3      57.048  15.051  29.7000  0.00  0.00     0.000 OA
ENDBRANCH 42 49
BRANCH 43 53
ATOM     53   O  SUS B   3      55.450  18.765  28.5350  0.00  0.00     0.000 O
ATOM     54   S  SUS B   3      53.937  18.249  28.9210  0.00  0.00     0.000 S
ATOM     55   O  SUS B   3      54.045  16.860  29.3470  0.00  0.00     0.000 OA
ATOM     56   O  SUS B   3      53.514  19.154  29.9740  0.00  0.00     0.000 OA
ATOM     57   O  SUS B   3      53.135  18.368  27.7000  0.00  0.00     0.000 OA
ENDBRANCH 43 53
BRANCH 45 58
ATOM     58   C  SUS B   3      57.515  19.844  24.1560  0.00  0.00     0.000 C
ATOM     59   S  SUS B   3      59.415  21.454  23.5360  0.00  0.00     0.000 S
ATOM     60   O  SUS B   3      58.896  20.195  24.3450  0.00  0.00     0.000 O
ATOM     61   O  SUS B   3      58.921  22.605  24.2670  0.00  0.00     0.000 OA
ATOM     62   O  SUS B   3      60.838  21.284  23.6610  0.00  0.00     0.000 OA
ATOM     63   O  SUS B   3      58.898  21.301  22.2220  0.00  0.00     0.000 OA
ENDBRANCH 45 58
BRANCH 41 64
ATOM     64  O4  IDS B   4      57.440  15.836  25.8290  0.00  0.00     0.000 O
BRANCH 64 68
ATOM     65  C1  IDS B   4      58.420  12.635  24.3920  0.00  0.00     0.000 C
ATOM     66  C2  IDS B   4      59.443  13.483  25.1570  0.00  0.00     0.000 C
ATOM     67  C3  IDS B   4      59.450  14.954  24.7750  0.00  0.00     0.000 C
ATOM     68  C4  IDS B   4      58.057  15.515  24.5620  0.00  0.00     0.000 C
ATOM     69  C5  IDS B   4      57.256  14.502  23.7330  0.00  0.00     0.000 C
ATOM     70  O5  IDS B   4      57.158  13.273  24.4570  0.00  0.00     0.000 O
ATOM     71   O  IDS B   4      60.201  15.075  23.5840  0.00  0.00     0.000 O
ATOM     73  HD  IDS B   4      59.929  14.683  24.3070  0.00  0.00     0.000 HD
BRANCH 66 73
ATOM     73   O  IDS B   4      59.109  13.452  26.5870  0.00  0.00     0.000 O
ATOM     74   S  IDS B   4      60.155  12.741  27.5950  0.00  0.00     0.000 S
ATOM     75   O  IDS B   4      60.339  11.390  27.1090  0.00  0.00     0.000 OA
ATOM     76   O  IDS B   4      59.456  12.822  28.8530  0.00  0.00     0.000 OA
ATOM     77   O  IDS B   4      61.356  13.539  27.5310  0.00  0.00     0.000 OA
ENDBRANCH 66 73
BRANCH 69 78
ATOM     78   C  IDS B   4      55.907  15.013  23.2470  0.00  0.00     0.000 C
ATOM     79   O  IDS B   4      55.022  14.197  22.9950  0.00  0.00     0.000 OA
ATOM     80   O  IDS B   4      55.709  16.242  23.2220  0.00  0.00     0.000 OA
ENDBRANCH 69 78
BRANCH 65 81
ATOM     81  O4  SGN B   5      58.902  12.356  23.1490  0.00  0.00     0.000 O
BRANCH 81 85
ATOM     82  C1  SGN B   5      59.047   9.403  20.1660  0.00  0.00     0.000 C
ATOM     83  C2  SGN B   5      57.655   9.853  20.6350  0.00  0.00     0.000 C
ATOM     84  C3  SGN B   5      57.767  11.210  21.3450  0.00  0.00     0.000 C
ATOM     85  C4  SGN B   5      58.772  11.100  22.4780  0.00  0.00     0.000 C
ATOM     86  C5  SGN B   5      60.114  10.671  21.8880  0.00  0.00     0.000 C
ATOM     87  O5  SGN B   5      59.951   9.388  21.2550  0.00  0.00     0.000 O
ATOM     88   O  SGN B   5      56.501  11.603  21.8280  0.00  0.00     0.000 O
ATOM     90  HD  SGN B   5      56.882  11.908  21.1130  0.00  0.00     0.000 HD
BRANCH 83 92
ATOM     90   N  SGN B   5      56.963   9.662  19.3450  0.00  0.00     0.000 N
ATOM     92  HD  SGN B   5      57.529   9.627  18.6910  0.00  0.00     0.000 HD
ATOM     92   S  SGN B   5      55.785   8.583  19.2780  0.00  0.00     0.000 S
ATOM     93   O  SGN B   5      55.336   8.634  17.9190  0.00  0.00     0.000 OA
ATOM     94   O  SGN B   5      56.333   7.380  19.8040  0.00  0.00     0.000 OA
ATOM     95   O  SGN B   5      54.753   9.080  20.2660  0.00  0.00     0.000 OA
ENDBRANCH 83 92
BRANCH 86 96
ATOM     96   C  SGN B   5      61.224  10.532  22.9090  0.00  0.00     0.000 C
ATOM     97   O  SGN B   5      60.750   9.860  24.0780  0.00  0.00     0.000 O
ATOM     98   S  SGN B   5      61.630   8.618  24.5840  0.00  0.00     0.000 S
ATOM     99   O  SGN B   5      61.026   8.297  25.8550  0.00  0.00     0.000 OA
ATOM    100   O  SGN B   5      61.527   7.596  23.6050  0.00  0.00     0.000 OA
ATOM    101   O  SGN B   5      62.951   9.144  24.7030  0.00  0.00     0.000 OA
ENDBRANCH 86 96
BRANCH 82 102
ATOM    102  O4  IDS B   6      59.535  10.175  19.1540  0.00  0.00     0.000 O
BRANCH 102 106
ATOM    103  C1  IDS B   6      60.624  10.860  15.7480  0.00  0.00     0.000 C
ATOM    104  C2  IDS B   6      59.315  10.101  16.0170  0.00  0.00     0.000 C
ATOM    105  C3  IDS B   6      59.419   8.981  17.0350  0.00  0.00     0.000 C
ATOM    106  C4  IDS B   6      60.285   9.350  18.2260  0.00  0.00     0.000 C
ATOM    107  C5  IDS B   6      61.544  10.078  17.7450  0.00  0.00     0.000 C
ATOM    108  O5  IDS B   6      61.226  11.237  16.9720  0.00  0.00     0.000 O
ATOM    109   O  IDS B   6      59.930   7.833  16.3770  0.00  0.00     0.000 O
ATOM    111  HD  IDS B   6      60.346   8.155  15.6890  0.00  0.00     0.000 HD
BRANCH 104 111
ATOM    111   O  IDS B   6      58.323  11.036  16.5680  0.00  0.00     0.000 O
ATOM    112   S  IDS B   6      57.128  11.514  15.6160  0.00  0.00     0.000 S
ATOM    113   O  IDS B   6      57.791  12.136  14.4810  0.00  0.00     0.000 OA
ATOM    114   O  IDS B   6      56.306  10.345  15.2810  0.00  0.00     0.000 OA
ATOM    115   O  IDS B   6      56.482  12.454  16.5060  0.00  0.00     0.000 OA
ENDBRANCH 104 111
BRANCH 107 116
ATOM    116   C  IDS B   6      62.387  10.476  18.9500  0.00  0.00     0.000 C
ATOM    117   O  IDS B   6      62.650  11.647  19.0650  0.00  0.00     0.000 OA
ATOM    118   O  IDS B   6      62.783   9.644  19.7510  0.00  0.00     0.000 OA
ENDBRANCH 107 116
BRANCH 103 119
ATOM    119  O4  SGN B   7      61.274  10.072  14.8540  0.00  0.00     0.000 O
BRANCH 119 123
ATOM    120  C1  SGN B   7      64.022  10.812  11.7890  0.00  0.00     0.000 C
ATOM    121  C2  SGN B   7      64.560  10.203  13.0970  0.00  0.00     0.000 C
ATOM    122  C3  SGN B   7      63.411   9.630  13.9360  0.00  0.00     0.000 C
ATOM    123  C4  SGN B   7      62.346  10.694  14.1450  0.00  0.00     0.000 C
ATOM    124  C5  SGN B   7      61.881  11.241  12.7850  0.00  0.00     0.000 C
ATOM    125  O5  SGN B   7      62.994  11.771  12.0310  0.00  0.00     0.000 O
ATOM    126   O  SGN B   7      63.933   9.163  15.1850  0.00  0.00     0.000 O
ATOM    128  HD  SGN B   7      64.090   9.457  14.3860  0.00  0.00     0.000 HD
BRANCH 121 130
ATOM    128   N  SGN B   7      65.657   9.670  12.2860  0.00  0.00     0.000 N
ATOM    130  HD  SGN B   7      66.021  10.456  12.2490  0.00  0.00     0.000 HD
ATOM    130   S  SGN B   7      67.140   9.460  12.8780  0.00  0.00     0.000 S
ATOM    131   O  SGN B   7      66.958   8.732  14.0870  0.00  0.00     0.000 OA
ATOM    132   O  SGN B   7      67.963   8.941  11.8450  0.00  0.00     0.000 OA
ATOM    133   O  SGN B   7      67.594  10.951  13.0340  0.00  0.00     0.000 OA
ENDBRANCH 121 130
BRANCH 124 134
ATOM    134   C  SGN B   7      60.912  12.382  12.8890  0.00  0.00     0.000 C
ATOM    135   O  SGN B   7      61.211  13.333  11.8530  0.00  0.00     0.000 O
ATOM    136   S  SGN B   7      60.209  14.532  11.6940  0.00  0.00     0.000 S
ATOM    137   O  SGN B   7      60.766  15.395  10.6790  0.00  0.00     0.000 OA
ATOM    138   O  SGN B   7      60.155  15.155  12.9970  0.00  0.00     0.000 OA
ATOM    139   O  SGN B   7      58.981  13.863  11.2940  0.00  0.00     0.000 OA
ENDBRANCH 124 134
BRANCH 120 140
ATOM    140  O4  IDS B   8      63.471  10.174  10.7500  0.00  0.00     0.000 O
BRANCH 140 144
ATOM    141  C1  IDS B   8      63.112   8.493   7.5860  0.00  0.00     0.000 C
ATOM    142  C2  IDS B   8      64.047   9.727   7.7340  0.00  0.00     0.000 C
ATOM    143  C3  IDS B   8      63.373  10.913   8.4490  0.00  0.00     0.000 C
ATOM    144  C4  IDS B   8      62.574  10.466   9.6720  0.00  0.00     0.000 C
ATOM    145  C5  IDS B   8      61.736   9.224   9.3310  0.00  0.00     0.000 C
ATOM    146  O5  IDS B   8      62.547   8.157   8.8470  0.00  0.00     0.000 O
BRANCH 142 147
ATOM    147   O  IDS B   8      65.241   9.351   8.5370  0.00  0.00     0.000 O
ATOM    148   S  IDS B   8      66.634  10.168   8.3960  0.00  0.00     0.000 S
ATOM    149   O  IDS B   8      66.569  10.940   7.1760  0.00  0.00     0.000 OA
ATOM    150   O  IDS B   8      66.717  11.000   9.5830  0.00  0.00     0.000 OA
ATOM    151   O  IDS B   8      67.669   9.153   8.3400  0.00  0.00     0.000 OA
ENDBRANCH 142 147
BRANCH 145 152
ATOM    152   C  IDS B   8      60.995   8.673  10.5330  0.00  0.00     0.000 C
ATOM    153   O  IDS B   8      59.882   9.107  10.8080  0.00  0.00     0.000 OA
ATOM    154   O  IDS B   8      61.504   7.791  11.2010  0.00  0.00     0.000 OA
ENDBRANCH 145 152
ENDBRANCH 140 144
ENDBRANCH 120 140
ENDBRANCH 119 123
ENDBRANCH 103 119
ENDBRANCH 102 106
ENDBRANCH 82 102
ENDBRANCH 81 85
ENDBRANCH 65 81
ENDBRANCH 64 68
ENDBRANCH 41 64
ENDBRANCH 40 44
ENDBRANCH 24 40
ENDBRANCH 23 27
ENDBRANCH 1 23
TORSDOF 31
ENDMDL
MODEL 98
REMARK VINA RESULT:       0.2     21.425     26.189
ROOT
ATOM      1  C1  SGN B   1      55.067  26.132  32.0470  0.00  0.00     0.000 C
ATOM      2  C2  SGN B   1      55.765  26.145  30.6780  0.00  0.00     0.000 C
ATOM      3  C3  SGN B   1      54.801  25.702  29.5720  0.00  0.00     0.000 C
ATOM      4  C4  SGN B   1      54.216  24.332  29.9020  0.00  0.00     0.000 C
ATOM      5  C5  SGN B   1      53.669  24.353  31.3270  0.00  0.00     0.000 C
ATOM      6  O5  SGN B   1      54.706  24.771  32.2360  0.00  0.00     0.000 O
ATOM      7   O  SGN B   1      55.462  25.673  28.3130  0.00  0.00     0.000 O
ATOM      9  HD  SGN B   1      55.919  25.092  28.7650  0.00  0.00     0.000 HD
ATOM      9   O  SGN B   1      53.181  24.030  28.9850  0.00  0.00     0.000 O
ATOM     11  HD  SGN B   1      53.638  23.449  29.4370  0.00  0.00     0.000 HD
ENDROOT
BRANCH 2 13
ATOM     11   N  SGN B   1      57.130  26.608  30.9930  0.00  0.00     0.000 N
ATOM     13  HD  SGN B   1      56.440  27.049  31.2750  0.00  0.00     0.000 HD
ATOM     13   S  SGN B   1      57.477  28.160  31.2390  0.00  0.00     0.000 S
ATOM     14   O  SGN B   1      56.303  28.938  31.1570  0.00  0.00     0.000 OA
ATOM     15   O  SGN B   1      58.303  28.259  32.3950  0.00  0.00     0.000 OA
ATOM     16   O  SGN B   1      58.394  28.383  29.9970  0.00  0.00     0.000 OA
ENDBRANCH 2 13
BRANCH 5 17
ATOM     17   C  SGN B   1      53.160  23.017  31.8090  0.00  0.00     0.000 C
ATOM     18   O  SGN B   1      52.115  22.523  30.9480  0.00  0.00     0.000 O
ATOM     19   S  SGN B   1      50.825  21.927  31.6810  0.00  0.00     0.000 S
ATOM     20   O  SGN B   1      50.053  21.298  30.6300  0.00  0.00     0.000 OA
ATOM     21   O  SGN B   1      51.365  20.993  32.6410  0.00  0.00     0.000 OA
ATOM     22   O  SGN B   1      50.169  23.070  32.2770  0.00  0.00     0.000 OA
ENDBRANCH 5 17
BRANCH 1 23
ATOM     23  O4  IDS B   2      54.341  26.944  32.8680  0.00  0.00     0.000 O
BRANCH 23 27
ATOM     24  C1  IDS B   2      50.328  27.124  31.8230  0.00  0.00     0.000 C
ATOM     25  C2  IDS B   2      51.226  28.222  31.2110  0.00  0.00     0.000 C
ATOM     26  C3  IDS B   2      52.703  27.893  31.4120  0.00  0.00     0.000 C
ATOM     27  C4  IDS B   2      53.077  27.640  32.8660  0.00  0.00     0.000 C
ATOM     28  C5  IDS B   2      51.935  26.889  33.5810  0.00  0.00     0.000 C
ATOM     29  O5  IDS B   2      51.095  26.233  32.6440  0.00  0.00     0.000 O
ATOM     30   O  IDS B   2      53.493  28.982  30.9480  0.00  0.00     0.000 O
ATOM     32  HD  IDS B   2      53.532  29.639  31.5110  0.00  0.00     0.000 HD
BRANCH 25 32
ATOM     32   O  IDS B   2      50.998  28.386  29.7550  0.00  0.00     0.000 O
ATOM     33   S  IDS B   2      50.446  29.803  29.1140  0.00  0.00     0.000 S
ATOM     34   O  IDS B   2      50.133  29.523  27.7210  0.00  0.00     0.000 OA
ATOM     35   O  IDS B   2      49.266  30.240  29.8470  0.00  0.00     0.000 OA
ATOM     36   O  IDS B   2      51.543  30.737  29.2290  0.00  0.00     0.000 OA
ENDBRANCH 25 32
BRANCH 28 37
ATOM     37   C  IDS B   2      52.316  25.879  34.6820  0.00  0.00     0.000 C
ATOM     38   O  IDS B   2      51.796  24.799  34.5260  0.00  0.00     0.000 OA
ATOM     39   O  IDS B   2      53.122  26.060  35.6270  0.00  0.00     0.000 OA
ENDBRANCH 28 37
BRANCH 24 40
ATOM     40  O4  SUS B   3      48.986  27.267  31.8080  0.00  0.00     0.000 O
BRANCH 40 44
ATOM     41  C1  SUS B   3      45.956  24.402  31.4150  0.00  0.00     0.000 C
ATOM     42  C2  SUS B   3      46.765  24.397  32.7270  0.00  0.00     0.000 C
ATOM     43  C3  SUS B   3      47.455  25.748  32.8980  0.00  0.00     0.000 C
ATOM     44  C4  SUS B   3      48.288  26.036  31.6590  0.00  0.00     0.000 C
ATOM     45  C5  SUS B   3      47.370  26.106  30.4560  0.00  0.00     0.000 C
ATOM     46  O5  SUS B   3      46.742  24.818  30.2930  0.00  0.00     0.000 O
BRANCH 42 49
ATOM     47   N  SUS B   3      45.766  23.909  33.6930  0.00  0.00     0.000 N
ATOM     49  HD  SUS B   3      45.526  24.462  34.3140  0.00  0.00     0.000 HD
ATOM     49   S  SUS B   3      46.201  22.535  34.3920  0.00  0.00     0.000 S
ATOM     50   O  SUS B   3      47.444  22.698  35.0370  0.00  0.00     0.000 OA
ATOM     51   O  SUS B   3      45.049  22.487  35.4280  0.00  0.00     0.000 OA
ATOM     52   O  SUS B   3      46.081  21.480  33.4650  0.00  0.00     0.000 OA
ENDBRANCH 42 49
BRANCH 43 53
ATOM     53   O  SUS B   3      48.331  25.665  34.0830  0.00  0.00     0.000 O
ATOM     54   S  SUS B   3      47.888  26.536  35.4050  0.00  0.00     0.000 S
ATOM     55   O  SUS B   3      46.712  25.894  35.9770  0.00  0.00     0.000 OA
ATOM     56   O  SUS B   3      49.057  26.490  36.2650  0.00  0.00     0.000 OA
ATOM     57   O  SUS B   3      47.575  27.886  34.9270  0.00  0.00     0.000 OA
ENDBRANCH 43 53
BRANCH 45 58
ATOM     58   C  SUS B   3      48.115  26.489  29.1960  0.00  0.00     0.000 C
ATOM     59   S  SUS B   3      49.528  25.506  27.2920  0.00  0.00     0.000 S
ATOM     60   O  SUS B   3      48.546  25.297  28.5170  0.00  0.00     0.000 O
ATOM     61   O  SUS B   3      50.827  25.757  27.8860  0.00  0.00     0.000 OA
ATOM     62   O  SUS B   3      49.445  24.217  26.6600  0.00  0.00     0.000 OA
ATOM     63   O  SUS B   3      48.981  26.585  26.5470  0.00  0.00     0.000 OA
ENDBRANCH 45 58
BRANCH 41 64
ATOM     64  O4  IDS B   4      44.742  25.037  31.5160  0.00  0.00     0.000 O
BRANCH 64 68
ATOM     65  C1  IDS B   4      41.152  25.593  31.2410  0.00  0.00     0.000 C
ATOM     66  C2  IDS B   4      41.688  24.351  31.9640  0.00  0.00     0.000 C
ATOM     67  C3  IDS B   4      42.788  23.615  31.2170  0.00  0.00     0.000 C
ATOM     68  C4  IDS B   4      43.779  24.553  30.5540  0.00  0.00     0.000 C
ATOM     69  C5  IDS B   4      42.988  25.674  29.8650  0.00  0.00     0.000 C
ATOM     70  O5  IDS B   4      42.247  26.400  30.8480  0.00  0.00     0.000 O
ATOM     71   O  IDS B   4      42.164  22.810  30.2380  0.00  0.00     0.000 O
ATOM     73  HD  IDS B   4      42.198  23.290  30.9580  0.00  0.00     0.000 HD
BRANCH 66 73
ATOM     73   O  IDS B   4      42.291  24.768  33.2370  0.00  0.00     0.000 O
ATOM     74   S  IDS B   4      41.642  24.199  34.6060  0.00  0.00     0.000 S
ATOM     75   O  IDS B   4      40.245  24.574  34.5840  0.00  0.00     0.000 OA
ATOM     76   O  IDS B   4      42.418  24.884  35.6090  0.00  0.00     0.000 OA
ATOM     77   O  IDS B   4      41.851  22.771  34.5660  0.00  0.00     0.000 OA
ENDBRANCH 66 73
BRANCH 69 78
ATOM     78   C  IDS B   4      43.826  26.576  28.9690  0.00  0.00     0.000 C
ATOM     79   O  IDS B   4      43.961  27.758  29.2810  0.00  0.00     0.000 OA
ATOM     80   O  IDS B   4      44.433  26.065  28.0100  0.00  0.00     0.000 OA
ENDBRANCH 69 78
BRANCH 65 81
ATOM     81  O4  SGN B   5      40.289  25.209  30.2590  0.00  0.00     0.000 O
BRANCH 81 85
ATOM     82  C1  SGN B   5      36.565  26.058  28.5150  0.00  0.00     0.000 C
ATOM     83  C2  SGN B   5      37.738  26.972  28.1330  0.00  0.00     0.000 C
ATOM     84  C3  SGN B   5      39.064  26.271  28.4640  0.00  0.00     0.000 C
ATOM     85  C4  SGN B   5      39.068  25.874  29.9290  0.00  0.00     0.000 C
ATOM     86  C5  SGN B   5      37.877  24.953  30.1800  0.00  0.00     0.000 C
ATOM     87  O5  SGN B   5      36.666  25.670  29.8720  0.00  0.00     0.000 O
ATOM     88   O  SGN B   5      40.145  27.128  28.1690  0.00  0.00     0.000 O
ATOM     90  HD  SGN B   5      39.879  26.467  27.6760  0.00  0.00     0.000 HD
BRANCH 83 92
ATOM     90   N  SGN B   5      36.622  27.569  27.3750  0.00  0.00     0.000 N
ATOM     92  HD  SGN B   5      35.928  27.683  27.8820  0.00  0.00     0.000 HD
ATOM     92   S  SGN B   5      36.947  28.785  26.3900  0.00  0.00     0.000 S
ATOM     93   O  SGN B   5      35.678  29.133  25.8250  0.00  0.00     0.000 OA
ATOM     94   O  SGN B   5      37.664  29.734  27.1720  0.00  0.00     0.000 OA
ATOM     95   O  SGN B   5      37.914  28.211  25.3780  0.00  0.00     0.000 OA
ENDBRANCH 83 92
BRANCH 86 96
ATOM     96   C  SGN B   5      37.760  24.464  31.6090  0.00  0.00     0.000 C
ATOM     97   O  SGN B   5      37.822  25.562  32.5220  0.00  0.00     0.000 O
ATOM     98   S  SGN B   5      36.654  25.636  33.6180  0.00  0.00     0.000 S
ATOM     99   O  SGN B   5      37.100  26.698  34.4880  0.00  0.00     0.000 OA
ATOM    100   O  SGN B   5      35.441  25.903  32.9310  0.00  0.00     0.000 OA
ATOM    101   O  SGN B   5      36.669  24.352  34.2400  0.00  0.00     0.000 OA
ENDBRANCH 86 96
BRANCH 82 102
ATOM    102  O4  IDS B   6      36.473  24.960  27.7130  0.00  0.00     0.000 O
BRANCH 102 106
ATOM    103  C1  IDS B   6      34.766  22.757  25.3690  0.00  0.00     0.000 C
ATOM    104  C2  IDS B   6      34.654  24.284  25.2370  0.00  0.00     0.000 C
ATOM    105  C3  IDS B   6      34.347  25.020  26.5270  0.00  0.00     0.000 C
ATOM    106  C4  IDS B   6      35.110  24.463  27.7160  0.00  0.00     0.000 C
ATOM    107  C5  IDS B   6      35.089  22.932  27.6740  0.00  0.00     0.000 C
ATOM    108  O5  IDS B   6      35.620  22.425  26.4480  0.00  0.00     0.000 O
ATOM    109   O  IDS B   6      32.948  24.953  26.7510  0.00  0.00     0.000 O
ATOM    111  HD  IDS B   6      32.697  24.258  26.3000  0.00  0.00     0.000 HD
BRANCH 104 111
ATOM    111   O  IDS B   6      35.944  24.822  24.7810  0.00  0.00     0.000 O
ATOM    112   S  IDS B   6      35.974  25.641  23.4050  0.00  0.00     0.000 S
ATOM    113   O  IDS B   6      35.469  24.706  22.4120  0.00  0.00     0.000 OA
ATOM    114   O  IDS B   6      35.168  26.855  23.5700  0.00  0.00     0.000 OA
ATOM    115   O  IDS B   6      37.397  25.886  23.3110  0.00  0.00     0.000 OA
ENDBRANCH 104 111
BRANCH 107 116
ATOM    116   C  IDS B   6      35.887  22.384  28.8490  0.00  0.00     0.000 C
ATOM    117   O  IDS B   6      35.385  22.485  29.9400  0.00  0.00     0.000 OA
ATOM    118   O  IDS B   6      36.987  21.878  28.6890  0.00  0.00     0.000 OA
ENDBRANCH 107 116
BRANCH 103 119
ATOM    119  O4  SGN B   7      33.476  22.335  25.3330  0.00  0.00     0.000 O
BRANCH 119 123
ATOM    120  C1  SGN B   7      31.468  18.788  24.3990  0.00  0.00     0.000 C
ATOM    121  C2  SGN B   7      32.161  18.875  25.7720  0.00  0.00     0.000 C
ATOM    122  C3  SGN B   7      32.488  20.333  26.1180  0.00  0.00     0.000 C
ATOM    123  C4  SGN B   7      33.283  20.964  24.9860  0.00  0.00     0.000 C
ATOM    124  C5  SGN B   7      32.512  20.819  23.6640  0.00  0.00     0.000 C
ATOM    125  O5  SGN B   7      32.227  19.432  23.3770  0.00  0.00     0.000 O
ATOM    126   O  SGN B   7      33.218  20.367  27.3500  0.00  0.00     0.000 O
ATOM    128  HD  SGN B   7      32.751  19.907  26.7840  0.00  0.00     0.000 HD
BRANCH 121 130
ATOM    128   N  SGN B   7      31.405  17.640  25.9950  0.00  0.00     0.000 N
ATOM    130  HD  SGN B   7      32.122  17.170  25.8720  0.00  0.00     0.000 HD
ATOM    130   S  SGN B   7      31.558  16.770  27.3420  0.00  0.00     0.000 S
ATOM    131   O  SGN B   7      31.400  17.701  28.4060  0.00  0.00     0.000 OA
ATOM    132   O  SGN B   7      30.704  15.642  27.2430  0.00  0.00     0.000 OA
ATOM    133   O  SGN B   7      33.000  16.193  27.1410  0.00  0.00     0.000 OA
ENDBRANCH 121 130
BRANCH 124 134
ATOM    134   C  SGN B   7      33.268  21.310  22.4640  0.00  0.00     0.000 C
ATOM    135   O  SGN B   7      34.271  20.337  22.1250  0.00  0.00     0.000 O
ATOM    136   S  SGN B   7      35.073  20.592  20.7990  0.00  0.00     0.000 S
ATOM    137   O  SGN B   7      36.077  19.558  20.7270  0.00  0.00     0.000 OA
ATOM    138   O  SGN B   7      35.636  21.915  20.9460  0.00  0.00     0.000 OA
ATOM    139   O  SGN B   7      34.039  20.486  19.7820  0.00  0.00     0.000 OA
ENDBRANCH 124 134
BRANCH 120 140
ATOM    140  O4  IDS B   8      30.250  19.227  24.0630  0.00  0.00     0.000 O
BRANCH 140 144
ATOM    141  C1  IDS B   8      26.842  19.737  23.0190  0.00  0.00     0.000 C
ATOM    142  C2  IDS B   8      28.009  20.515  22.3480  0.00  0.00     0.000 C
ATOM    143  C3  IDS B   8      28.971  21.158  23.3650  0.00  0.00     0.000 C
ATOM    144  C4  IDS B   8      29.307  20.208  24.5140  0.00  0.00     0.000 C
ATOM    145  C5  IDS B   8      28.032  19.520  25.0220  0.00  0.00     0.000 C
ATOM    146  O5  IDS B   8      27.357  18.822  23.9780  0.00  0.00     0.000 O
BRANCH 142 147
ATOM    147   O  IDS B   8      28.811  19.583  21.5130  0.00  0.00     0.000 O
ATOM    148   S  IDS B   8      29.334  20.019  20.0400  0.00  0.00     0.000 S
ATOM    149   O  IDS B   8      28.573  21.178  19.6300  0.00  0.00     0.000 OA
ATOM    150   O  IDS B   8      30.748  20.302  20.1990  0.00  0.00     0.000 OA
ATOM    151   O  IDS B   8      29.075  18.873  19.1890  0.00  0.00     0.000 OA
ENDBRANCH 142 147
BRANCH 145 152
ATOM    152   C  IDS B   8      28.314  18.490  26.0980  0.00  0.00     0.000 C
ATOM    153   O  IDS B   8      28.236  17.297  25.8270  0.00  0.00     0.000 OA
ATOM    154   O  IDS B   8      28.635  18.858  27.2140  0.00  0.00     0.000 OA
ENDBRANCH 145 152
ENDBRANCH 140 144
ENDBRANCH 120 140
ENDBRANCH 119 123
ENDBRANCH 103 119
ENDBRANCH 102 106
ENDBRANCH 82 102
ENDBRANCH 81 85
ENDBRANCH 65 81
ENDBRANCH 64 68
ENDBRANCH 41 64
ENDBRANCH 40 44
ENDBRANCH 24 40
ENDBRANCH 23 27
ENDBRANCH 1 23
TORSDOF 31
ENDMDL
MODEL 99
REMARK VINA RESULT:       0.2     21.560     27.363
ROOT
ATOM      1  C1  SGN B   1      49.028  21.495  44.3990  0.00  0.00     0.000 C
ATOM      2  C2  SGN B   1      49.507  22.801  45.0540  0.00  0.00     0.000 C
ATOM      3  C3  SGN B   1      49.632  22.633  46.5720  0.00  0.00     0.000 C
ATOM      4  C4  SGN B   1      48.309  22.152  47.1590  0.00  0.00     0.000 C
ATOM      5  C5  SGN B   1      47.825  20.939  46.3700  0.00  0.00     0.000 C
ATOM      6  O5  SGN B   1      47.746  21.274  44.9710  0.00  0.00     0.000 O
ATOM      7   O  SGN B   1      50.033  23.856  47.1790  0.00  0.00     0.000 O
ATOM      9  HD  SGN B   1      49.279  24.078  46.8160  0.00  0.00     0.000 HD
ATOM      9   O  SGN B   1      48.496  21.807  48.5200  0.00  0.00     0.000 O
ATOM     11  HD  SGN B   1      47.742  22.029  48.1560  0.00  0.00     0.000 HD
ENDROOT
BRANCH 2 13
ATOM     11   N  SGN B   1      49.692  23.748  43.9380  0.00  0.00     0.000 N
ATOM     13  HD  SGN B   1      50.015  22.946  43.8920  0.00  0.00     0.000 HD
ATOM     13   S  SGN B   1      50.957  23.672  42.9470  0.00  0.00     0.000 S
ATOM     14   O  SGN B   1      51.773  22.572  43.2850  0.00  0.00     0.000 OA
ATOM     15   O  SGN B   1      50.489  23.811  41.6090  0.00  0.00     0.000 OA
ATOM     16   O  SGN B   1      51.631  25.022  43.3410  0.00  0.00     0.000 OA
ENDBRANCH 2 13
BRANCH 5 17
ATOM     17   C  SGN B   1      46.465  20.436  46.7880  0.00  0.00     0.000 C
ATOM     18   O  SGN B   1      45.547  21.532  46.9760  0.00  0.00     0.000 O
ATOM     19   S  SGN B   1      44.647  21.475  48.2970  0.00  0.00     0.000 S
ATOM     20   O  SGN B   1      43.672  22.532  48.1320  0.00  0.00     0.000 OA
ATOM     21   O  SGN B   1      44.074  20.150  48.2760  0.00  0.00     0.000 OA
ATOM     22   O  SGN B   1      45.567  21.701  49.3900  0.00  0.00     0.000 OA
ENDBRANCH 5 17
BRANCH 1 23
ATOM     23  O4  IDS B   2      49.522  20.344  43.8590  0.00  0.00     0.000 O
BRANCH 23 27
ATOM     24  C1  IDS B   2      46.398  18.026  42.4110  0.00  0.00     0.000 C
ATOM     25  C2  IDS B   2      47.366  17.311  43.3790  0.00  0.00     0.000 C
ATOM     26  C3  IDS B   2      48.284  18.314  44.0730  0.00  0.00     0.000 C
ATOM     27  C4  IDS B   2      49.050  19.207  43.1070  0.00  0.00     0.000 C
ATOM     28  C5  IDS B   2      48.158  19.565  41.9010  0.00  0.00     0.000 C
ATOM     29  O5  IDS B   2      46.785  19.393  42.2160  0.00  0.00     0.000 O
ATOM     30   O  IDS B   2      49.239  17.610  44.8580  0.00  0.00     0.000 O
ATOM     32  HD  IDS B   2      49.894  17.289  44.3910  0.00  0.00     0.000 HD
BRANCH 25 32
ATOM     32   O  IDS B   2      46.649  16.555  44.4340  0.00  0.00     0.000 O
ATOM     33   S  IDS B   2      46.799  14.919  44.5890  0.00  0.00     0.000 S
ATOM     34   O  IDS B   2      45.796  14.510  45.5610  0.00  0.00     0.000 OA
ATOM     35   O  IDS B   2      46.575  14.288  43.2960  0.00  0.00     0.000 OA
ATOM     36   O  IDS B   2      48.136  14.695  45.0870  0.00  0.00     0.000 OA
ENDBRANCH 25 32
BRANCH 28 37
ATOM     37   C  IDS B   2      48.338  20.957  41.2600  0.00  0.00     0.000 C
ATOM     38   O  IDS B   2      49.327  21.030  40.5700  0.00  0.00     0.000 OA
ATOM     39   O  IDS B   2      47.553  21.933  41.3430  0.00  0.00     0.000 OA
ENDBRANCH 28 37
BRANCH 24 40
ATOM     40  O4  SUS B   3      45.551  17.302  41.6510  0.00  0.00     0.000 O
BRANCH 40 44
ATOM     41  C1  SUS B   3      41.668  18.167  40.3390  0.00  0.00     0.000 C
ATOM     42  C2  SUS B   3      42.812  19.031  39.7720  0.00  0.00     0.000 C
ATOM     43  C3  SUS B   3      44.138  18.297  39.9610  0.00  0.00     0.000 C
ATOM     44  C4  SUS B   3      44.299  17.944  41.4310  0.00  0.00     0.000 C
ATOM     45  C5  SUS B   3      43.169  17.023  41.8420  0.00  0.00     0.000 C
ATOM     46  O5  SUS B   3      41.926  17.736  41.6790  0.00  0.00     0.000 O
BRANCH 42 49
ATOM     47   N  SUS B   3      42.366  19.375  38.4110  0.00  0.00     0.000 N
ATOM     49  HD  SUS B   3      42.865  19.100  37.7590  0.00  0.00     0.000 HD
ATOM     49   S  SUS B   3      42.117  20.946  38.2200  0.00  0.00     0.000 S
ATOM     50   O  SUS B   3      43.295  21.658  38.5260  0.00  0.00     0.000 OA
ATOM     51   O  SUS B   3      41.885  20.906  36.6880  0.00  0.00     0.000 OA
ATOM     52   O  SUS B   3      40.937  21.317  38.8930  0.00  0.00     0.000 OA
ENDBRANCH 42 49
BRANCH 43 53
ATOM     53   O  SUS B   3      45.224  19.202  39.5390  0.00  0.00     0.000 O
ATOM     54   S  SUS B   3      46.034  18.813  38.1630  0.00  0.00     0.000 S
ATOM     55   O  SUS B   3      45.131  19.046  37.0450  0.00  0.00     0.000 OA
ATOM     56   O  SUS B   3      47.191  19.690  38.1750  0.00  0.00     0.000 OA
ATOM     57   O  SUS B   3      46.384  17.393  38.2760  0.00  0.00     0.000 OA
ENDBRANCH 43 53
BRANCH 45 58
ATOM     58   C  SUS B   3      43.316  16.547  43.2700  0.00  0.00     0.000 C
ATOM     59   S  SUS B   3      42.852  17.233  45.7000  0.00  0.00     0.000 S
ATOM     60   O  SUS B   3      42.625  17.452  44.1480  0.00  0.00     0.000 O
ATOM     61   O  SUS B   3      44.157  17.804  45.9760  0.00  0.00     0.000 OA
ATOM     62   O  SUS B   3      41.775  18.017  46.2410  0.00  0.00     0.000 OA
ATOM     63   O  SUS B   3      42.747  15.831  45.9040  0.00  0.00     0.000 OA
ENDBRANCH 45 58
BRANCH 41 64
ATOM     64  O4  IDS B   4      41.261  17.164  39.4940  0.00  0.00     0.000 O
BRANCH 64 68
ATOM     65  C1  IDS B   4      39.147  14.811  37.6840  0.00  0.00     0.000 C
ATOM     66  C2  IDS B   4      39.430  16.202  37.1010  0.00  0.00     0.000 C
ATOM     67  C3  IDS B   4      39.276  17.342  38.0940  0.00  0.00     0.000 C
ATOM     68  C4  IDS B   4      39.825  17.006  39.4680  0.00  0.00     0.000 C
ATOM     69  C5  IDS B   4      39.360  15.590  39.8340  0.00  0.00     0.000 C
ATOM     70  O5  IDS B   4      39.885  14.661  38.8840  0.00  0.00     0.000 O
ATOM     71   O  IDS B   4      37.897  17.633  38.1890  0.00  0.00     0.000 O
ATOM     73  HD  IDS B   4      38.608  17.295  37.8270  0.00  0.00     0.000 HD
BRANCH 66 73
ATOM     73   O  IDS B   4      40.831  16.254  36.6600  0.00  0.00     0.000 O
ATOM     74   S  IDS B   4      41.125  16.236  35.0690  0.00  0.00     0.000 S
ATOM     75   O  IDS B   4      40.496  15.041  34.5490  0.00  0.00     0.000 OA
ATOM     76   O  IDS B   4      42.566  16.202  35.0360  0.00  0.00     0.000 OA
ATOM     77   O  IDS B   4      40.548  17.455  34.5570  0.00  0.00     0.000 OA
ENDBRANCH 66 73
BRANCH 69 78
ATOM     78   C  IDS B   4      39.643  15.187  41.2750  0.00  0.00     0.000 C
ATOM     79   O  IDS B   4      38.779  15.391  42.1270  0.00  0.00     0.000 OA
ATOM     80   O  IDS B   4      40.695  14.570  41.5250  0.00  0.00     0.000 OA
ENDBRANCH 69 78
BRANCH 65 81
ATOM     81  O4  SGN B   5      37.801  14.619  37.7640  0.00  0.00     0.000 O
BRANCH 81 85
ATOM     82  C1  SGN B   5      34.742  11.806  37.1610  0.00  0.00     0.000 C
ATOM     83  C2  SGN B   5      35.657  11.592  38.3760  0.00  0.00     0.000 C
ATOM     84  C3  SGN B   5      36.381  12.904  38.7110  0.00  0.00     0.000 C
ATOM     85  C4  SGN B   5      37.126  13.392  37.4810  0.00  0.00     0.000 C
ATOM     86  C5  SGN B   5      36.115  13.589  36.3540  0.00  0.00     0.000 C
ATOM     87  O5  SGN B   5      35.484  12.325  36.0740  0.00  0.00     0.000 O
ATOM     88   O  SGN B   5      37.266  12.701  39.7910  0.00  0.00     0.000 O
ATOM     90  HD  SGN B   5      36.488  13.077  39.8430  0.00  0.00     0.000 HD
BRANCH 83 92
ATOM     90   N  SGN B   5      34.697  10.479  38.5090  0.00  0.00     0.000 N
ATOM     92  HD  SGN B   5      34.548  10.104  37.7420  0.00  0.00     0.000 HD
ATOM     92   S  SGN B   5      34.885   9.466  39.7310  0.00  0.00     0.000 S
ATOM     93   O  SGN B   5      33.821   8.520  39.5740  0.00  0.00     0.000 OA
ATOM     94   O  SGN B   5      36.239   9.033  39.6690  0.00  0.00     0.000 OA
ATOM     95   O  SGN B   5      34.741  10.325  40.9680  0.00  0.00     0.000 OA
ENDBRANCH 83 92
BRANCH 86 96
ATOM     96   C  SGN B   5      36.719  14.089  35.0590  0.00  0.00     0.000 C
ATOM     97   O  SGN B   5      35.867  15.064  34.4510  0.00  0.00     0.000 O
ATOM     98   S  SGN B   5      36.565  16.443  34.0240  0.00  0.00     0.000 S
ATOM     99   O  SGN B   5      35.525  17.108  33.2770  0.00  0.00     0.000 OA
ATOM    100   O  SGN B   5      36.959  17.108  35.2140  0.00  0.00     0.000 OA
ATOM    101   O  SGN B   5      37.673  16.045  33.2170  0.00  0.00     0.000 OA
ENDBRANCH 86 96
BRANCH 82 102
ATOM    102  O4  IDS B   6      33.680  12.613  37.4400  0.00  0.00     0.000 O
BRANCH 102 106
ATOM    103  C1  IDS B   6      30.131  13.197  38.0060  0.00  0.00     0.000 C
ATOM    104  C2  IDS B   6      30.803  11.905  38.4970  0.00  0.00     0.000 C
ATOM    105  C3  IDS B   6      31.688  11.213  37.4780  0.00  0.00     0.000 C
ATOM    106  C4  IDS B   6      32.526  12.189  36.6710  0.00  0.00     0.000 C
ATOM    107  C5  IDS B   6      31.670  13.392  36.2630  0.00  0.00     0.000 C
ATOM    108  O5  IDS B   6      31.089  14.040  37.3960  0.00  0.00     0.000 O
ATOM    109   O  IDS B   6      30.859  10.438  36.6290  0.00  0.00     0.000 O
ATOM    111  HD  IDS B   6      30.081  10.813  36.6970  0.00  0.00     0.000 HD
BRANCH 104 111
ATOM    111   O  IDS B   6      31.689  12.226  39.6270  0.00  0.00     0.000 O
ATOM    112   S  IDS B   6      31.290  11.678  41.0770  0.00  0.00     0.000 S
ATOM    113   O  IDS B   6      29.972  12.239  41.3300  0.00  0.00     0.000 OA
ATOM    114   O  IDS B   6      31.336  10.211  41.0470  0.00  0.00     0.000 OA
ATOM    115   O  IDS B   6      32.346  12.285  41.8560  0.00  0.00     0.000 OA
ENDBRANCH 104 111
BRANCH 107 116
ATOM    116   C  IDS B   6      32.529  14.381  35.4850  0.00  0.00     0.000 C
ATOM    117   O  IDS B   6      32.827  15.402  36.0510  0.00  0.00     0.000 OA
ATOM    118   O  IDS B   6      32.887  14.149  34.3410  0.00  0.00     0.000 OA
ENDBRANCH 107 116
BRANCH 103 119
ATOM    119  O4  SGN B   7      29.043  12.754  37.3240  0.00  0.00     0.000 O
BRANCH 119 123
ATOM    120  C1  SGN B   7      25.185  14.199  36.6060  0.00  0.00     0.000 C
ATOM    121  C2  SGN B   7      26.270  14.509  35.5570  0.00  0.00     0.000 C
ATOM    122  C3  SGN B   7      27.486  13.594  35.7540  0.00  0.00     0.000 C
ATOM    123  C4  SGN B   7      27.973  13.689  37.1900  0.00  0.00     0.000 C
ATOM    124  C5  SGN B   7      26.820  13.370  38.1550  0.00  0.00     0.000 C
ATOM    125  O5  SGN B   7      25.699  14.255  37.9360  0.00  0.00     0.000 O
ATOM    126   O  SGN B   7      28.510  13.975  34.8290  0.00  0.00     0.000 O
ATOM    128  HD  SGN B   7      27.688  14.053  35.0880  0.00  0.00     0.000 HD
BRANCH 121 130
ATOM    128   N  SGN B   7      25.104  14.973  34.8010  0.00  0.00     0.000 N
ATOM    130  HD  SGN B   7      25.324  15.796  34.9530  0.00  0.00     0.000 HD
ATOM    130   S  SGN B   7      25.236  15.635  33.3390  0.00  0.00     0.000 S
ATOM    131   O  SGN B   7      26.042  14.731  32.5920  0.00  0.00     0.000 OA
ATOM    132   O  SGN B   7      23.936  15.980  32.8860  0.00  0.00     0.000 OA
ATOM    133   O  SGN B   7      25.902  17.004  33.7100  0.00  0.00     0.000 OA
ENDBRANCH 121 130
BRANCH 124 134
ATOM    134   C  SGN B   7      27.172  13.550  39.6020  0.00  0.00     0.000 C
ATOM    135   O  SGN B   7      25.959  13.531  40.3750  0.00  0.00     0.000 O
ATOM    136   S  SGN B   7      26.124  13.552  41.9370  0.00  0.00     0.000 S
ATOM    137   O  SGN B   7      24.791  13.633  42.4840  0.00  0.00     0.000 OA
ATOM    138   O  SGN B   7      26.922  14.723  42.2180  0.00  0.00     0.000 OA
ATOM    139   O  SGN B   7      26.795  12.288  42.1980  0.00  0.00     0.000 OA
ENDBRANCH 124 134
BRANCH 120 140
ATOM    140  O4  IDS B   8      24.440  13.094  36.7160  0.00  0.00     0.000 O
BRANCH 140 144
ATOM    141  C1  IDS B   8      21.959  10.485  36.7180  0.00  0.00     0.000 C
ATOM    142  C2  IDS B   8      21.760  11.778  37.5600  0.00  0.00     0.000 C
ATOM    143  C3  IDS B   8      22.994  12.142  38.4060  0.00  0.00     0.000 C
ATOM    144  C4  IDS B   8      24.294  11.990  37.6180  0.00  0.00     0.000 C
ATOM    145  C5  IDS B   8      24.289  10.667  36.8370  0.00  0.00     0.000 C
ATOM    146  O5  IDS B   8      23.163  10.574  35.9670  0.00  0.00     0.000 O
BRANCH 142 147
ATOM    147   O  IDS B   8      21.495  12.925  36.6520  0.00  0.00     0.000 O
ATOM    148   S  IDS B   8      20.017  13.584  36.5480  0.00  0.00     0.000 S
ATOM    149   O  IDS B   8      19.078  12.649  37.1260  0.00  0.00     0.000 OA
ATOM    150   O  IDS B   8      20.096  14.830  37.2870  0.00  0.00     0.000 OA
ATOM    151   O  IDS B   8      19.784  13.777  35.1290  0.00  0.00     0.000 OA
ENDBRANCH 142 147
BRANCH 145 152
ATOM    152   C  IDS B   8      25.511  10.505  35.9560  0.00  0.00     0.000 C
ATOM    153   O  IDS B   8      26.592  10.232  36.4670  0.00  0.00     0.000 OA
ATOM    154   O  IDS B   8      25.404  10.625  34.7490  0.00  0.00     0.000 OA
ENDBRANCH 145 152
ENDBRANCH 140 144
ENDBRANCH 120 140
ENDBRANCH 119 123
ENDBRANCH 103 119
ENDBRANCH 102 106
ENDBRANCH 82 102
ENDBRANCH 81 85
ENDBRANCH 65 81
ENDBRANCH 64 68
ENDBRANCH 41 64
ENDBRANCH 40 44
ENDBRANCH 24 40
ENDBRANCH 23 27
ENDBRANCH 1 23
TORSDOF 31
ENDMDL
MODEL 100
REMARK VINA RESULT:       0.4     24.096     33.983
ROOT
ATOM      1  C1  SGN B   1      55.258  26.104  32.0710  0.00  0.00     0.000 C
ATOM      2  C2  SGN B   1      56.599  26.670  31.5750  0.00  0.00     0.000 C
ATOM      3  C3  SGN B   1      56.865  26.247  30.1260  0.00  0.00     0.000 C
ATOM      4  C4  SGN B   1      56.805  24.728  30.0020  0.00  0.00     0.000 C
ATOM      5  C5  SGN B   1      55.513  24.225  30.6410  0.00  0.00     0.000 C
ATOM      6  O5  SGN B   1      55.432  24.696  32.0000  0.00  0.00     0.000 O
ATOM      7   O  SGN B   1      58.126  26.735  29.6860  0.00  0.00     0.000 O
ATOM      9  HD  SGN B   1      58.356  26.226  30.3480  0.00  0.00     0.000 HD
ATOM      9   O  SGN B   1      56.847  24.366  28.6340  0.00  0.00     0.000 O
ATOM     11  HD  SGN B   1      57.077  23.857  29.2960  0.00  0.00     0.000 HD
ENDROOT
BRANCH 2 13
ATOM     11   N  SGN B   1      57.092  27.423  32.7440  0.00  0.00     0.000 N
ATOM     13  HD  SGN B   1      56.293  27.558  32.4380  0.00  0.00     0.000 HD
ATOM     13   S  SGN B   1      56.560  28.899  33.1010  0.00  0.00     0.000 S
ATOM     14   O  SGN B   1      55.563  29.291  32.1840  0.00  0.00     0.000 OA
ATOM     15   O  SGN B   1      56.286  28.953  34.4980  0.00  0.00     0.000 OA
ATOM     16   O  SGN B   1      57.889  29.679  32.8620  0.00  0.00     0.000 OA
ENDBRANCH 2 13
BRANCH 5 17
ATOM     17   C  SGN B   1      55.390  22.722  30.6770  0.00  0.00     0.000 C
ATOM     18   O  SGN B   1      54.006  22.319  30.6940  0.00  0.00     0.000 O
ATOM     19   S  SGN B   1      53.622  21.175  31.7440  0.00  0.00     0.000 S
ATOM     20   O  SGN B   1      52.268  20.793  31.4040  0.00  0.00     0.000 OA
ATOM     21   O  SGN B   1      54.594  20.134  31.5020  0.00  0.00     0.000 OA
ATOM     22   O  SGN B   1      53.740  21.799  33.0430  0.00  0.00     0.000 OA
ENDBRANCH 5 17
BRANCH 1 23
ATOM     23  O4  IDS B   2      53.934  26.427  32.1240  0.00  0.00     0.000 O
BRANCH 23 27
ATOM     24  C1  IDS B   2      51.799  25.805  28.6190  0.00  0.00     0.000 C
ATOM     25  C2  IDS B   2      52.529  27.162  28.7240  0.00  0.00     0.000 C
ATOM     26  C3  IDS B   2      53.509  27.166  29.8940  0.00  0.00     0.000 C
ATOM     27  C4  IDS B   2      52.868  26.796  31.2250  0.00  0.00     0.000 C
ATOM     28  C5  IDS B   2      51.806  25.698  31.0100  0.00  0.00     0.000 C
ATOM     29  O5  IDS B   2      52.028  25.009  29.7900  0.00  0.00     0.000 O
ATOM     30   O  IDS B   2      54.067  28.467  30.0330  0.00  0.00     0.000 O
ATOM     32  HD  IDS B   2      53.539  29.024  30.4350  0.00  0.00     0.000 HD
BRANCH 25 32
ATOM     32   O  IDS B   2      53.296  27.482  27.4950  0.00  0.00     0.000 O
ATOM     33   S  IDS B   2      52.951  28.806  26.5720  0.00  0.00     0.000 S
ATOM     34   O  IDS B   2      53.740  28.670  25.3580  0.00  0.00     0.000 OA
ATOM     35   O  IDS B   2      51.525  28.834  26.2800  0.00  0.00     0.000 OA
ATOM     36   O  IDS B   2      53.376  29.946  27.3510  0.00  0.00     0.000 OA
ENDBRANCH 25 32
BRANCH 28 37
ATOM     37   C  IDS B   2      51.613  24.654  32.1300  0.00  0.00     0.000 C
ATOM     38   O  IDS B   2      51.036  23.663  31.7490  0.00  0.00     0.000 OA
ATOM     39   O  IDS B   2      52.039  24.723  33.3080  0.00  0.00     0.000 OA
ENDBRANCH 28 37
BRANCH 24 40
ATOM     40  O4  SUS B   3      50.840  25.627  27.6870  0.00  0.00     0.000 O
BRANCH 40 44
ATOM     41  C1  SUS B   3      49.773  22.208  25.5140  0.00  0.00     0.000 C
ATOM     42  C2  SUS B   3      49.371  22.252  27.0020  0.00  0.00     0.000 C
ATOM     43  C3  SUS B   3      49.396  23.699  27.4870  0.00  0.00     0.000 C
ATOM     44  C4  SUS B   3      50.767  24.291  27.2000  0.00  0.00     0.000 C
ATOM     45  C5  SUS B   3      51.004  24.275  25.7040  0.00  0.00     0.000 C
ATOM     46  O5  SUS B   3      51.000  22.902  25.2620  0.00  0.00     0.000 O
BRANCH 42 49
ATOM     47   N  SUS B   3      49.518  20.803  27.2220  0.00  0.00     0.000 N
ATOM     49  HD  SUS B   3      49.717  20.324  26.5280  0.00  0.00     0.000 HD
ATOM     49   S  SUS B   3      48.234  20.151  27.9240  0.00  0.00     0.000 S
ATOM     50   O  SUS B   3      47.085  20.398  27.1450  0.00  0.00     0.000 OA
ATOM     51   O  SUS B   3      48.682  18.674  27.7830  0.00  0.00     0.000 OA
ATOM     52   O  SUS B   3      48.198  20.534  29.2790  0.00  0.00     0.000 OA
ENDBRANCH 42 49
BRANCH 43 53
ATOM     53   O  SUS B   3      49.146  23.695  28.9420  0.00  0.00     0.000 O
ATOM     54   S  SUS B   3      47.754  24.395  29.4650  0.00  0.00     0.000 S
ATOM     55   O  SUS B   3      46.654  23.527  29.0690  0.00  0.00     0.000 OA
ATOM     56   O  SUS B   3      47.930  24.498  30.9020  0.00  0.00     0.000 OA
ATOM     57   O  SUS B   3      47.668  25.698  28.7980  0.00  0.00     0.000 OA
ENDBRANCH 43 53
BRANCH 45 58
ATOM     58   C  SUS B   3      52.310  24.941  25.3290  0.00  0.00     0.000 C
ATOM     59   S  SUS B   3      54.839  24.528  25.2020  0.00  0.00     0.000 S
ATOM     60   O  SUS B   3      53.367  23.967  25.3560  0.00  0.00     0.000 O
ATOM     61   O  SUS B   3      55.176  25.074  26.5030  0.00  0.00     0.000 OA
ATOM     62   O  SUS B   3      55.557  23.318  24.9040  0.00  0.00     0.000 OA
ATOM     63   O  SUS B   3      54.777  25.474  24.1440  0.00  0.00     0.000 OA
ENDBRANCH 45 58
BRANCH 41 64
ATOM     64  O4  IDS B   4      48.754  22.540  24.6550  0.00  0.00     0.000 O
BRANCH 64 68
ATOM     65  C1  IDS B   4      46.590  22.532  21.7240  0.00  0.00     0.000 C
ATOM     66  C2  IDS B   4      46.666  21.297  22.6310  0.00  0.00     0.000 C
ATOM     67  C3  IDS B   4      48.079  20.881  23.0060  0.00  0.00     0.000 C
ATOM     68  C4  IDS B   4      48.981  22.062  23.3110  0.00  0.00     0.000 C
ATOM     69  C5  IDS B   4      48.747  23.131  22.2350  0.00  0.00     0.000 C
ATOM     70  O5  IDS B   4      47.384  23.561  22.2860  0.00  0.00     0.000 O
ATOM     71   O  IDS B   4      48.603  20.148  21.9180  0.00  0.00     0.000 O
ATOM     73  HD  IDS B   4      47.977  20.507  22.3970  0.00  0.00     0.000 HD
BRANCH 66 73
ATOM     73   O  IDS B   4      45.997  21.602  23.9030  0.00  0.00     0.000 O
ATOM     74   S  IDS B   4      44.678  20.749  24.2890  0.00  0.00     0.000 S
ATOM     75   O  IDS B   4      43.745  20.921  23.1960  0.00  0.00     0.000 OA
ATOM     76   O  IDS B   4      44.266  21.381  25.5170  0.00  0.00     0.000 OA
ATOM     77   O  IDS B   4      45.131  19.387  24.4450  0.00  0.00     0.000 OA
ENDBRANCH 66 73
BRANCH 69 78
ATOM     78   C  IDS B   4      49.735  24.289  22.2730  0.00  0.00     0.000 C
ATOM     79   O  IDS B   4      49.329  25.401  22.6070  0.00  0.00     0.000 OA
ATOM     80   O  IDS B   4      50.939  24.051  22.0690  0.00  0.00     0.000 OA
ENDBRANCH 69 78
BRANCH 65 81
ATOM     81  O4  SGN B   5      46.871  22.171  20.4420  0.00  0.00     0.000 O
BRANCH 81 85
ATOM     82  C1  SGN B   5      45.786  22.792  16.4320  0.00  0.00     0.000 C
ATOM     83  C2  SGN B   5      46.323  24.005  17.2060  0.00  0.00     0.000 C
ATOM     84  C3  SGN B   5      47.087  23.525  18.4480  0.00  0.00     0.000 C
ATOM     85  C4  SGN B   5      46.178  22.640  19.2830  0.00  0.00     0.000 C
ATOM     86  C5  SGN B   5      45.730  21.463  18.4190  0.00  0.00     0.000 C
ATOM     87  O5  SGN B   5      45.005  21.974  17.2830  0.00  0.00     0.000 O
ATOM     88   O  SGN B   5      47.535  24.636  19.1940  0.00  0.00     0.000 O
ATOM     90  HD  SGN B   5      48.024  24.156  18.6650  0.00  0.00     0.000 HD
BRANCH 83 92
ATOM     90   N  SGN B   5      46.038  24.585  15.8790  0.00  0.00     0.000 N
ATOM     92  HD  SGN B   5      45.249  24.357  15.6030  0.00  0.00     0.000 HD
ATOM     92   S  SGN B   5      46.425  26.115  15.6280  0.00  0.00     0.000 S
ATOM     93   O  SGN B   5      46.022  26.366  14.2770  0.00  0.00     0.000 OA
ATOM     94   O  SGN B   5      45.833  26.844  16.6960  0.00  0.00     0.000 OA
ATOM     95   O  SGN B   5      47.925  26.168  15.8220  0.00  0.00     0.000 OA
ENDBRANCH 83 92
BRANCH 86 96
ATOM     96   C  SGN B   5      44.821  20.482  19.1300  0.00  0.00     0.000 C
ATOM     97   O  SGN B   5      43.694  21.158  19.6920  0.00  0.00     0.000 O
ATOM     98   S  SGN B   5      42.255  20.541  19.3450  0.00  0.00     0.000 S
ATOM     99   O  SGN B   5      41.371  21.296  20.2000  0.00  0.00     0.000 OA
ATOM    100   O  SGN B   5      42.036  20.727  17.9550  0.00  0.00     0.000 OA
ATOM    101   O  SGN B   5      42.360  19.167  19.7120  0.00  0.00     0.000 OA
ENDBRANCH 86 96
BRANCH 82 102
ATOM    102  O4  IDS B   6      46.777  22.061  15.8490  0.00  0.00     0.000 O
BRANCH 102 106
ATOM    103  C1  IDS B   6      48.552  20.606  13.0220  0.00  0.00     0.000 C
ATOM    104  C2  IDS B   6      48.025  22.048  12.9610  0.00  0.00     0.000 C
ATOM    105  C3  IDS B   6      46.593  22.230  13.4270  0.00  0.00     0.000 C
ATOM    106  C4  IDS B   6      46.268  21.405  14.6590  0.00  0.00     0.000 C
ATOM    107  C5  IDS B   6      46.863  20.002  14.5140  0.00  0.00     0.000 C
ATOM    108  O5  IDS B   6      48.273  20.041  14.2890  0.00  0.00     0.000 O
ATOM    109   O  IDS B   6      45.733  21.890  12.3520  0.00  0.00     0.000 O
ATOM    111  HD  IDS B   6      46.216  21.370  11.8550  0.00  0.00     0.000 HD
BRANCH 104 111
ATOM    111   O  IDS B   6      48.834  22.892  13.8550  0.00  0.00     0.000 O
ATOM    112   S  IDS B   6      49.635  24.119  13.2110  0.00  0.00     0.000 S
ATOM    113   O  IDS B   6      50.504  23.508  12.2170  0.00  0.00     0.000 OA
ATOM    114   O  IDS B   6      48.663  25.076  12.6700  0.00  0.00     0.000 OA
ATOM    115   O  IDS B   6      50.331  24.588  14.3900  0.00  0.00     0.000 OA
ENDBRANCH 104 111
BRANCH 107 116
ATOM    116   C  IDS B   6      46.562  19.195  15.7710  0.00  0.00     0.000 C
ATOM    117   O  IDS B   6      47.499  18.923  16.4780  0.00  0.00     0.000 OA
ATOM    118   O  IDS B   6      45.427  18.835  16.0380  0.00  0.00     0.000 OA
ENDBRANCH 107 116
BRANCH 103 119
ATOM    119  O4  SGN B   7      48.081  20.044  11.8790  0.00  0.00     0.000 O
BRANCH 119 123
ATOM    120  C1  SGN B   7      49.278  16.887   9.4120  0.00  0.00     0.000 C
ATOM    121  C2  SGN B   7      48.216  16.589  10.4860  0.00  0.00     0.000 C
ATOM    122  C3  SGN B   7      47.605  17.893  11.0150  0.00  0.00     0.000 C
ATOM    123  C4  SGN B   7      48.710  18.825  11.4840  0.00  0.00     0.000 C
ATOM    124  C5  SGN B   7      49.719  19.053  10.3460  0.00  0.00     0.000 C
ATOM    125  O5  SGN B   7      50.269  17.800   9.8810  0.00  0.00     0.000 O
ATOM    126   O  SGN B   7      46.696  17.585  12.0780  0.00  0.00     0.000 O
ATOM    128  HD  SGN B   7      47.194  17.299  11.4290  0.00  0.00     0.000 HD
BRANCH 121 130
ATOM    128   N  SGN B   7      48.300  15.234   9.9350  0.00  0.00     0.000 N
ATOM    130  HD  SGN B   7      48.491  14.919  10.7190  0.00  0.00     0.000 HD
ATOM    130   S  SGN B   7      47.170  14.121  10.2140  0.00  0.00     0.000 S
ATOM    131   O  SGN B   7      45.936  14.758   9.9000  0.00  0.00     0.000 OA
ATOM    132   O  SGN B   7      47.548  12.925   9.5510  0.00  0.00     0.000 OA
ATOM    133   O  SGN B   7      47.428  13.832  11.7310  0.00  0.00     0.000 OA
ENDBRANCH 121 130
BRANCH 124 134
ATOM    134   C  SGN B   7      50.912  19.869  10.7470  0.00  0.00     0.000 C
ATOM    135   O  SGN B   7      51.724  19.086  11.6390  0.00  0.00     0.000 O
ATOM    136   S  SGN B   7      53.105  19.707  12.0560  0.00  0.00     0.000 S
ATOM    137   O  SGN B   7      53.682  18.802  13.0210  0.00  0.00     0.000 OA
ATOM    138   O  SGN B   7      52.785  21.001  12.6160  0.00  0.00     0.000 OA
ATOM    139   O  SGN B   7      53.820  19.758  10.7900  0.00  0.00     0.000 OA
ENDBRANCH 124 134
BRANCH 120 140
ATOM    140  O4  IDS B   8      49.091  17.392   8.1870  0.00  0.00     0.000 O
BRANCH 140 144
ATOM    141  C1  IDS B   8      49.166  18.594   4.7950  0.00  0.00     0.000 C
ATOM    142  C2  IDS B   8      49.109  19.584   5.9930  0.00  0.00     0.000 C
ATOM    143  C3  IDS B   8      48.023  19.223   7.0230  0.00  0.00     0.000 C
ATOM    144  C4  IDS B   8      47.996  17.725   7.3260  0.00  0.00     0.000 C
ATOM    145  C5  IDS B   8      48.086  16.919   6.0210  0.00  0.00     0.000 C
ATOM    146  O5  IDS B   8      49.251  17.257   5.2730  0.00  0.00     0.000 O
BRANCH 142 147
ATOM    147   O  IDS B   8      50.413  19.575   6.7060  0.00  0.00     0.000 O
ATOM    148   S  IDS B   8      51.464  20.798   6.5420  0.00  0.00     0.000 S
ATOM    149   O  IDS B   8      51.074  21.558   5.3760  0.00  0.00     0.000 OA
ATOM    150   O  IDS B   8      51.363  21.564   7.7710  0.00  0.00     0.000 OA
ATOM    151   O  IDS B   8      52.759  20.168   6.3690  0.00  0.00     0.000 OA
ENDBRANCH 142 147
BRANCH 145 152
ATOM    152   C  IDS B   8      48.164  15.426   6.2630  0.00  0.00     0.000 C
ATOM    153   O  IDS B   8      49.151  14.803   5.8860  0.00  0.00     0.000 OA
ATOM    154   O  IDS B   8      47.256  14.862   6.8470  0.00  0.00     0.000 OA
ENDBRANCH 145 152
ENDBRANCH 140 144
ENDBRANCH 120 140
ENDBRANCH 119 123
ENDBRANCH 103 119
ENDBRANCH 102 106
ENDBRANCH 82 102
ENDBRANCH 81 85
ENDBRANCH 65 81
ENDBRANCH 64 68
ENDBRANCH 41 64
ENDBRANCH 40 44
ENDBRANCH 24 40
ENDBRANCH 23 27
ENDBRANCH 1 23
TORSDOF 31
ENDMDL
